MODEL 1
REMARK VINA RESULT:     -12.5      0.000      0.000
ROOT
ATOM      1  C1  BDP B   1       0.660  -7.403  24.0840  0.00  0.00     0.000 C
ATOM      2  C2  BDP B   1       1.067  -6.427  22.9940  0.00  0.00     0.000 C
ATOM      3  C3  BDP B   1       0.610  -6.880  21.6240  0.00  0.00     0.000 C
ATOM      4  C4  BDP B   1      -0.437  -7.989  21.6530  0.00  0.00     0.000 C
ATOM      5  C5  BDP B   1      -0.075  -9.117  22.6140  0.00  0.00     0.000 C
ATOM      6  O5  BDP B   1       0.905  -8.709  23.5840  0.00  0.00     0.000 O
ATOM      7   O  BDP B   1       0.529  -5.131  23.2760  0.00  0.00     0.000 O
ATOM      9  HD  BDP B   1       0.355  -4.483  23.8240  0.00  0.00     0.000 HD
ATOM      9   O  BDP B   1       1.732  -7.360  20.8660  0.00  0.00     0.000 O
ATOM     11  HD  BDP B   1       1.558  -6.713  21.4140  0.00  0.00     0.000 HD
ATOM     11   O  BDP B   1      -1.721  -7.455  21.9960  0.00  0.00     0.000 O
ATOM     13  HD  BDP B   1      -1.895  -6.807  22.5440  0.00  0.00     0.000 HD
ENDROOT
BRANCH 5 13
ATOM     13   C  BDP B   1       0.464 -10.237  21.7960  0.00  0.00     0.000 C
ATOM     14   O  BDP B   1      -0.183 -10.599  20.7910  0.00  0.00     0.000 OA
ATOM     15   O  BDP B   1       1.552 -10.759  22.1210  0.00  0.00     0.000 OA
ENDBRANCH 5 13
BRANCH 1 16
ATOM     16  O3  NAG B   2      -0.139  -7.210  25.2490  0.00  0.00     0.000 O
BRANCH 16 19
ATOM     17  C1  NAG B   2       0.900  -8.288  28.5680  0.00  0.00     0.000 C
ATOM     18  C2  NAG B   2       0.869  -7.228  27.4670  0.00  0.00     0.000 C
ATOM     19  C3  NAG B   2      -0.406  -7.345  26.6460  0.00  0.00     0.000 C
ATOM     20  C4  NAG B   2      -1.129  -8.669  26.9080  0.00  0.00     0.000 C
ATOM     21  C5  NAG B   2      -0.212  -9.874  27.1620  0.00  0.00     0.000 C
ATOM     22  O5  NAG B   2       0.980  -9.539  27.8810  0.00  0.00     0.000 O
ATOM     23   O  NAG B   2      -2.015  -8.492  28.0180  0.00  0.00     0.000 O
ATOM     25  HD  NAG B   2      -1.458  -8.012  28.4760  0.00  0.00     0.000 HD
ATOM     25   C  NAG B   2       0.185 -10.540  25.8370  0.00  0.00     0.000 C
ATOM     26   O  NAG B   2      -0.802 -11.484  25.4000  0.00  0.00     0.000 O
ATOM     28  HD  NAG B   2      -0.245 -11.005  25.8580  0.00  0.00     0.000 HD
BRANCH 18 30
ATOM     28   N  NAG B   2       1.174  -6.295  28.5520  0.00  0.00     0.000 N
ATOM     30  HD  NAG B   2       1.298  -6.260  29.4080  0.00  0.00     0.000 HD
ATOM     30   C  NAG B   2       0.345  -5.341  29.0000  0.00  0.00     0.000 C
ATOM     31   C  NAG B   2       0.893  -4.502  30.1180  0.00  0.00     0.000 C
ATOM     32   O  NAG B   2      -0.765  -5.161  28.5560  0.00  0.00     0.000 OA
ENDBRANCH 18 30
BRANCH 17 33
ATOM     33  O4  BDP B   3       1.597  -9.123  29.5190  0.00  0.00     0.000 O
BRANCH 33 37
ATOM     34  C1  BDP B   3       5.317 -10.477  31.1220  0.00  0.00     0.000 C
ATOM     35  C2  BDP B   3       4.085 -10.612  32.0100  0.00  0.00     0.000 C
ATOM     36  C3  BDP B   3       2.769 -10.515  31.2460  0.00  0.00     0.000 C
ATOM     37  C4  BDP B   3       2.827  -9.327  30.2730  0.00  0.00     0.000 C
ATOM     38  C5  BDP B   3       4.052  -9.541  29.3640  0.00  0.00     0.000 C
ATOM     39  O5  BDP B   3       5.192  -9.382  30.2080  0.00  0.00     0.000 O
ATOM     40   O  BDP B   3       4.222 -11.857  32.6970  0.00  0.00     0.000 O
ATOM     42  HD  BDP B   3       4.733 -11.355  33.1840  0.00  0.00     0.000 HD
ATOM     42   O  BDP B   3       1.741 -10.352  32.2220  0.00  0.00     0.000 O
ATOM     44  HD  BDP B   3       2.252  -9.850  32.7080  0.00  0.00     0.000 HD
BRANCH 38 44
ATOM     44   C  BDP B   3       4.139  -8.592  28.2100  0.00  0.00     0.000 C
ATOM     45   O  BDP B   3       4.157  -9.074  27.0550  0.00  0.00     0.000 OA
ATOM     46   O  BDP B   3       4.192  -7.361  28.4240  0.00  0.00     0.000 OA
ENDBRANCH 38 44
BRANCH 34 47
ATOM     47  O3  NAG B   4       6.359  -9.745  31.7630  0.00  0.00     0.000 O
BRANCH 47 50
ATOM     48  C1  NAG B   4       9.915 -10.970  31.8290  0.00  0.00     0.000 C
ATOM     49  C2  NAG B   4       8.456 -10.887  32.2410  0.00  0.00     0.000 C
ATOM     50  C3  NAG B   4       7.732  -9.888  31.3450  0.00  0.00     0.000 C
ATOM     51  C4  NAG B   4       8.412  -8.528  31.3610  0.00  0.00     0.000 C
ATOM     52  C5  NAG B   4       9.892  -8.683  31.0080  0.00  0.00     0.000 C
ATOM     53  O5  NAG B   4      10.509  -9.657  31.8590  0.00  0.00     0.000 O
ATOM     54   O  NAG B   4       7.757  -7.669  30.4240  0.00  0.00     0.000 O
ATOM     56  HD  NAG B   4       8.279  -7.238  30.9640  0.00  0.00     0.000 HD
ATOM     56   C  NAG B   4      10.633  -7.358  31.1360  0.00  0.00     0.000 C
ATOM     57   O  NAG B   4      10.528  -6.891  32.4870  0.00  0.00     0.000 O
ATOM     59  HD  NAG B   4      11.050  -6.460  33.0270  0.00  0.00     0.000 HD
BRANCH 49 61
ATOM     59   N  NAG B   4       7.951 -12.261  32.2460  0.00  0.00     0.000 N
ATOM     61  HD  NAG B   4       8.358 -11.716  32.7820  0.00  0.00     0.000 HD
ATOM     61   O  NAG B   4       7.069 -12.218  34.3250  0.00  0.00     0.000 OA
ATOM     62   C  NAG B   4       7.240 -12.781  33.2540  0.00  0.00     0.000 C
ATOM     63   C  NAG B   4       6.629 -14.121  32.9900  0.00  0.00     0.000 C
ENDBRANCH 49 61
BRANCH 48 64
ATOM     64  O4  BDP B   5      10.884 -12.012  31.8940  0.00  0.00     0.000 O
BRANCH 64 68
ATOM     65  C1  BDP B   5      14.563 -13.834  32.6140  0.00  0.00     0.000 C
ATOM     66  C2  BDP B   5      14.560 -12.311  32.6220  0.00  0.00     0.000 C
ATOM     67  C3  BDP B   5      13.132 -11.803  32.7790  0.00  0.00     0.000 C
ATOM     68  C4  BDP B   5      12.246 -12.379  31.6810  0.00  0.00     0.000 C
ATOM     69  C5  BDP B   5      12.335 -13.898  31.6090  0.00  0.00     0.000 C
ATOM     70  O5  BDP B   5      13.708 -14.324  31.5680  0.00  0.00     0.000 O
ATOM     71   O  BDP B   5      15.412 -11.833  33.6740  0.00  0.00     0.000 O
ATOM     73  HD  BDP B   5      15.921 -11.599  34.3340  0.00  0.00     0.000 HD
ATOM     73   O  BDP B   5      13.098 -10.372  32.7110  0.00  0.00     0.000 O
ATOM     75  HD  BDP B   5      13.607 -10.138  33.3710  0.00  0.00     0.000 HD
BRANCH 69 75
ATOM     75   C  BDP B   5      11.629 -14.356  30.3580  0.00  0.00     0.000 C
ATOM     76   O  BDP B   5      12.290 -14.936  29.4740  0.00  0.00     0.000 OA
ATOM     77   O  BDP B   5      10.407 -14.146  30.2440  0.00  0.00     0.000 OA
ENDBRANCH 69 75
BRANCH 65 78
ATOM     78  O3  NAG B   6      15.497 -14.677  31.9350  0.00  0.00     0.000 O
BRANCH 78 81
ATOM     79  C1  NAG B   6      18.053 -17.432  32.3940  0.00  0.00     0.000 C
ATOM     80  C2  NAG B   6      17.524 -16.000  32.2190  0.00  0.00     0.000 C
ATOM     81  C3  NAG B   6      16.004 -15.992  32.2500  0.00  0.00     0.000 C
ATOM     82  C4  NAG B   6      15.433 -17.022  31.2700  0.00  0.00     0.000 C
ATOM     83  C5  NAG B   6      16.033 -18.392  31.5680  0.00  0.00     0.000 C
ATOM     84  O5  NAG B   6      17.448 -18.288  31.4080  0.00  0.00     0.000 O
BRANCH 80 87
ATOM     85   N  NAG B   6      18.259 -15.218  33.2090  0.00  0.00     0.000 N
ATOM     87  HD  NAG B   6      18.972 -14.786  33.4420  0.00  0.00     0.000 HD
ATOM     87   C  NAG B   6      18.598 -13.933  33.0470  0.00  0.00     0.000 C
ATOM     88   C  NAG B   6      19.319 -13.303  34.1960  0.00  0.00     0.000 C
ATOM     89   O  NAG B   6      18.331 -13.293  32.0370  0.00  0.00     0.000 OA
ENDBRANCH 80 87
ATOM     90   O  NAG B   6      14.708 -20.410  31.4290  0.00  0.00     0.000 O
ATOM     92  HD  NAG B   6      15.374 -20.016  31.8160  0.00  0.00     0.000 HD
ATOM     92   O  NAG B   6      14.708 -20.410  31.4290  0.00  0.00     0.000 O
ATOM     94  HD  NAG B   6      15.374 -20.016  31.8160  0.00  0.00     0.000 HD
ENDBRANCH 78 81
ENDBRANCH 65 78
ENDBRANCH 64 68
ENDBRANCH 48 64
ENDBRANCH 47 50
ENDBRANCH 34 47
ENDBRANCH 33 37
ENDBRANCH 17 33
ENDBRANCH 16 19
ENDBRANCH 1 16
TORSDOF 16
ENDMDL
MODEL 2
REMARK VINA RESULT:     -12.2      6.012     15.156
ROOT
ATOM      1  C1  BDP B   1      13.859  -3.862  34.1520  0.00  0.00     0.000 C
ATOM      2  C2  BDP B   1      13.581  -2.412  33.8000  0.00  0.00     0.000 C
ATOM      3  C3  BDP B   1      14.532  -1.889  32.7450  0.00  0.00     0.000 C
ATOM      4  C4  BDP B   1      15.311  -2.977  32.0150  0.00  0.00     0.000 C
ATOM      5  C5  BDP B   1      15.909  -4.012  32.9640  0.00  0.00     0.000 C
ATOM      6  O5  BDP B   1      15.269  -4.001  34.2510  0.00  0.00     0.000 O
ATOM      7   O  BDP B   1      12.232  -2.273  33.3410  0.00  0.00     0.000 O
ATOM      9  HD  BDP B   1      11.385  -2.445  33.4070  0.00  0.00     0.000 HD
ATOM      9   O  BDP B   1      15.487  -0.998  33.3440  0.00  0.00     0.000 O
ATOM     11  HD  BDP B   1      14.640  -1.170  33.4100  0.00  0.00     0.000 HD
ATOM     11   O  BDP B   1      14.474  -3.631  31.0540  0.00  0.00     0.000 O
ATOM     13  HD  BDP B   1      13.627  -3.803  31.1200  0.00  0.00     0.000 HD
ENDROOT
BRANCH 5 13
ATOM     13   C  BDP B   1      17.353  -3.684  33.1190  0.00  0.00     0.000 C
ATOM     14   O  BDP B   1      17.672  -2.794  33.9340  0.00  0.00     0.000 OA
ATOM     15   O  BDP B   1      18.196  -4.322  32.4530  0.00  0.00     0.000 OA
ENDBRANCH 5 13
BRANCH 1 16
ATOM     16  O3  NAG B   2      13.020  -5.012  34.0750  0.00  0.00     0.000 O
BRANCH 16 19
ATOM     17  C1  NAG B   2       9.540  -4.864  33.0170  0.00  0.00     0.000 C
ATOM     18  C2  NAG B   2      11.027  -4.954  32.6750  0.00  0.00     0.000 C
ATOM     19  C3  NAG B   2      11.788  -5.672  33.7800  0.00  0.00     0.000 C
ATOM     20  C4  NAG B   2      10.950  -5.797  35.0560  0.00  0.00     0.000 C
ATOM     21  C5  NAG B   2      10.024  -4.608  35.3470  0.00  0.00     0.000 C
ATOM     22  O5  NAG B   2       9.470  -4.016  34.1660  0.00  0.00     0.000 O
ATOM     23   O  NAG B   2      10.183  -7.002  34.9800  0.00  0.00     0.000 O
ATOM     25  HD  NAG B   2       9.987  -6.908  34.1420  0.00  0.00     0.000 HD
ATOM     25   C  NAG B   2      10.769  -3.522  36.1360  0.00  0.00     0.000 C
ATOM     26   O  NAG B   2      10.747  -3.781  37.5470  0.00  0.00     0.000 O
ATOM     28  HD  NAG B   2      10.552  -3.687  36.7080  0.00  0.00     0.000 HD
BRANCH 18 30
ATOM     28   N  NAG B   2      10.333  -6.087  32.0640  0.00  0.00     0.000 N
ATOM     30  HD  NAG B   2      10.131  -6.918  32.1990  0.00  0.00     0.000 HD
ATOM     30   C  NAG B   2      10.748  -6.744  30.9710  0.00  0.00     0.000 C
ATOM     31   C  NAG B   2       9.854  -7.868  30.5310  0.00  0.00     0.000 C
ATOM     32   O  NAG B   2      11.765  -6.471  30.3770  0.00  0.00     0.000 OA
ENDBRANCH 18 30
BRANCH 17 33
ATOM     33  O4  BDP B   3       8.233  -4.264  32.8830  0.00  0.00     0.000 O
BRANCH 33 37
ATOM     34  C1  BDP B   3       4.477  -5.424  31.2130  0.00  0.00     0.000 C
ATOM     35  C2  BDP B   3       4.838  -3.944  31.1550  0.00  0.00     0.000 C
ATOM     36  C3  BDP B   3       6.323  -3.669  31.3690  0.00  0.00     0.000 C
ATOM     37  C4  BDP B   3       6.827  -4.485  32.5690  0.00  0.00     0.000 C
ATOM     38  C5  BDP B   3       6.510  -5.965  32.2810  0.00  0.00     0.000 C
ATOM     39  O5  BDP B   3       5.088  -6.073  32.3350  0.00  0.00     0.000 O
ATOM     40   O  BDP B   3       4.377  -3.470  29.8880  0.00  0.00     0.000 O
ATOM     42  HD  BDP B   3       3.638  -3.450  30.3390  0.00  0.00     0.000 HD
ATOM     42   O  BDP B   3       6.452  -2.266  31.5890  0.00  0.00     0.000 O
ATOM     44  HD  BDP B   3       5.713  -2.246  32.0400  0.00  0.00     0.000 HD
BRANCH 38 44
ATOM     44   C  BDP B   3       7.128  -6.929  33.2460  0.00  0.00     0.000 C
ATOM     45   O  BDP B   3       7.188  -6.595  34.4490  0.00  0.00     0.000 OA
ATOM     46   O  BDP B   3       7.563  -8.025  32.8310  0.00  0.00     0.000 OA
ENDBRANCH 38 44
BRANCH 34 47
ATOM     47  O3  NAG B   4       3.219  -5.641  31.8500  0.00  0.00     0.000 O
BRANCH 47 50
ATOM     48  C1  NAG B   4       1.218  -8.402  30.2620  0.00  0.00     0.000 C
ATOM     49  C2  NAG B   4       1.987  -7.094  30.3340  0.00  0.00     0.000 C
ATOM     50  C3  NAG B   4       2.542  -6.910  31.7420  0.00  0.00     0.000 C
ATOM     51  C4  NAG B   4       1.445  -6.991  32.7910  0.00  0.00     0.000 C
ATOM     52  C5  NAG B   4       0.662  -8.294  32.6250  0.00  0.00     0.000 C
ATOM     53  O5  NAG B   4       0.195  -8.427  31.2770  0.00  0.00     0.000 O
ATOM     54   O  NAG B   4       2.037  -6.920  34.0910  0.00  0.00     0.000 O
ATOM     56  HD  NAG B   4       1.180  -6.802  34.1090  0.00  0.00     0.000 HD
ATOM     56   C  NAG B   4      -0.525  -8.352  33.5790  0.00  0.00     0.000 C
ATOM     57   O  NAG B   4      -1.400  -7.250  33.3060  0.00  0.00     0.000 O
ATOM     59  HD  NAG B   4      -2.258  -7.132  33.3230  0.00  0.00     0.000 HD
BRANCH 49 61
ATOM     59   N  NAG B   4       0.992  -6.228  29.7000  0.00  0.00     0.000 N
ATOM     61  HD  NAG B   4       1.794  -6.170  30.0200  0.00  0.00     0.000 HD
ATOM     61   O  NAG B   4       2.419  -5.119  28.3470  0.00  0.00     0.000 OA
ATOM     62   C  NAG B   4       1.281  -5.371  28.7140  0.00  0.00     0.000 C
ATOM     63   C  NAG B   4       0.105  -4.731  28.0470  0.00  0.00     0.000 C
ENDBRANCH 49 61
BRANCH 48 64
ATOM     64  O4  BDP B   5       0.964  -9.321  29.2040  0.00  0.00     0.000 O
BRANCH 64 68
ATOM     65  C1  BDP B   5      -0.740  -8.854  25.4290  0.00  0.00     0.000 C
ATOM     66  C2  BDP B   5      -1.708  -8.834  26.6050  0.00  0.00     0.000 C
ATOM     67  C3  BDP B   5      -0.940  -8.581  27.8960  0.00  0.00     0.000 C
ATOM     68  C4  BDP B   5       0.159  -9.624  28.0660  0.00  0.00     0.000 C
ATOM     69  C5  BDP B   5       1.061  -9.713  26.8410  0.00  0.00     0.000 C
ATOM     70  O5  BDP B   5       0.276  -9.846  25.6430  0.00  0.00     0.000 O
ATOM     71   O  BDP B   5      -2.715  -7.835  26.3830  0.00  0.00     0.000 O
ATOM     73  HD  BDP B   5      -3.286  -7.207  26.2090  0.00  0.00     0.000 HD
ATOM     73   O  BDP B   5      -1.821  -8.635  29.0240  0.00  0.00     0.000 O
ATOM     75  HD  BDP B   5      -2.392  -8.007  28.8500  0.00  0.00     0.000 HD
BRANCH 69 75
ATOM     75   C  BDP B   5       1.951 -10.920  26.9960  0.00  0.00     0.000 C
ATOM     76   O  BDP B   5       1.439 -12.056  26.9310  0.00  0.00     0.000 OA
ATOM     77   O  BDP B   5       3.171 -10.750  27.1800  0.00  0.00     0.000 OA
ENDBRANCH 69 75
BRANCH 65 78
ATOM     78  O3  NAG B   6      -0.892  -9.599  24.2180  0.00  0.00     0.000 O
BRANCH 78 81
ATOM     79  C1  NAG B   6      -1.088  -8.743  20.5350  0.00  0.00     0.000 C
ATOM     80  C2  NAG B   6      -1.555  -8.850  21.9950  0.00  0.00     0.000 C
ATOM     81  C3  NAG B   6      -0.420  -9.349  22.8760  0.00  0.00     0.000 C
ATOM     82  C4  NAG B   6       0.202 -10.623  22.2950  0.00  0.00     0.000 C
ATOM     83  C5  NAG B   6       0.628 -10.367  20.8540  0.00  0.00     0.000 C
ATOM     84  O5  NAG B   6      -0.539 -10.005  20.1150  0.00  0.00     0.000 O
BRANCH 80 87
ATOM     85   N  NAG B   6      -2.064  -7.545  22.4060  0.00  0.00     0.000 N
ATOM     87  HD  NAG B   6      -2.675  -6.933  22.3630  0.00  0.00     0.000 HD
ATOM     87   C  NAG B   6      -3.182  -7.369  23.1230  0.00  0.00     0.000 C
ATOM     88   C  NAG B   6      -3.513  -5.953  23.4710  0.00  0.00     0.000 C
ATOM     89   O  NAG B   6      -3.892  -8.297  23.4910  0.00  0.00     0.000 OA
ENDBRANCH 80 87
ATOM     90   O  NAG B   6       2.675 -11.291  19.9570  0.00  0.00     0.000 O
ATOM     92  HD  NAG B   6       2.110 -10.636  19.9240  0.00  0.00     0.000 HD
ATOM     92   O  NAG B   6       2.675 -11.291  19.9570  0.00  0.00     0.000 O
ATOM     94  HD  NAG B   6       2.110 -10.636  19.9240  0.00  0.00     0.000 HD
ENDBRANCH 78 81
ENDBRANCH 65 78
ENDBRANCH 64 68
ENDBRANCH 48 64
ENDBRANCH 47 50
ENDBRANCH 34 47
ENDBRANCH 33 37
ENDBRANCH 17 33
ENDBRANCH 16 19
ENDBRANCH 1 16
TORSDOF 16
ENDMDL
MODEL 3
REMARK VINA RESULT:     -12.0      5.967     12.408
ROOT
ATOM      1  C1  BDP B   1       2.673   0.607  28.4720  0.00  0.00     0.000 C
ATOM      2  C2  BDP B   1       2.597  -0.548  27.4900  0.00  0.00     0.000 C
ATOM      3  C3  BDP B   1       2.262  -0.084  26.0880  0.00  0.00     0.000 C
ATOM      4  C4  BDP B   1       2.421   1.418  25.8770  0.00  0.00     0.000 C
ATOM      5  C5  BDP B   1       1.788   2.241  26.9940  0.00  0.00     0.000 C
ATOM      6  O5  BDP B   1       1.579   1.466  28.1870  0.00  0.00     0.000 O
ATOM      7   O  BDP B   1       3.840  -1.259  27.4770  0.00  0.00     0.000 O
ATOM      9  HD  BDP B   1       4.514  -1.619  27.8850  0.00  0.00     0.000 HD
ATOM      9   O  BDP B   1       0.905  -0.428  25.7690  0.00  0.00     0.000 O
ATOM     11  HD  BDP B   1       1.579  -0.788  26.1770  0.00  0.00     0.000 HD
ATOM     11   O  BDP B   1       3.806   1.760  25.7480  0.00  0.00     0.000 O
ATOM     13  HD  BDP B   1       4.480   1.401  26.1570  0.00  0.00     0.000 HD
ENDROOT
BRANCH 5 13
ATOM     13   C  BDP B   1       0.482   2.743  26.4860  0.00  0.00     0.000 C
ATOM     14   O  BDP B   1       0.489   3.711  25.6960  0.00  0.00     0.000 OA
ATOM     15   O  BDP B   1      -0.570   2.170  26.8410  0.00  0.00     0.000 OA
ENDBRANCH 5 13
BRANCH 1 16
ATOM     16  O3  NAG B   2       3.745   1.048  29.3030  0.00  0.00     0.000 O
BRANCH 16 19
ATOM     17  C1  NAG B   2       5.490  -1.093  31.6760  0.00  0.00     0.000 C
ATOM     18  C2  NAG B   2       5.406  -0.429  30.3010  0.00  0.00     0.000 C
ATOM     19  C3  NAG B   2       4.659   0.894  30.3900  0.00  0.00     0.000 C
ATOM     20  C4  NAG B   2       3.912   1.035  31.7190  0.00  0.00     0.000 C
ATOM     21  C5  NAG B   2       3.325  -0.269  32.2780  0.00  0.00     0.000 C
ATOM     22  O5  NAG B   2       4.141  -1.418  32.0180  0.00  0.00     0.000 O
ATOM     23   O  NAG B   2       4.797   1.619  32.6790  0.00  0.00     0.000 O
ATOM     25  HD  NAG B   2       5.487   1.161  32.4250  0.00  0.00     0.000 HD
ATOM     25   C  NAG B   2       1.925  -0.523  31.7030  0.00  0.00     0.000 C
ATOM     26   O  NAG B   2       0.911   0.162  32.4520  0.00  0.00     0.000 O
ATOM     28  HD  NAG B   2       1.601  -0.296  32.1990  0.00  0.00     0.000 HD
BRANCH 18 30
ATOM     28   N  NAG B   2       6.519   0.432  30.6980  0.00  0.00     0.000 N
ATOM     30  HD  NAG B   2       6.823   1.239  30.6140  0.00  0.00     0.000 HD
ATOM     30   C  NAG B   2       7.783   0.302  30.2690  0.00  0.00     0.000 C
ATOM     31   C  NAG B   2       8.748   1.306  30.8320  0.00  0.00     0.000 C
ATOM     32   O  NAG B   2       8.135  -0.547  29.4840  0.00  0.00     0.000 OA
ENDBRANCH 18 30
BRANCH 17 33
ATOM     33  O4  BDP B   3       5.654  -2.246  32.5290  0.00  0.00     0.000 O
BRANCH 33 37
ATOM     34  C1  BDP B   3       4.181  -6.255  32.4480  0.00  0.00     0.000 C
ATOM     35  C2  BDP B   3       4.164  -5.533  33.7900  0.00  0.00     0.000 C
ATOM     36  C3  BDP B   3       4.294  -4.019  33.6710  0.00  0.00     0.000 C
ATOM     37  C4  BDP B   3       5.421  -3.677  32.6860  0.00  0.00     0.000 C
ATOM     38  C5  BDP B   3       5.090  -4.373  31.3520  0.00  0.00     0.000 C
ATOM     39  O5  BDP B   3       5.230  -5.772  31.6010  0.00  0.00     0.000 O
ATOM     40   O  BDP B   3       2.952  -5.923  34.4390  0.00  0.00     0.000 O
ATOM     42  HD  BDP B   3       3.451  -6.609  34.6170  0.00  0.00     0.000 HD
ATOM     42   O  BDP B   3       4.567  -3.526  34.9820  0.00  0.00     0.000 O
ATOM     44  HD  BDP B   3       5.065  -4.212  35.1590  0.00  0.00     0.000 HD
BRANCH 38 44
ATOM     44   C  BDP B   3       5.968  -3.971  30.2090  0.00  0.00     0.000 C
ATOM     45   O  BDP B   3       5.425  -3.463  29.2030  0.00  0.00     0.000 OA
ATOM     46   O  BDP B   3       7.203  -4.151  30.2850  0.00  0.00     0.000 OA
ENDBRANCH 38 44
BRANCH 34 47
ATOM     47  O3  NAG B   4       4.887  -7.492  32.5160  0.00  0.00     0.000 O
BRANCH 47 50
ATOM     48  C1  NAG B   4       3.386 -10.207  30.3880  0.00  0.00     0.000 C
ATOM     49  C2  NAG B   4       3.435  -9.146  31.4730  0.00  0.00     0.000 C
ATOM     50  C3  NAG B   4       4.796  -8.458  31.4480  0.00  0.00     0.000 C
ATOM     51  C4  NAG B   4       5.932  -9.461  31.5730  0.00  0.00     0.000 C
ATOM     52  C5  NAG B   4       5.790 -10.541  30.5010  0.00  0.00     0.000 C
ATOM     53  O5  NAG B   4       4.483 -11.127  30.5510  0.00  0.00     0.000 O
ATOM     54   O  NAG B   4       7.178  -8.773  31.4350  0.00  0.00     0.000 O
ATOM     56  HD  NAG B   4       7.272  -9.574  31.7500  0.00  0.00     0.000 HD
ATOM     56   C  NAG B   4       6.840 -11.633  30.6730  0.00  0.00     0.000 C
ATOM     57   O  NAG B   4       6.678 -12.238  31.9620  0.00  0.00     0.000 O
ATOM     59  HD  NAG B   4       6.773 -13.040  32.2780  0.00  0.00     0.000 HD
BRANCH 49 61
ATOM     59   N  NAG B   4       2.790 -10.000  32.4700  0.00  0.00     0.000 N
ATOM     61  HD  NAG B   4       3.129  -9.205  32.4180  0.00  0.00     0.000 HD
ATOM     61   O  NAG B   4       1.484  -8.405  33.3920  0.00  0.00     0.000 OA
ATOM     62   C  NAG B   4       1.822  -9.575  33.2910  0.00  0.00     0.000 C
ATOM     63   C  NAG B   4       1.137 -10.639  34.0890  0.00  0.00     0.000 C
ENDBRANCH 49 61
BRANCH 48 64
ATOM     64  O4  BDP B   5       2.324 -10.751  29.6110  0.00  0.00     0.000 O
BRANCH 64 68
ATOM     65  C1  BDP B   5       0.240  -8.791  26.5800  0.00  0.00     0.000 C
ATOM     66  C2  BDP B   5      -0.424  -8.794  27.9510  0.00  0.00     0.000 C
ATOM     67  C3  BDP B   5       0.606  -9.144  29.0170  0.00  0.00     0.000 C
ATOM     68  C4  BDP B   5       1.269 -10.477  28.6890  0.00  0.00     0.000 C
ATOM     69  C5  BDP B   5       1.839 -10.504  27.2770  0.00  0.00     0.000 C
ATOM     70  O5  BDP B   5       0.854 -10.064  26.3260  0.00  0.00     0.000 O
ATOM     71   O  BDP B   5      -1.029  -7.516  28.1960  0.00  0.00     0.000 O
ATOM     73  HD  BDP B   5      -1.358  -6.722  28.3020  0.00  0.00     0.000 HD
ATOM     73   O  BDP B   5      -0.014  -9.229  30.3060  0.00  0.00     0.000 O
ATOM     75  HD  BDP B   5      -0.343  -8.435  30.4110  0.00  0.00     0.000 HD
BRANCH 69 75
ATOM     75   C  BDP B   5       2.250 -11.919  26.9590  0.00  0.00     0.000 C
ATOM     76   O  BDP B   5       3.456 -12.228  27.0480  0.00  0.00     0.000 OA
ATOM     77   O  BDP B   5       1.377 -12.739  26.6200  0.00  0.00     0.000 OA
ENDBRANCH 69 75
BRANCH 65 78
ATOM     78  O3  NAG B   6      -0.388  -9.099  25.3320  0.00  0.00     0.000 O
BRANCH 78 81
ATOM     79  C1  NAG B   6      -0.320  -7.466  21.9170  0.00  0.00     0.000 C
ATOM     80  C2  NAG B   6      -0.637  -7.618  23.4140  0.00  0.00     0.000 C
ATOM     81  C3  NAG B   6       0.028  -8.867  23.9690  0.00  0.00     0.000 C
ATOM     82  C4  NAG B   6      -0.301 -10.090  23.1060  0.00  0.00     0.000 C
ATOM     83  C5  NAG B   6       0.075  -9.803  21.6570  0.00  0.00     0.000 C
ATOM     84  O5  NAG B   6      -0.688  -8.674  21.2280  0.00  0.00     0.000 O
BRANCH 80 87
ATOM     85   N  NAG B   6      -0.260  -6.349  24.0310  0.00  0.00     0.000 N
ATOM     87  HD  NAG B   6      -0.434  -5.517  24.1980  0.00  0.00     0.000 HD
ATOM     87   C  NAG B   6      -0.931  -5.778  25.0390  0.00  0.00     0.000 C
ATOM     88   C  NAG B   6      -0.361  -4.495  25.5540  0.00  0.00     0.000 C
ATOM     89   O  NAG B   6      -1.940  -6.268  25.5320  0.00  0.00     0.000 OA
ENDBRANCH 80 87
ATOM     90   O  NAG B   6       1.058 -11.503  20.2460  0.00  0.00     0.000 O
ATOM     92  HD  NAG B   6       1.007 -10.656  20.4170  0.00  0.00     0.000 HD
ATOM     92   O  NAG B   6       1.058 -11.503  20.2460  0.00  0.00     0.000 O
ATOM     94  HD  NAG B   6       1.007 -10.656  20.4170  0.00  0.00     0.000 HD
ENDBRANCH 78 81
ENDBRANCH 65 78
ENDBRANCH 64 68
ENDBRANCH 48 64
ENDBRANCH 47 50
ENDBRANCH 34 47
ENDBRANCH 33 37
ENDBRANCH 17 33
ENDBRANCH 16 19
ENDBRANCH 1 16
TORSDOF 16
ENDMDL
MODEL 4
REMARK VINA RESULT:     -11.7      5.947     16.165
ROOT
ATOM      1  C1  BDP B   1      14.203  -4.361  34.3800  0.00  0.00     0.000 C
ATOM      2  C2  BDP B   1      15.104  -3.981  35.5410  0.00  0.00     0.000 C
ATOM      3  C3  BDP B   1      16.062  -2.867  35.1780  0.00  0.00     0.000 C
ATOM      4  C4  BDP B   1      15.702  -2.132  33.8920  0.00  0.00     0.000 C
ATOM      5  C5  BDP B   1      15.357  -3.079  32.7470  0.00  0.00     0.000 C
ATOM      6  O5  BDP B   1      15.018  -4.395  33.2170  0.00  0.00     0.000 O
ATOM      7   O  BDP B   1      14.309  -3.585  36.6640  0.00  0.00     0.000 O
ATOM      9  HD  BDP B   1      13.633  -3.697  37.1930  0.00  0.00     0.000 HD
ATOM      9   O  BDP B   1      17.390  -3.393  35.0220  0.00  0.00     0.000 O
ATOM     11  HD  BDP B   1      16.713  -3.505  35.5520  0.00  0.00     0.000 HD
ATOM     11   O  BDP B   1      14.611  -1.231  34.1200  0.00  0.00     0.000 O
ATOM     13  HD  BDP B   1      13.935  -1.343  34.6490  0.00  0.00     0.000 HD
ENDROOT
BRANCH 5 13
ATOM     13   C  BDP B   1      16.551  -3.154  31.8620  0.00  0.00     0.000 C
ATOM     14   O  BDP B   1      16.647  -2.328  30.9310  0.00  0.00     0.000 OA
ATOM     15   O  BDP B   1      17.425  -4.017  32.0910  0.00  0.00     0.000 OA
ENDBRANCH 5 13
BRANCH 1 16
ATOM     16  O3  NAG B   2      12.781  -4.358  34.2700  0.00  0.00     0.000 O
BRANCH 16 19
ATOM     17  C1  NAG B   2      10.036  -4.532  31.8850  0.00  0.00     0.000 C
ATOM     18  C2  NAG B   2      11.427  -4.974  32.3400  0.00  0.00     0.000 C
ATOM     19  C3  NAG B   2      11.535  -4.922  33.8570  0.00  0.00     0.000 C
ATOM     20  C4  NAG B   2      10.380  -4.134  34.4810  0.00  0.00     0.000 C
ATOM     21  C5  NAG B   2       9.891  -2.933  33.6600  0.00  0.00     0.000 C
ATOM     22  O5  NAG B   2       9.944  -3.151  32.2450  0.00  0.00     0.000 O
ATOM     23   O  NAG B   2       9.293  -5.033  34.7190  0.00  0.00     0.000 O
ATOM     25  HD  NAG B   2       9.392  -5.462  33.9730  0.00  0.00     0.000 HD
ATOM     25   C  NAG B   2      10.712  -1.679  33.9930  0.00  0.00     0.000 C
ATOM     26   O  NAG B   2      10.198  -0.998  35.1460  0.00  0.00     0.000 O
ATOM     28  HD  NAG B   2      10.296  -1.427  34.4000  0.00  0.00     0.000 HD
BRANCH 18 30
ATOM     28   N  NAG B   2      10.705  -6.103  31.7540  0.00  0.00     0.000 N
ATOM     30  HD  NAG B   2       9.955  -6.532  31.8010  0.00  0.00     0.000 HD
ATOM     30   C  NAG B   2      11.035  -7.392  31.9160  0.00  0.00     0.000 C
ATOM     31   C  NAG B   2      10.142  -8.367  31.2030  0.00  0.00     0.000 C
ATOM     32   O  NAG B   2      11.970  -7.761  32.5870  0.00  0.00     0.000 OA
ENDBRANCH 18 30
BRANCH 17 33
ATOM     33  O4  BDP B   3       9.122  -4.011  30.8960  0.00  0.00     0.000 O
BRANCH 33 37
ATOM     34  C1  BDP B   3       5.240  -2.574  29.8430  0.00  0.00     0.000 C
ATOM     35  C2  BDP B   3       6.423  -2.027  29.0540  0.00  0.00     0.000 C
ATOM     36  C3  BDP B   3       7.686  -2.871  29.1820  0.00  0.00     0.000 C
ATOM     37  C4  BDP B   3       7.912  -3.233  30.6580  0.00  0.00     0.000 C
ATOM     38  C5  BDP B   3       6.641  -3.947  31.1550  0.00  0.00     0.000 C
ATOM     39  O5  BDP B   3       5.620  -2.950  31.1720  0.00  0.00     0.000 O
ATOM     40   O  BDP B   3       5.982  -1.915  27.6990  0.00  0.00     0.000 O
ATOM     42  HD  BDP B   3       5.644  -1.190  28.0320  0.00  0.00     0.000 HD
ATOM     42   O  BDP B   3       8.757  -2.089  28.6560  0.00  0.00     0.000 O
ATOM     44  HD  BDP B   3       8.419  -1.364  28.9890  0.00  0.00     0.000 HD
BRANCH 38 44
ATOM     44   C  BDP B   3       6.768  -4.566  32.5110  0.00  0.00     0.000 C
ATOM     45   O  BDP B   3       6.654  -3.820  33.5080  0.00  0.00     0.000 OA
ATOM     46   O  BDP B   3       6.984  -5.793  32.6130  0.00  0.00     0.000 OA
ENDBRANCH 38 44
BRANCH 34 47
ATOM     47  O3  NAG B   4       4.459  -1.532  30.4260  0.00  0.00     0.000 O
BRANCH 47 50
ATOM     48  C1  NAG B   4       0.801  -2.408  30.4720  0.00  0.00     0.000 C
ATOM     49  C2  NAG B   4       2.182  -2.196  29.8770  0.00  0.00     0.000 C
ATOM     50  C3  NAG B   4       3.156  -1.803  30.9820  0.00  0.00     0.000 C
ATOM     51  C4  NAG B   4       2.668  -0.585  31.7500  0.00  0.00     0.000 C
ATOM     52  C5  NAG B   4       1.249  -0.830  32.2650  0.00  0.00     0.000 C
ATOM     53  O5  NAG B   4       0.389  -1.227  31.1890  0.00  0.00     0.000 O
ATOM     54   O  NAG B   4       3.563  -0.331  32.8360  0.00  0.00     0.000 O
ATOM     56  HD  NAG B   4       3.029   0.333  32.6810  0.00  0.00     0.000 HD
ATOM     56   C  NAG B   4       0.680   0.417  32.9320  0.00  0.00     0.000 C
ATOM     57   O  NAG B   4       0.647   1.485  31.9770  0.00  0.00     0.000 O
ATOM     59  HD  NAG B   4       0.113   2.150  31.8220  0.00  0.00     0.000 HD
BRANCH 49 61
ATOM     59   N  NAG B   4       1.812  -1.335  28.7530  0.00  0.00     0.000 N
ATOM     61  HD  NAG B   4       2.520  -1.716  29.0740  0.00  0.00     0.000 HD
ATOM     61   O  NAG B   4       3.057  -2.382  27.1860  0.00  0.00     0.000 OA
ATOM     62   C  NAG B   4       2.222  -1.545  27.4960  0.00  0.00     0.000 C
ATOM     63   C  NAG B   4       1.572  -0.693  26.4520  0.00  0.00     0.000 C
ENDBRANCH 49 61
BRANCH 48 64
ATOM     64  O4  BDP B   5      -0.296  -3.238  30.1060  0.00  0.00     0.000 O
BRANCH 64 68
ATOM     65  C1  BDP B   5      -1.233  -4.498  26.2450  0.00  0.00     0.000 C
ATOM     66  C2  BDP B   5      -2.014  -3.297  26.7620  0.00  0.00     0.000 C
ATOM     67  C3  BDP B   5      -1.293  -2.696  27.9620  0.00  0.00     0.000 C
ATOM     68  C4  BDP B   5      -1.083  -3.758  29.0350  0.00  0.00     0.000 C
ATOM     69  C5  BDP B   5      -0.394  -5.001  28.4860  0.00  0.00     0.000 C
ATOM     70  O5  BDP B   5      -1.057  -5.462  27.2950  0.00  0.00     0.000 O
ATOM     71   O  BDP B   5      -2.179  -2.338  25.7070  0.00  0.00     0.000 O
ATOM     73  HD  BDP B   5      -2.232  -1.786  25.0420  0.00  0.00     0.000 HD
ATOM     73   O  BDP B   5      -2.051  -1.612  28.5120  0.00  0.00     0.000 O
ATOM     75  HD  BDP B   5      -2.104  -1.060  27.8470  0.00  0.00     0.000 HD
BRANCH 69 75
ATOM     75   C  BDP B   5      -0.448  -6.077  29.5400  0.00  0.00     0.000 C
ATOM     76   O  BDP B   5       0.579  -6.316  30.2060  0.00  0.00     0.000 OA
ATOM     77   O  BDP B   5      -1.515  -6.694  29.7190  0.00  0.00     0.000 OA
ENDBRANCH 69 75
BRANCH 65 78
ATOM     78  O3  NAG B   6      -1.778  -5.647  25.5900  0.00  0.00     0.000 O
BRANCH 78 81
ATOM     79  C1  NAG B   6      -0.704  -7.497  22.4660  0.00  0.00     0.000 C
ATOM     80  C2  NAG B   6      -1.218  -6.325  23.3180  0.00  0.00     0.000 C
ATOM     81  C3  NAG B   6      -1.156  -6.679  24.7950  0.00  0.00     0.000 C
ATOM     82  C4  NAG B   6      -1.835  -8.026  25.0620  0.00  0.00     0.000 C
ATOM     83  C5  NAG B   6      -1.220  -9.092  24.1620  0.00  0.00     0.000 C
ATOM     84  O5  NAG B   6      -1.432  -8.690  22.8080  0.00  0.00     0.000 O
BRANCH 80 87
ATOM     85   N  NAG B   6      -0.434  -5.143  22.9710  0.00  0.00     0.000 N
ATOM     87  HD  NAG B   6      -0.238  -4.513  22.4090  0.00  0.00     0.000 HD
ATOM     87   C  NAG B   6      -0.955  -3.921  22.8060  0.00  0.00     0.000 C
ATOM     88   C  NAG B   6       0.024  -2.836  22.4860  0.00  0.00     0.000 C
ATOM     89   O  NAG B   6      -2.151  -3.683  22.9200  0.00  0.00     0.000 OA
ENDBRANCH 80 87
ATOM     90   O  NAG B   6      -0.822 -11.341  24.9550  0.00  0.00     0.000 O
ATOM     92  HD  NAG B   6      -0.560 -10.714  24.4190  0.00  0.00     0.000 HD
ATOM     92   O  NAG B   6      -0.822 -11.341  24.9550  0.00  0.00     0.000 O
ATOM     94  HD  NAG B   6      -0.560 -10.714  24.4190  0.00  0.00     0.000 HD
ENDBRANCH 78 81
ENDBRANCH 65 78
ENDBRANCH 64 68
ENDBRANCH 48 64
ENDBRANCH 47 50
ENDBRANCH 34 47
ENDBRANCH 33 37
ENDBRANCH 17 33
ENDBRANCH 16 19
ENDBRANCH 1 16
TORSDOF 16
ENDMDL
MODEL 5
REMARK VINA RESULT:     -11.3      7.258     10.301
ROOT
ATOM      1  C1  BDP B   1      -2.449  -8.015  25.2550  0.00  0.00     0.000 C
ATOM      2  C2  BDP B   1      -1.295  -8.885  24.7900  0.00  0.00     0.000 C
ATOM      3  C3  BDP B   1      -1.714  -9.858  23.7090  0.00  0.00     0.000 C
ATOM      4  C4  BDP B   1      -3.062  -9.538  23.0720  0.00  0.00     0.000 C
ATOM      5  C5  BDP B   1      -4.141  -9.220  24.1030  0.00  0.00     0.000 C
ATOM      6  O5  BDP B   1      -3.583  -8.862  25.3790  0.00  0.00     0.000 O
ATOM      7   O  BDP B   1      -0.228  -8.061  24.3080  0.00  0.00     0.000 O
ATOM      9  HD  BDP B   1       0.289  -7.370  24.3770  0.00  0.00     0.000 HD
ATOM      9   O  BDP B   1      -1.792 -11.187  24.2490  0.00  0.00     0.000 O
ATOM     11  HD  BDP B   1      -1.275 -10.496  24.3190  0.00  0.00     0.000 HD
ATOM     11   O  BDP B   1      -2.934  -8.446  22.1540  0.00  0.00     0.000 O
ATOM     13  HD  BDP B   1      -2.417  -7.754  22.2240  0.00  0.00     0.000 HD
ENDROOT
BRANCH 5 13
ATOM     13   C  BDP B   1      -4.984 -10.439  24.2480  0.00  0.00     0.000 C
ATOM     14   O  BDP B   1      -5.979 -10.380  25.0000  0.00  0.00     0.000 OA
ATOM     15   O  BDP B   1      -4.688 -11.464  23.5980  0.00  0.00     0.000 OA
ENDBRANCH 5 13
BRANCH 1 16
ATOM     16  O3  NAG B   2      -2.600  -6.597  25.2560  0.00  0.00     0.000 O
BRANCH 16 19
ATOM     17  C1  NAG B   2      -0.225  -4.330  26.8300  0.00  0.00     0.000 C
ATOM     18  C2  NAG B   2      -0.627  -5.224  25.6570  0.00  0.00     0.000 C
ATOM     19  C3  NAG B   2      -2.141  -5.269  25.5110  0.00  0.00     0.000 C
ATOM     20  C4  NAG B   2      -2.846  -4.707  26.7490  0.00  0.00     0.000 C
ATOM     21  C5  NAG B   2      -2.149  -5.000  28.0850  0.00  0.00     0.000 C
ATOM     22  O5  NAG B   2      -0.720  -4.994  27.9950  0.00  0.00     0.000 O
ATOM     23   O  NAG B   2      -3.001  -3.294  26.5830  0.00  0.00     0.000 O
ATOM     25  HD  NAG B   2      -2.216  -3.178  26.2360  0.00  0.00     0.000 HD
ATOM     25   C  NAG B   2      -2.599  -6.357  28.6440  0.00  0.00     0.000 C
ATOM     26   O  NAG B   2      -3.817  -6.246  29.3950  0.00  0.00     0.000 O
ATOM     28  HD  NAG B   2      -3.031  -6.129  29.0480  0.00  0.00     0.000 HD
BRANCH 18 30
ATOM     28   N  NAG B   2      -0.802  -4.523  24.3850  0.00  0.00     0.000 N
ATOM     30  HD  NAG B   2      -0.783  -4.647  23.5290  0.00  0.00     0.000 HD
ATOM     30   C  NAG B   2       0.029  -3.589  23.9030  0.00  0.00     0.000 C
ATOM     31   C  NAG B   2      -0.374  -3.007  22.5780  0.00  0.00     0.000 C
ATOM     32   O  NAG B   2       1.035  -3.234  24.4720  0.00  0.00     0.000 OA
ENDBRANCH 18 30
BRANCH 17 33
ATOM     33  O4  BDP B   3       0.703  -3.902  27.8500  0.00  0.00     0.000 O
BRANCH 33 37
ATOM     34  C1  BDP B   3       4.332  -2.447  29.5700  0.00  0.00     0.000 C
ATOM     35  C2  BDP B   3       3.787  -1.702  28.3570  0.00  0.00     0.000 C
ATOM     36  C3  BDP B   3       2.319  -1.995  28.0680  0.00  0.00     0.000 C
ATOM     37  C4  BDP B   3       2.074  -3.510  28.1500  0.00  0.00     0.000 C
ATOM     38  C5  BDP B   3       2.531  -3.972  29.5470  0.00  0.00     0.000 C
ATOM     39  O5  BDP B   3       3.951  -3.828  29.5550  0.00  0.00     0.000 O
ATOM     40   O  BDP B   3       4.023  -0.314  28.6020  0.00  0.00     0.000 O
ATOM     42  HD  BDP B   3       4.805  -0.556  28.3200  0.00  0.00     0.000 HD
ATOM     42   O  BDP B   3       2.048  -1.483  26.7640  0.00  0.00     0.000 O
ATOM     44  HD  BDP B   3       2.830  -1.726  26.4830  0.00  0.00     0.000 HD
BRANCH 38 44
ATOM     44   C  BDP B   3       2.163  -5.383  29.8830  0.00  0.00     0.000 C
ATOM     45   O  BDP B   3       1.457  -5.578  30.8970  0.00  0.00     0.000 OA
ATOM     46   O  BDP B   3       2.565  -6.317  29.1550  0.00  0.00     0.000 OA
ENDBRANCH 38 44
BRANCH 34 47
ATOM     47  O3  NAG B   4       5.677  -2.878  29.3710  0.00  0.00     0.000 O
BRANCH 47 50
ATOM     48  C1  NAG B   4       8.103  -2.500  32.2200  0.00  0.00     0.000 C
ATOM     49  C2  NAG B   4       7.187  -2.054  31.0950  0.00  0.00     0.000 C
ATOM     50  C3  NAG B   4       6.501  -3.273  30.4870  0.00  0.00     0.000 C
ATOM     51  C4  NAG B   4       7.512  -4.312  30.0280  0.00  0.00     0.000 C
ATOM     52  C5  NAG B   4       8.450  -4.669  31.1820  0.00  0.00     0.000 C
ATOM     53  O5  NAG B   4       9.037  -3.483  31.7330  0.00  0.00     0.000 O
ATOM     54   O  NAG B   4       6.812  -5.472  29.5690  0.00  0.00     0.000 O
ATOM     56  HD  NAG B   4       7.646  -5.472  29.3370  0.00  0.00     0.000 HD
ATOM     56   C  NAG B   4       9.555  -5.614  30.7250  0.00  0.00     0.000 C
ATOM     57   O  NAG B   4      10.317  -4.978  29.6900  0.00  0.00     0.000 O
ATOM     59  HD  NAG B   4      11.151  -4.979  29.4580  0.00  0.00     0.000 HD
BRANCH 49 61
ATOM     59   N  NAG B   4       6.530  -0.932  31.7670  0.00  0.00     0.000 N
ATOM     61  HD  NAG B   4       7.214  -1.073  31.2550  0.00  0.00     0.000 HD
ATOM     61   O  NAG B   4       6.692   0.539  30.0620  0.00  0.00     0.000 OA
ATOM     62   C  NAG B   4       6.275   0.238  31.1700  0.00  0.00     0.000 C
ATOM     63   C  NAG B   4       5.410   1.183  31.9420  0.00  0.00     0.000 C
ENDBRANCH 49 61
BRANCH 48 64
ATOM     64  O4  BDP B   5       8.546  -1.869  33.4180  0.00  0.00     0.000 O
BRANCH 64 68
ATOM     65  C1  BDP B   5      12.481  -1.877  34.7930  0.00  0.00     0.000 C
ATOM     66  C2  BDP B   5      11.494  -2.722  35.5880  0.00  0.00     0.000 C
ATOM     67  C3  BDP B   5      10.244  -2.971  34.7550  0.00  0.00     0.000 C
ATOM     68  C4  BDP B   5       9.641  -1.644  34.3050  0.00  0.00     0.000 C
ATOM     69  C5  BDP B   5      10.662  -0.759  33.6010  0.00  0.00     0.000 C
ATOM     70  O5  BDP B   5      11.861  -0.646  34.3880  0.00  0.00     0.000 O
ATOM     71   O  BDP B   5      12.122  -3.952  35.9830  0.00  0.00     0.000 O
ATOM     73  HD  BDP B   5      12.541  -4.684  36.1770  0.00  0.00     0.000 HD
ATOM     73   O  BDP B   5       9.271  -3.699  35.5130  0.00  0.00     0.000 O
ATOM     75  HD  BDP B   5       9.690  -4.431  35.7080  0.00  0.00     0.000 HD
BRANCH 69 75
ATOM     75   C  BDP B   5      10.053   0.607  33.4130  0.00  0.00     0.000 C
ATOM     76   O  BDP B   5      10.030   1.393  34.3820  0.00  0.00     0.000 OA
ATOM     77   O  BDP B   5       9.595   0.915  32.2970  0.00  0.00     0.000 OA
ENDBRANCH 69 75
BRANCH 65 78
ATOM     78  O3  NAG B   6      13.435  -0.957  35.3290  0.00  0.00     0.000 O
BRANCH 78 81
ATOM     79  C1  NAG B   6      17.087  -0.217  34.6600  0.00  0.00     0.000 C
ATOM     80  C2  NAG B   6      15.866  -1.002  35.1630  0.00  0.00     0.000 C
ATOM     81  C3  NAG B   6      14.582  -0.312  34.7320  0.00  0.00     0.000 C
ATOM     82  C4  NAG B   6      14.605   1.172  35.1130  0.00  0.00     0.000 C
ATOM     83  C5  NAG B   6      15.858   1.823  34.5400  0.00  0.00     0.000 C
ATOM     84  O5  NAG B   6      16.988   1.151  35.0970  0.00  0.00     0.000 O
BRANCH 80 87
ATOM     85   N  NAG B   6      15.740  -2.359  34.6400  0.00  0.00     0.000 N
ATOM     87  HD  NAG B   6      16.076  -3.148  34.5170  0.00  0.00     0.000 HD
ATOM     87   C  NAG B   6      15.705  -3.457  35.4060  0.00  0.00     0.000 C
ATOM     88   C  NAG B   6      15.536  -4.752  34.6760  0.00  0.00     0.000 C
ATOM     89   O  NAG B   6      15.788  -3.423  36.6280  0.00  0.00     0.000 OA
ENDBRANCH 80 87
ATOM     90   O  NAG B   6      15.815   4.061  33.6250  0.00  0.00     0.000 O
ATOM     92  HD  NAG B   6      16.184   3.279  33.5880  0.00  0.00     0.000 HD
ATOM     92   O  NAG B   6      15.815   4.061  33.6250  0.00  0.00     0.000 O
ATOM     94  HD  NAG B   6      16.184   3.279  33.5880  0.00  0.00     0.000 HD
ENDBRANCH 78 81
ENDBRANCH 65 78
ENDBRANCH 64 68
ENDBRANCH 48 64
ENDBRANCH 47 50
ENDBRANCH 34 47
ENDBRANCH 33 37
ENDBRANCH 17 33
ENDBRANCH 16 19
ENDBRANCH 1 16
TORSDOF 16
ENDMDL
MODEL 6
REMARK VINA RESULT:     -11.2     27.531     34.217
ROOT
ATOM      1  C1  BDP B   1      -1.185 -39.153  45.2430  0.00  0.00     0.000 C
ATOM      2  C2  BDP B   1      -0.776 -37.853  45.9110  0.00  0.00     0.000 C
ATOM      3  C3  BDP B   1       0.726 -37.659  45.9090  0.00  0.00     0.000 C
ATOM      4  C4  BDP B   1       1.471 -38.587  44.9570  0.00  0.00     0.000 C
ATOM      5  C5  BDP B   1       1.012 -40.037  45.0660  0.00  0.00     0.000 C
ATOM      6  O5  BDP B   1      -0.279 -40.152  45.6890  0.00  0.00     0.000 O
ATOM      7   O  BDP B   1      -1.405 -36.748  45.2530  0.00  0.00     0.000 O
ATOM      9  HD  BDP B   1      -2.097 -36.373  44.8910  0.00  0.00     0.000 HD
ATOM      9   O  BDP B   1       1.250 -37.875  47.2290  0.00  0.00     0.000 O
ATOM     11  HD  BDP B   1       0.558 -37.501  46.8670  0.00  0.00     0.000 HD
ATOM     11   O  BDP B   1       1.327 -38.135  43.6040  0.00  0.00     0.000 O
ATOM     13  HD  BDP B   1       0.636 -37.760  43.2430  0.00  0.00     0.000 HD
ENDROOT
BRANCH 5 13
ATOM     13   C  BDP B   1       2.028 -40.761  45.8790  0.00  0.00     0.000 C
ATOM     14   O  BDP B   1       2.964 -41.331  45.2810  0.00  0.00     0.000 OA
ATOM     15   O  BDP B   1       1.928 -40.752  47.1250  0.00  0.00     0.000 OA
ENDBRANCH 5 13
BRANCH 1 16
ATOM     16  O3  NAG B   2      -2.034 -39.393  44.1220  0.00  0.00     0.000 O
BRANCH 16 19
ATOM     17  C1  NAG B   2      -3.553 -37.907  41.1660  0.00  0.00     0.000 C
ATOM     18  C2  NAG B   2      -2.372 -38.033  42.1290  0.00  0.00     0.000 C
ATOM     19  C3  NAG B   2      -2.313 -39.433  42.7220  0.00  0.00     0.000 C
ATOM     20  C4  NAG B   2      -3.610 -40.209  42.4760  0.00  0.00     0.000 C
ATOM     21  C5  NAG B   2      -4.891 -39.365  42.5120  0.00  0.00     0.000 C
ATOM     22  O5  NAG B   2      -4.719 -38.045  41.9820  0.00  0.00     0.000 O
ATOM     23   O  NAG B   2      -3.507 -40.879  41.2150  0.00  0.00     0.000 O
ATOM     25  HD  NAG B   2      -3.120 -40.216  40.8150  0.00  0.00     0.000 HD
ATOM     25   C  NAG B   2      -5.423 -39.250  43.9480  0.00  0.00     0.000 C
ATOM     26   O  NAG B   2      -6.246 -40.371  44.3010  0.00  0.00     0.000 O
ATOM     28  HD  NAG B   2      -5.860 -39.707  43.9000  0.00  0.00     0.000 HD
BRANCH 18 30
ATOM     28   N  NAG B   2      -1.904 -38.317  40.7730  0.00  0.00     0.000 N
ATOM     30  HD  NAG B   2      -1.749 -38.970  40.2260  0.00  0.00     0.000 HD
ATOM     30   C  NAG B   2      -0.647 -38.138  40.3410  0.00  0.00     0.000 C
ATOM     31   C  NAG B   2      -0.418 -38.493  38.9000  0.00  0.00     0.000 C
ATOM     32   O  NAG B   2       0.247 -37.730  41.0450  0.00  0.00     0.000 OA
ENDBRANCH 18 30
BRANCH 17 33
ATOM     33  O4  BDP B   3      -4.535 -37.132  40.4440  0.00  0.00     0.000 O
BRANCH 33 37
ATOM     34  C1  BDP B   3      -7.677 -34.319  39.7660  0.00  0.00     0.000 C
ATOM     35  C2  BDP B   3      -6.457 -33.829  40.5370  0.00  0.00     0.000 C
ATOM     36  C3  BDP B   3      -5.232 -34.722  40.3750  0.00  0.00     0.000 C
ATOM     37  C4  BDP B   3      -5.645 -36.192  40.5420  0.00  0.00     0.000 C
ATOM     38  C5  BDP B   3      -6.755 -36.476  39.5120  0.00  0.00     0.000 C
ATOM     39  O5  BDP B   3      -7.887 -35.724  39.9480  0.00  0.00     0.000 O
ATOM     40   O  BDP B   3      -6.214 -32.492  40.0930  0.00  0.00     0.000 O
ATOM     42  HD  BDP B   3      -6.849 -32.352  40.6650  0.00  0.00     0.000 HD
ATOM     42   O  BDP B   3      -4.295 -34.317  41.3710  0.00  0.00     0.000 O
ATOM     44  HD  BDP B   3      -4.930 -34.177  41.9430  0.00  0.00     0.000 HD
BRANCH 38 44
ATOM     44   C  BDP B   3      -7.125 -37.921  39.3840  0.00  0.00     0.000 C
ATOM     45   O  BDP B   3      -6.860 -38.499  38.3070  0.00  0.00     0.000 OA
ATOM     46   O  BDP B   3      -7.682 -38.504  40.3390  0.00  0.00     0.000 OA
ENDBRANCH 38 44
BRANCH 34 47
ATOM     47  O3  NAG B   4      -8.887 -34.105  40.4890  0.00  0.00     0.000 O
BRANCH 47 50
ATOM     48  C1  NAG B   4     -11.682 -32.139  38.9190  0.00  0.00     0.000 C
ATOM     49  C2  NAG B   4     -10.336 -32.372  39.5810  0.00  0.00     0.000 C
ATOM     50  C3  NAG B   4     -10.132 -33.867  39.8000  0.00  0.00     0.000 C
ATOM     51  C4  NAG B   4     -11.276 -34.478  40.5930  0.00  0.00     0.000 C
ATOM     52  C5  NAG B   4     -12.608 -34.151  39.9180  0.00  0.00     0.000 C
ATOM     53  O5  NAG B   4     -12.728 -32.738  39.7080  0.00  0.00     0.000 O
ATOM     54   O  NAG B   4     -11.084 -35.892  40.6730  0.00  0.00     0.000 O
ATOM     56  HD  NAG B   4     -11.682 -35.605  41.2290  0.00  0.00     0.000 HD
ATOM     56   C  NAG B   4     -13.786 -34.640  40.7520  0.00  0.00     0.000 C
ATOM     57   O  NAG B   4     -13.750 -34.000  42.0340  0.00  0.00     0.000 O
ATOM     59  HD  NAG B   4     -14.348 -33.712  42.5910  0.00  0.00     0.000 HD
BRANCH 49 61
ATOM     59   N  NAG B   4     -10.267 -30.942  39.2770  0.00  0.00     0.000 N
ATOM     61  HD  NAG B   4     -10.146 -31.469  39.9530  0.00  0.00     0.000 HD
ATOM     61   O  NAG B   4      -8.368 -30.512  40.4230  0.00  0.00     0.000 OA
ATOM     62   C  NAG B   4      -9.255 -30.155  39.6610  0.00  0.00     0.000 C
ATOM     63   C  NAG B   4      -9.250 -28.778  39.0770  0.00  0.00     0.000 C
ENDBRANCH 49 61
BRANCH 48 64
ATOM     64  O4  BDP B   5     -12.168 -31.129  38.0390  0.00  0.00     0.000 O
BRANCH 64 68
ATOM     65  C1  BDP B   5     -14.410 -31.516  34.5460  0.00  0.00     0.000 C
ATOM     66  C2  BDP B   5     -12.904 -31.688  34.3950  0.00  0.00     0.000 C
ATOM     67  C3  BDP B   5     -12.279 -31.951  35.7590  0.00  0.00     0.000 C
ATOM     68  C4  BDP B   5     -12.641 -30.829  36.7260  0.00  0.00     0.000 C
ATOM     69  C5  BDP B   5     -14.144 -30.591  36.7940  0.00  0.00     0.000 C
ATOM     70  O5  BDP B   5     -14.695 -30.456  35.4720  0.00  0.00     0.000 O
ATOM     71   O  BDP B   5     -12.632 -32.754  33.4720  0.00  0.00     0.000 O
ATOM     73  HD  BDP B   5     -12.523 -33.417  32.9260  0.00  0.00     0.000 HD
ATOM     73   O  BDP B   5     -10.853 -32.039  35.6500  0.00  0.00     0.000 O
ATOM     75  HD  BDP B   5     -10.745 -32.702  35.1030  0.00  0.00     0.000 HD
BRANCH 69 75
ATOM     75   C  BDP B   5     -14.388 -29.324  37.5730  0.00  0.00     0.000 C
ATOM     76   O  BDP B   5     -13.750 -28.298  37.2650  0.00  0.00     0.000 OA
ATOM     77   O  BDP B   5     -15.222 -29.336  38.4980  0.00  0.00     0.000 OA
ENDBRANCH 69 75
BRANCH 65 78
ATOM     78  O3  NAG B   6     -15.260 -30.717  33.7190  0.00  0.00     0.000 O
BRANCH 78 81
ATOM     79  C1  NAG B   6     -18.931 -30.463  32.8270  0.00  0.00     0.000 C
ATOM     80  C2  NAG B   6     -17.490 -30.996  32.7770  0.00  0.00     0.000 C
ATOM     81  C3  NAG B   6     -16.647 -30.338  33.8570  0.00  0.00     0.000 C
ATOM     82  C4  NAG B   6     -16.780 -28.813  33.8000  0.00  0.00     0.000 C
ATOM     83  C5  NAG B   6     -18.254 -28.430  33.8720  0.00  0.00     0.000 C
ATOM     84  O5  NAG B   6     -18.911 -29.026  32.7530  0.00  0.00     0.000 O
BRANCH 80 87
ATOM     85   N  NAG B   6     -16.624 -31.962  32.1070  0.00  0.00     0.000 N
ATOM     87  HD  NAG B   6     -16.050 -32.609  32.1500  0.00  0.00     0.000 HD
ATOM     87   C  NAG B   6     -16.799 -33.288  32.1610  0.00  0.00     0.000 C
ATOM     88   C  NAG B   6     -15.823 -34.105  31.3760  0.00  0.00     0.000 C
ATOM     89   O  NAG B   6     -17.704 -33.818  32.7960  0.00  0.00     0.000 OA
ENDBRANCH 80 87
ATOM     90   O  NAG B   6     -19.000 -26.500  35.1240  0.00  0.00     0.000 O
ATOM     92  HD  NAG B   6     -19.203 -27.293  34.8420  0.00  0.00     0.000 HD
ATOM     92   O  NAG B   6     -19.000 -26.500  35.1240  0.00  0.00     0.000 O
ATOM     94  HD  NAG B   6     -19.203 -27.293  34.8420  0.00  0.00     0.000 HD
ENDBRANCH 78 81
ENDBRANCH 65 78
ENDBRANCH 64 68
ENDBRANCH 48 64
ENDBRANCH 47 50
ENDBRANCH 34 47
ENDBRANCH 33 37
ENDBRANCH 17 33
ENDBRANCH 16 19
ENDBRANCH 1 16
TORSDOF 16
ENDMDL
MODEL 7
REMARK VINA RESULT:     -11.1     10.591     19.752
ROOT
ATOM      1  C1  BDP B   1       0.620  -8.181  23.4730  0.00  0.00     0.000 C
ATOM      2  C2  BDP B   1       0.779  -8.553  22.0100  0.00  0.00     0.000 C
ATOM      3  C3  BDP B   1      -0.443  -9.262  21.4660  0.00  0.00     0.000 C
ATOM      4  C4  BDP B   1      -1.677  -9.142  22.3520  0.00  0.00     0.000 C
ATOM      5  C5  BDP B   1      -1.377  -9.418  23.8220  0.00  0.00     0.000 C
ATOM      6  O5  BDP B   1       0.024  -9.296  24.1220  0.00  0.00     0.000 O
ATOM      7   O  BDP B   1       1.039  -7.378  21.2350  0.00  0.00     0.000 O
ATOM      9  HD  BDP B   1       1.445  -6.623  21.1120  0.00  0.00     0.000 HD
ATOM      9   O  BDP B   1      -0.163 -10.660  21.2950  0.00  0.00     0.000 O
ATOM     11  HD  BDP B   1       0.244  -9.905  21.1720  0.00  0.00     0.000 HD
ATOM     11   O  BDP B   1      -2.267  -7.843  22.2150  0.00  0.00     0.000 O
ATOM     13  HD  BDP B   1      -1.860  -7.088  22.0930  0.00  0.00     0.000 HD
ENDROOT
BRANCH 5 13
ATOM     13   C  BDP B   1      -1.833 -10.805  24.1120  0.00  0.00     0.000 C
ATOM     14   O  BDP B   1      -1.012 -11.736  23.9760  0.00  0.00     0.000 OA
ATOM     15   O  BDP B   1      -3.004 -10.990  24.5060  0.00  0.00     0.000 OA
ENDBRANCH 5 13
BRANCH 1 16
ATOM     16  O3  NAG B   2       0.675  -6.911  24.1180  0.00  0.00     0.000 O
BRANCH 16 19
ATOM     17  C1  NAG B   2       1.003  -3.721  25.8430  0.00  0.00     0.000 C
ATOM     18  C2  NAG B   2       1.001  -4.535  24.5490  0.00  0.00     0.000 C
ATOM     19  C3  NAG B   2       0.078  -5.738  24.6740  0.00  0.00     0.000 C
ATOM     20  C4  NAG B   2      -0.317  -6.000  26.1300  0.00  0.00     0.000 C
ATOM     21  C5  NAG B   2       0.776  -5.703  27.1660  0.00  0.00     0.000 C
ATOM     22  O5  NAG B   2       1.594  -4.578  26.8230  0.00  0.00     0.000 O
ATOM     23   O  NAG B   2      -1.489  -5.234  26.4280  0.00  0.00     0.000 O
ATOM     25  HD  NAG B   2      -1.225  -4.532  25.9960  0.00  0.00     0.000 HD
ATOM     25   C  NAG B   2       1.683  -6.926  27.3620  0.00  0.00     0.000 C
ATOM     26   O  NAG B   2       1.137  -7.844  28.3190  0.00  0.00     0.000 O
ATOM     28  HD  NAG B   2       1.401  -7.142  27.8870  0.00  0.00     0.000 HD
BRANCH 18 30
ATOM     28   N  NAG B   2      -0.262  -4.041  24.0000  0.00  0.00     0.000 N
ATOM     30  HD  NAG B   2      -0.863  -4.219  23.4030  0.00  0.00     0.000 HD
ATOM     30   C  NAG B   2      -0.400  -2.919  23.2800  0.00  0.00     0.000 C
ATOM     31   C  NAG B   2      -1.805  -2.621  22.8380  0.00  0.00     0.000 C
ATOM     32   O  NAG B   2       0.524  -2.194  22.9930  0.00  0.00     0.000 OA
ENDBRANCH 18 30
BRANCH 17 33
ATOM     33  O4  BDP B   3       1.604  -2.780  26.7590  0.00  0.00     0.000 O
BRANCH 33 37
ATOM     34  C1  BDP B   3       0.944   1.358  27.5850  0.00  0.00     0.000 C
ATOM     35  C2  BDP B   3       2.377   0.924  27.3000  0.00  0.00     0.000 C
ATOM     36  C3  BDP B   3       2.479  -0.433  26.6130  0.00  0.00     0.000 C
ATOM     37  C4  BDP B   3       1.552  -1.434  27.3170  0.00  0.00     0.000 C
ATOM     38  C5  BDP B   3       0.131  -0.838  27.2930  0.00  0.00     0.000 C
ATOM     39  O5  BDP B   3       0.174   0.296  28.1600  0.00  0.00     0.000 O
ATOM     40   O  BDP B   3       2.964   1.970  26.5230  0.00  0.00     0.000 O
ATOM     42  HD  BDP B   3       3.039   2.307  27.3170  0.00  0.00     0.000 HD
ATOM     42   O  BDP B   3       3.847  -0.830  26.6920  0.00  0.00     0.000 O
ATOM     44  HD  BDP B   3       3.922  -0.493  27.4860  0.00  0.00     0.000 HD
BRANCH 38 44
ATOM     44   C  BDP B   3      -0.943  -1.778  27.7430  0.00  0.00     0.000 C
ATOM     45   O  BDP B   3      -1.766  -2.177  26.8890  0.00  0.00     0.000 OA
ATOM     46   O  BDP B   3      -0.991  -2.136  28.9400  0.00  0.00     0.000 OA
ENDBRANCH 38 44
BRANCH 34 47
ATOM     47  O3  NAG B   4       0.829   2.037  28.8340  0.00  0.00     0.000 O
BRANCH 47 50
ATOM     48  C1  NAG B   4      -2.193   4.061  29.7910  0.00  0.00     0.000 C
ATOM     49  C2  NAG B   4      -0.865   3.762  29.1190  0.00  0.00     0.000 C
ATOM     50  C3  NAG B   4      -0.463   2.320  29.4090  0.00  0.00     0.000 C
ATOM     51  C4  NAG B   4      -0.427   2.040  30.9030  0.00  0.00     0.000 C
ATOM     52  C5  NAG B   4      -1.764   2.425  31.5360  0.00  0.00     0.000 C
ATOM     53  O5  NAG B   4      -2.104   3.776  31.2010  0.00  0.00     0.000 O
ATOM     54   O  NAG B   4      -0.151   0.652  31.1090  0.00  0.00     0.000 O
ATOM     56  HD  NAG B   4      -0.059   1.121  31.8310  0.00  0.00     0.000 HD
ATOM     56   C  NAG B   4      -1.722   2.275  33.0520  0.00  0.00     0.000 C
ATOM     57   O  NAG B   4      -0.699   3.130  33.5790  0.00  0.00     0.000 O
ATOM     59  HD  NAG B   4      -0.607   3.599  34.3010  0.00  0.00     0.000 HD
BRANCH 49 61
ATOM     59   N  NAG B   4      -1.125   4.307  27.7860  0.00  0.00     0.000 N
ATOM     61  HD  NAG B   4      -0.794   4.570  28.5420  0.00  0.00     0.000 HD
ATOM     61   O  NAG B   4       0.817   5.441  27.5720  0.00  0.00     0.000 OA
ATOM     62   C  NAG B   4      -0.236   5.036  27.1010  0.00  0.00     0.000 C
ATOM     63   C  NAG B   4      -0.594   5.323  25.6770  0.00  0.00     0.000 C
ENDBRANCH 49 61
BRANCH 48 64
ATOM     64  O4  BDP B   5      -3.262   4.948  29.4760  0.00  0.00     0.000 O
BRANCH 64 68
ATOM     65  C1  BDP B   5      -7.279   5.509  28.5180  0.00  0.00     0.000 C
ATOM     66  C2  BDP B   5      -6.525   6.748  28.9810  0.00  0.00     0.000 C
ATOM     67  C3  BDP B   5      -5.025   6.503  28.8780  0.00  0.00     0.000 C
ATOM     68  C4  BDP B   5      -4.641   5.259  29.6710  0.00  0.00     0.000 C
ATOM     69  C5  BDP B   5      -5.473   4.046  29.2760  0.00  0.00     0.000 C
ATOM     70  O5  BDP B   5      -6.875   4.367  29.2910  0.00  0.00     0.000 O
ATOM     71   O  BDP B   5      -6.933   7.880  28.1980  0.00  0.00     0.000 O
ATOM     73  HD  BDP B   5      -7.199   8.525  27.6850  0.00  0.00     0.000 HD
ATOM     73   O  BDP B   5      -4.296   7.628  29.3820  0.00  0.00     0.000 O
ATOM     75  HD  BDP B   5      -4.562   8.273  28.8680  0.00  0.00     0.000 HD
BRANCH 69 75
ATOM     75   C  BDP B   5      -5.200   2.942  30.2660  0.00  0.00     0.000 C
ATOM     76   O  BDP B   5      -5.323   3.183  31.4840  0.00  0.00     0.000 OA
ATOM     77   O  BDP B   5      -4.863   1.821  29.8410  0.00  0.00     0.000 OA
ENDBRANCH 69 75
BRANCH 65 78
ATOM     78  O3  NAG B   6      -8.564   5.077  28.9740  0.00  0.00     0.000 O
BRANCH 78 81
ATOM     79  C1  NAG B   6     -12.038   4.570  27.5570  0.00  0.00     0.000 C
ATOM     80  C2  NAG B   6     -10.837   5.336  28.1340  0.00  0.00     0.000 C
ATOM     81  C3  NAG B   6      -9.645   4.405  28.2920  0.00  0.00     0.000 C
ATOM     82  C4  NAG B   6     -10.040   3.138  29.0580  0.00  0.00     0.000 C
ATOM     83  C5  NAG B   6     -11.229   2.479  28.3690  0.00  0.00     0.000 C
ATOM     84  O5  NAG B   6     -12.306   3.417  28.3750  0.00  0.00     0.000 O
BRANCH 80 87
ATOM     85   N  NAG B   6     -10.881   6.764  28.4340  0.00  0.00     0.000 N
ATOM     87  HD  NAG B   6     -10.475   7.492  28.6690  0.00  0.00     0.000 HD
ATOM     87   C  NAG B   6     -10.268   7.702  27.7010  0.00  0.00     0.000 C
ATOM     88   C  NAG B   6     -10.465   9.113  28.1570  0.00  0.00     0.000 C
ATOM     89   O  NAG B   6      -9.596   7.443  26.7100  0.00  0.00     0.000 OA
ENDBRANCH 80 87
ATOM     90   O  NAG B   6     -11.408   0.075  28.1800  0.00  0.00     0.000 O
ATOM     92  HD  NAG B   6     -11.602   0.838  27.8200  0.00  0.00     0.000 HD
ATOM     92   O  NAG B   6     -11.408   0.075  28.1800  0.00  0.00     0.000 O
ATOM     94  HD  NAG B   6     -11.602   0.838  27.8200  0.00  0.00     0.000 HD
ENDBRANCH 78 81
ENDBRANCH 65 78
ENDBRANCH 64 68
ENDBRANCH 48 64
ENDBRANCH 47 50
ENDBRANCH 34 47
ENDBRANCH 33 37
ENDBRANCH 17 33
ENDBRANCH 16 19
ENDBRANCH 1 16
TORSDOF 16
ENDMDL
MODEL 8
REMARK VINA RESULT:     -11.1      6.167      9.380
ROOT
ATOM      1  C1  BDP B   1       0.433  -9.222  25.2190  0.00  0.00     0.000 C
ATOM      2  C2  BDP B   1       0.511  -8.062  24.2420  0.00  0.00     0.000 C
ATOM      3  C3  BDP B   1      -0.855  -7.646  23.7410  0.00  0.00     0.000 C
ATOM      4  C4  BDP B   1      -2.014  -8.207  24.5570  0.00  0.00     0.000 C
ATOM      5  C5  BDP B   1      -1.864  -9.697  24.8490  0.00  0.00     0.000 C
ATOM      6  O5  BDP B   1      -0.507 -10.146  24.6910  0.00  0.00     0.000 O
ATOM      7   O  BDP B   1       1.156  -6.945  24.8630  0.00  0.00     0.000 O
ATOM      9  HD  BDP B   1       1.786  -6.607  25.3520  0.00  0.00     0.000 HD
ATOM      9   O  BDP B   1      -1.031  -8.077  22.3820  0.00  0.00     0.000 O
ATOM     11  HD  BDP B   1      -0.401  -7.739  22.8710  0.00  0.00     0.000 HD
ATOM     11   O  BDP B   1      -2.154  -7.485  25.7870  0.00  0.00     0.000 O
ATOM     13  HD  BDP B   1      -1.525  -7.147  26.2760  0.00  0.00     0.000 HD
ENDROOT
BRANCH 5 13
ATOM     13   C  BDP B   1      -2.748 -10.424  23.8970  0.00  0.00     0.000 C
ATOM     14   O  BDP B   1      -3.326 -11.455  24.2990  0.00  0.00     0.000 OA
ATOM     15   O  BDP B   1      -2.903  -9.969  22.7440  0.00  0.00     0.000 OA
ENDBRANCH 5 13
BRANCH 1 16
ATOM     16  O3  NAG B   2       0.871  -9.325  26.5720  0.00  0.00     0.000 O
BRANCH 16 19
ATOM     17  C1  NAG B   2       1.702  -7.364  29.5250  0.00  0.00     0.000 C
ATOM     18  C2  NAG B   2       0.830  -7.599  28.2910  0.00  0.00     0.000 C
ATOM     19  C3  NAG B   2       0.740  -9.084  27.9740  0.00  0.00     0.000 C
ATOM     20  C4  NAG B   2       1.794  -9.892  28.7370  0.00  0.00     0.000 C
ATOM     21  C5  NAG B   2       3.141  -9.183  28.9350  0.00  0.00     0.000 C
ATOM     22  O5  NAG B   2       3.016  -7.770  29.1380  0.00  0.00     0.000 O
ATOM     23   O  NAG B   2       1.250 -10.263  30.0080  0.00  0.00     0.000 O
ATOM     25  HD  NAG B   2       0.865  -9.499  30.1450  0.00  0.00     0.000 HD
ATOM     25   C  NAG B   2       4.062  -9.425  27.7310  0.00  0.00     0.000 C
ATOM     26   O  NAG B   2       4.783 -10.659  27.8540  0.00  0.00     0.000 O
ATOM     28  HD  NAG B   2       4.399  -9.896  27.9910  0.00  0.00     0.000 HD
BRANCH 18 30
ATOM     28   N  NAG B   2       0.019  -7.171  29.4310  0.00  0.00     0.000 N
ATOM     30  HD  NAG B   2      -0.196  -7.396  30.2390  0.00  0.00     0.000 HD
ATOM     30   C  NAG B   2      -1.321  -7.173  29.4630  0.00  0.00     0.000 C
ATOM     31   C  NAG B   2      -1.923  -6.677  30.7470  0.00  0.00     0.000 C
ATOM     32   O  NAG B   2      -2.010  -7.548  28.5420  0.00  0.00     0.000 OA
ENDBRANCH 18 30
BRANCH 17 33
ATOM     33  O4  BDP B   3       2.542  -6.534  30.3560  0.00  0.00     0.000 O
BRANCH 33 37
ATOM     34  C1  BDP B   3       5.657  -3.808  31.4090  0.00  0.00     0.000 C
ATOM     35  C2  BDP B   3       4.671  -3.359  30.3370  0.00  0.00     0.000 C
ATOM     36  C3  BDP B   3       3.380  -4.169  30.3170  0.00  0.00     0.000 C
ATOM     37  C4  BDP B   3       3.712  -5.666  30.4060  0.00  0.00     0.000 C
ATOM     38  C5  BDP B   3       4.550  -5.874  31.6820  0.00  0.00     0.000 C
ATOM     39  O5  BDP B   3       5.801  -5.233  31.4310  0.00  0.00     0.000 O
ATOM     40   O  BDP B   3       4.435  -1.969  30.5680  0.00  0.00     0.000 O
ATOM     42  HD  BDP B   3       5.187  -1.929  30.1410  0.00  0.00     0.000 HD
ATOM     42   O  BDP B   3       2.711  -3.844  29.1000  0.00  0.00     0.000 O
ATOM     44  HD  BDP B   3       3.463  -3.804  28.6720  0.00  0.00     0.000 HD
BRANCH 38 44
ATOM     44   C  BDP B   3       4.779  -7.308  32.0450  0.00  0.00     0.000 C
ATOM     45   O  BDP B   3       4.103  -7.790  32.9810  0.00  0.00     0.000 OA
ATOM     46   O  BDP B   3       5.627  -7.977  31.4160  0.00  0.00     0.000 OA
ENDBRANCH 38 44
BRANCH 34 47
ATOM     47  O3  NAG B   4       7.008  -3.740  30.9550  0.00  0.00     0.000 O
BRANCH 47 50
ATOM     48  C1  NAG B   4      10.096  -3.483  33.0870  0.00  0.00     0.000 C
ATOM     49  C2  NAG B   4       8.917  -2.990  32.2670  0.00  0.00     0.000 C
ATOM     50  C3  NAG B   4       8.096  -4.183  31.7920  0.00  0.00     0.000 C
ATOM     51  C4  NAG B   4       8.950  -5.181  31.0270  0.00  0.00     0.000 C
ATOM     52  C5  NAG B   4      10.157  -5.587  31.8730  0.00  0.00     0.000 C
ATOM     53  O5  NAG B   4      10.869  -4.425  32.3170  0.00  0.00     0.000 O
ATOM     54   O  NAG B   4       8.154  -6.324  30.7020  0.00  0.00     0.000 O
ATOM     56  HD  NAG B   4       8.898  -6.299  30.2600  0.00  0.00     0.000 HD
ATOM     56   C  NAG B   4      11.103  -6.490  31.0910  0.00  0.00     0.000 C
ATOM     57   O  NAG B   4      11.568  -5.788  29.9300  0.00  0.00     0.000 O
ATOM     59  HD  NAG B   4      12.313  -5.764  29.4880  0.00  0.00     0.000 HD
BRANCH 49 61
ATOM     59   N  NAG B   4       8.318  -1.963  33.1210  0.00  0.00     0.000 N
ATOM     61  HD  NAG B   4       8.926  -2.024  32.5070  0.00  0.00     0.000 HD
ATOM     61   O  NAG B   4       8.170  -0.351  31.5460  0.00  0.00     0.000 OA
ATOM     62   C  NAG B   4       7.931  -0.764  32.6720  0.00  0.00     0.000 C
ATOM     63   C  NAG B   4       7.148   0.068  33.6380  0.00  0.00     0.000 C
ENDBRANCH 49 61
BRANCH 48 64
ATOM     64  O4  BDP B   5      10.837  -2.912  34.1610  0.00  0.00     0.000 O
BRANCH 64 68
ATOM     65  C1  BDP B   5      14.997  -2.720  34.3400  0.00  0.00     0.000 C
ATOM     66  C2  BDP B   5      14.332  -3.701  35.2970  0.00  0.00     0.000 C
ATOM     67  C3  BDP B   5      12.907  -3.980  34.8380  0.00  0.00     0.000 C
ATOM     68  C4  BDP B   5      12.131  -2.673  34.7130  0.00  0.00     0.000 C
ATOM     69  C5  BDP B   5      12.853  -1.657  33.8370  0.00  0.00     0.000 C
ATOM     70  O5  BDP B   5      14.222  -1.514  34.2530  0.00  0.00     0.000 O
ATOM     71   O  BDP B   5      15.111  -4.905  35.3710  0.00  0.00     0.000 O
ATOM     73  HD  BDP B   5      15.606  -5.615  35.3640  0.00  0.00     0.000 HD
ATOM     73   O  BDP B   5      12.238  -4.840  35.7680  0.00  0.00     0.000 O
ATOM     75  HD  BDP B   5      12.733  -5.550  35.7600  0.00  0.00     0.000 HD
BRANCH 69 75
ATOM     75   C  BDP B   5      12.146  -0.332  33.9680  0.00  0.00     0.000 C
ATOM     76   O  BDP B   5      11.943   0.344  32.9390  0.00  0.00     0.000 OA
ATOM     77   O  BDP B   5      11.781   0.049  35.0960  0.00  0.00     0.000 OA
ENDBRANCH 69 75
BRANCH 65 78
ATOM     78  O3  NAG B   6      16.017  -1.774  34.6670  0.00  0.00     0.000 O
BRANCH 78 81
ATOM     79  C1  NAG B   6      18.773  -0.282  32.5430  0.00  0.00     0.000 C
ATOM     80  C2  NAG B   6      17.967  -1.376  33.2610  0.00  0.00     0.000 C
ATOM     81  C3  NAG B   6      16.701  -0.788  33.8630  0.00  0.00     0.000 C
ATOM     82  C4  NAG B   6      17.024   0.447  34.7120  0.00  0.00     0.000 C
ATOM     83  C5  NAG B   6      17.810   1.447  33.8720  0.00  0.00     0.000 C
ATOM     84  O5  NAG B   6      19.015   0.806  33.4530  0.00  0.00     0.000 O
BRANCH 80 87
ATOM     85   N  NAG B   6      18.228  -2.803  33.4320  0.00  0.00     0.000 N
ATOM     87  HD  NAG B   6      17.937  -3.605  33.5790  0.00  0.00     0.000 HD
ATOM     87   C  NAG B   6      17.800  -3.749  32.5870  0.00  0.00     0.000 C
ATOM     88   C  NAG B   6      18.205  -5.149  32.9230  0.00  0.00     0.000 C
ATOM     89   O  NAG B   6      17.132  -3.503  31.5900  0.00  0.00     0.000 OA
ENDBRANCH 80 87
ATOM     90   O  NAG B   6      17.429   3.828  34.0560  0.00  0.00     0.000 O
ATOM     92  HD  NAG B   6      17.667   3.178  33.5350  0.00  0.00     0.000 HD
ATOM     92   O  NAG B   6      17.429   3.828  34.0560  0.00  0.00     0.000 O
ATOM     94  HD  NAG B   6      17.667   3.178  33.5350  0.00  0.00     0.000 HD
ENDBRANCH 78 81
ENDBRANCH 65 78
ENDBRANCH 64 68
ENDBRANCH 48 64
ENDBRANCH 47 50
ENDBRANCH 34 47
ENDBRANCH 33 37
ENDBRANCH 17 33
ENDBRANCH 16 19
ENDBRANCH 1 16
TORSDOF 16
ENDMDL
MODEL 9
REMARK VINA RESULT:     -11.1     27.885     29.839
ROOT
ATOM      1  C1  BDP B   1     -17.043 -27.783  34.1610  0.00  0.00     0.000 C
ATOM      2  C2  BDP B   1     -18.153 -26.924  34.7400  0.00  0.00     0.000 C
ATOM      3  C3  BDP B   1     -19.508 -27.588  34.6220  0.00  0.00     0.000 C
ATOM      4  C4  BDP B   1     -19.444 -29.075  34.2930  0.00  0.00     0.000 C
ATOM      5  C5  BDP B   1     -18.476 -29.387  33.1560  0.00  0.00     0.000 C
ATOM      6  O5  BDP B   1     -17.531 -28.325  32.9420  0.00  0.00     0.000 O
ATOM      7   O  BDP B   1     -17.877 -26.634  36.1140  0.00  0.00     0.000 O
ATOM      9  HD  BDP B   1     -17.334 -26.402  36.7480  0.00  0.00     0.000 HD
ATOM      9   O  BDP B   1     -20.281 -26.947  33.5960  0.00  0.00     0.000 O
ATOM     11  HD  BDP B   1     -19.737 -26.715  34.2290  0.00  0.00     0.000 HD
ATOM     11   O  BDP B   1     -19.083 -29.830  35.4560  0.00  0.00     0.000 O
ATOM     13  HD  BDP B   1     -18.540 -29.598  36.0890  0.00  0.00     0.000 HD
ENDROOT
BRANCH 5 13
ATOM     13   C  BDP B   1     -19.290 -29.589  31.9260  0.00  0.00     0.000 C
ATOM     14   O  BDP B   1     -18.767 -30.189  30.9640  0.00  0.00     0.000 OA
ATOM     15   O  BDP B   1     -20.471 -29.180  31.9050  0.00  0.00     0.000 OA
ENDBRANCH 5 13
BRANCH 1 16
ATOM     16  O3  NAG B   2     -15.864 -28.308  34.7680  0.00  0.00     0.000 O
BRANCH 16 19
ATOM     17  C1  NAG B   2     -12.890 -30.338  35.3060  0.00  0.00     0.000 C
ATOM     18  C2  NAG B   2     -13.653 -29.027  35.4970  0.00  0.00     0.000 C
ATOM     19  C3  NAG B   2     -15.153 -29.281  35.5350  0.00  0.00     0.000 C
ATOM     20  C4  NAG B   2     -15.502 -30.687  35.0390  0.00  0.00     0.000 C
ATOM     21  C5  NAG B   2     -14.617 -31.215  33.9010  0.00  0.00     0.000 C
ATOM     22  O5  NAG B   2     -13.251 -30.796  34.0010  0.00  0.00     0.000 O
ATOM     23   O  NAG B   2     -15.452 -31.587  36.1500  0.00  0.00     0.000 O
ATOM     25  HD  NAG B   2     -14.741 -31.233  36.4950  0.00  0.00     0.000 HD
ATOM     25   C  NAG B   2     -15.167 -30.773  32.5380  0.00  0.00     0.000 C
ATOM     26   O  NAG B   2     -16.180 -31.668  32.0580  0.00  0.00     0.000 O
ATOM     28  HD  NAG B   2     -15.469 -31.314  32.4030  0.00  0.00     0.000 HD
BRANCH 18 30
ATOM     28   N  NAG B   2     -13.886 -29.240  36.9250  0.00  0.00     0.000 N
ATOM     30  HD  NAG B   2     -14.416 -29.015  37.5720  0.00  0.00     0.000 HD
ATOM     30   C  NAG B   2     -13.090 -28.797  37.9080  0.00  0.00     0.000 C
ATOM     31   C  NAG B   2     -13.539 -29.155  39.2960  0.00  0.00     0.000 C
ATOM     32   O  NAG B   2     -12.086 -28.151  37.7120  0.00  0.00     0.000 OA
ENDBRANCH 18 30
BRANCH 17 33
ATOM     33  O4  BDP B   3     -11.724 -31.090  34.9050  0.00  0.00     0.000 O
BRANCH 33 37
ATOM     34  C1  BDP B   3      -8.819 -33.593  36.7870  0.00  0.00     0.000 C
ATOM     35  C2  BDP B   3      -8.749 -32.100  37.0830  0.00  0.00     0.000 C
ATOM     36  C3  BDP B   3     -10.029 -31.348  36.7380  0.00  0.00     0.000 C
ATOM     37  C4  BDP B   3     -10.520 -31.782  35.3490  0.00  0.00     0.000 C
ATOM     38  C5  BDP B   3     -10.695 -33.313  35.3830  0.00  0.00     0.000 C
ATOM     39  O5  BDP B   3      -9.377 -33.849  35.4930  0.00  0.00     0.000 O
ATOM     40   O  BDP B   3      -8.408 -31.982  38.4660  0.00  0.00     0.000 O
ATOM     42  HD  BDP B   3      -7.625 -32.129  38.1250  0.00  0.00     0.000 HD
ATOM     42   O  BDP B   3      -9.712 -29.957  36.7780  0.00  0.00     0.000 O
ATOM     44  HD  BDP B   3      -8.929 -30.104  36.4380  0.00  0.00     0.000 HD
BRANCH 38 44
ATOM     44   C  BDP B   3     -11.378 -33.885  34.1800  0.00  0.00     0.000 C
ATOM     45   O  BDP B   3     -12.408 -34.570  34.3620  0.00  0.00     0.000 OA
ATOM     46   O  BDP B   3     -10.908 -33.669  33.0420  0.00  0.00     0.000 OA
ENDBRANCH 38 44
BRANCH 34 47
ATOM     47  O3  NAG B   4      -7.582 -34.097  36.2870  0.00  0.00     0.000 O
BRANCH 47 50
ATOM     48  C1  NAG B   4      -6.282 -37.316  37.7350  0.00  0.00     0.000 C
ATOM     49  C2  NAG B   4      -6.666 -35.847  37.7100  0.00  0.00     0.000 C
ATOM     50  C3  NAG B   4      -7.272 -35.504  36.3540  0.00  0.00     0.000 C
ATOM     51  C4  NAG B   4      -6.337 -35.873  35.2140  0.00  0.00     0.000 C
ATOM     52  C5  NAG B   4      -5.931 -37.343  35.3310  0.00  0.00     0.000 C
ATOM     53  O5  NAG B   4      -5.399 -37.611  36.6350  0.00  0.00     0.000 O
ATOM     54   O  NAG B   4      -7.001 -35.631  33.9710  0.00  0.00     0.000 O
ATOM     56  HD  NAG B   4      -6.149 -35.753  33.8760  0.00  0.00     0.000 HD
ATOM     56   C  NAG B   4      -4.895 -37.716  34.2770  0.00  0.00     0.000 C
ATOM     57   O  NAG B   4      -3.730 -36.899  34.4550  0.00  0.00     0.000 O
ATOM     59  HD  NAG B   4      -2.878 -37.021  34.3600  0.00  0.00     0.000 HD
BRANCH 49 61
ATOM     59   N  NAG B   4      -7.412 -35.706  38.9610  0.00  0.00     0.000 N
ATOM     61  HD  NAG B   4      -6.596 -35.638  38.6800  0.00  0.00     0.000 HD
ATOM     61   O  NAG B   4      -6.362 -33.847  39.6970  0.00  0.00     0.000 OA
ATOM     62   C  NAG B   4      -7.247 -34.682  39.8070  0.00  0.00     0.000 C
ATOM     63   C  NAG B   4      -8.244 -34.594  40.9190  0.00  0.00     0.000 C
ENDBRANCH 49 61
BRANCH 48 64
ATOM     64  O4  BDP B   5      -6.197 -38.278  38.7810  0.00  0.00     0.000 O
BRANCH 64 68
ATOM     65  C1  BDP B   5      -2.629 -39.850  40.2570  0.00  0.00     0.000 C
ATOM     66  C2  BDP B   5      -3.573 -40.845  39.5950  0.00  0.00     0.000 C
ATOM     67  C3  BDP B   5      -4.592 -40.097  38.7450  0.00  0.00     0.000 C
ATOM     68  C4  BDP B   5      -5.333 -39.071  39.5950  0.00  0.00     0.000 C
ATOM     69  C5  BDP B   5      -4.379 -38.144  40.3380  0.00  0.00     0.000 C
ATOM     70  O5  BDP B   5      -3.377 -38.904  41.0370  0.00  0.00     0.000 O
ATOM     71   O  BDP B   5      -2.816 -41.782  38.8140  0.00  0.00     0.000 O
ATOM     73  HD  BDP B   5      -2.314 -42.307  38.3430  0.00  0.00     0.000 HD
ATOM     73   O  BDP B   5      -5.538 -41.010  38.1750  0.00  0.00     0.000 O
ATOM     75  HD  BDP B   5      -5.036 -41.535  37.7040  0.00  0.00     0.000 HD
BRANCH 69 75
ATOM     75   C  BDP B   5      -5.179 -37.335  41.3270  0.00  0.00     0.000 C
ATOM     76   O  BDP B   5      -6.185 -37.854  41.8510  0.00  0.00     0.000 OA
ATOM     77   O  BDP B   5      -4.812 -36.176  41.5960  0.00  0.00     0.000 OA
ENDBRANCH 69 75
BRANCH 65 78
ATOM     78  O3  NAG B   6      -1.965 -40.016  41.5120  0.00  0.00     0.000 O
BRANCH 78 81
ATOM     79  C1  NAG B   6       1.580 -39.182  42.5460  0.00  0.00     0.000 C
ATOM     80  C2  NAG B   6       0.455 -39.870  41.7570  0.00  0.00     0.000 C
ATOM     81  C3  NAG B   6      -0.892 -39.274  42.1320  0.00  0.00     0.000 C
ATOM     82  C4  NAG B   6      -1.078 -39.258  43.6530  0.00  0.00     0.000 C
ATOM     83  C5  NAG B   6       0.099 -38.536  44.2990  0.00  0.00     0.000 C
ATOM     84  O5  NAG B   6       1.287 -39.249  43.9530  0.00  0.00     0.000 O
BRANCH 80 87
ATOM     85   N  NAG B   6       0.802 -39.762  40.3430  0.00  0.00     0.000 N
ATOM     87  HD  NAG B   6       1.282 -40.017  39.6680  0.00  0.00     0.000 HD
ATOM     87   C  NAG B   6       0.609 -40.740  39.4480  0.00  0.00     0.000 C
ATOM     88   C  NAG B   6       1.000 -40.417  38.0410  0.00  0.00     0.000 C
ATOM     89   O  NAG B   6       0.132 -41.829  39.7410  0.00  0.00     0.000 OA
ENDBRANCH 80 87
ATOM     90   O  NAG B   6      -0.205 -37.073  46.2010  0.00  0.00     0.000 O
ATOM     92  HD  NAG B   6       0.265 -37.240  45.4930  0.00  0.00     0.000 HD
ATOM     92   O  NAG B   6      -0.205 -37.073  46.2010  0.00  0.00     0.000 O
ATOM     94  HD  NAG B   6       0.265 -37.240  45.4930  0.00  0.00     0.000 HD
ENDBRANCH 78 81
ENDBRANCH 65 78
ENDBRANCH 64 68
ENDBRANCH 48 64
ENDBRANCH 47 50
ENDBRANCH 34 47
ENDBRANCH 33 37
ENDBRANCH 17 33
ENDBRANCH 16 19
ENDBRANCH 1 16
TORSDOF 16
ENDMDL
MODEL 10
REMARK VINA RESULT:     -10.9      6.934     17.211
ROOT
ATOM      1  C1  BDP B   1      14.189  -4.408  33.2640  0.00  0.00     0.000 C
ATOM      2  C2  BDP B   1      14.708  -4.260  34.6830  0.00  0.00     0.000 C
ATOM      3  C3  BDP B   1      15.421  -2.942  34.8940  0.00  0.00     0.000 C
ATOM      4  C4  BDP B   1      15.169  -1.916  33.7950  0.00  0.00     0.000 C
ATOM      5  C5  BDP B   1      15.310  -2.504  32.3950  0.00  0.00     0.000 C
ATOM      6  O5  BDP B   1      15.211  -3.938  32.3970  0.00  0.00     0.000 O
ATOM      7   O  BDP B   1      13.625  -4.376  35.6120  0.00  0.00     0.000 O
ATOM      9  HD  BDP B   1      12.902  -4.761  35.8910  0.00  0.00     0.000 HD
ATOM      9   O  BDP B   1      16.839  -3.158  34.9720  0.00  0.00     0.000 O
ATOM     11  HD  BDP B   1      16.115  -3.543  35.2510  0.00  0.00     0.000 HD
ATOM     11   O  BDP B   1      13.869  -1.332  33.9460  0.00  0.00     0.000 O
ATOM     13  HD  BDP B   1      13.145  -1.717  34.2250  0.00  0.00     0.000 HD
ENDROOT
BRANCH 5 13
ATOM     13   C  BDP B   1      16.644  -2.094  31.8770  0.00  0.00     0.000 C
ATOM     14   O  BDP B   1      17.302  -1.262  32.5360  0.00  0.00     0.000 OA
ATOM     15   O  BDP B   1      17.071  -2.609  30.8210  0.00  0.00     0.000 OA
ENDBRANCH 5 13
BRANCH 1 16
ATOM     16  O3  NAG B   2      12.864  -4.614  32.7790  0.00  0.00     0.000 O
BRANCH 16 19
ATOM     17  C1  NAG B   2       9.491  -4.960  31.4520  0.00  0.00     0.000 C
ATOM     18  C2  NAG B   2      10.982  -5.293  31.3880  0.00  0.00     0.000 C
ATOM     19  C3  NAG B   2      11.595  -5.271  32.7800  0.00  0.00     0.000 C
ATOM     20  C4  NAG B   2      10.668  -4.602  33.7990  0.00  0.00     0.000 C
ATOM     21  C5  NAG B   2       9.844  -3.426  33.2550  0.00  0.00     0.000 C
ATOM     22  O5  NAG B   2       9.429  -3.602  31.8960  0.00  0.00     0.000 O
ATOM     23   O  NAG B   2       9.794  -5.597  34.3410  0.00  0.00     0.000 O
ATOM     25  HD  NAG B   2       9.663  -5.996  33.5830  0.00  0.00     0.000 HD
ATOM     25   C  NAG B   2      10.638  -2.116  33.3590  0.00  0.00     0.000 C
ATOM     26   O  NAG B   2      10.499  -1.512  34.6530  0.00  0.00     0.000 O
ATOM     28  HD  NAG B   2      10.368  -1.911  33.8960  0.00  0.00     0.000 HD
BRANCH 18 30
ATOM     28   N  NAG B   2      10.176  -6.512  31.3240  0.00  0.00     0.000 N
ATOM     30  HD  NAG B   2       9.746  -7.073  31.8240  0.00  0.00     0.000 HD
ATOM     30   C  NAG B   2      10.643  -7.724  30.9920  0.00  0.00     0.000 C
ATOM     31   C  NAG B   2       9.613  -8.818  30.9890  0.00  0.00     0.000 C
ATOM     32   O  NAG B   2      11.801  -7.940  30.7200  0.00  0.00     0.000 OA
ENDBRANCH 18 30
BRANCH 17 33
ATOM     33  O4  BDP B   3       8.260  -4.493  30.8590  0.00  0.00     0.000 O
BRANCH 33 37
ATOM     34  C1  BDP B   3       5.385  -1.778  29.2420  0.00  0.00     0.000 C
ATOM     35  C2  BDP B   3       6.689  -1.953  28.4720  0.00  0.00     0.000 C
ATOM     36  C3  BDP B   3       7.460  -3.211  28.8550  0.00  0.00     0.000 C
ATOM     37  C4  BDP B   3       7.508  -3.337  30.3850  0.00  0.00     0.000 C
ATOM     38  C5  BDP B   3       6.052  -3.330  30.8900  0.00  0.00     0.000 C
ATOM     39  O5  BDP B   3       5.565  -2.011  30.6440  0.00  0.00     0.000 O
ATOM     40   O  BDP B   3       6.340  -1.933  27.0860  0.00  0.00     0.000 O
ATOM     42  HD  BDP B   3       6.351  -1.083  27.2560  0.00  0.00     0.000 HD
ATOM     42   O  BDP B   3       8.765  -3.079  28.2920  0.00  0.00     0.000 O
ATOM     44  HD  BDP B   3       8.775  -2.230  28.4620  0.00  0.00     0.000 HD
BRANCH 38 44
ATOM     44   C  BDP B   3       5.898  -3.665  32.3410  0.00  0.00     0.000 C
ATOM     45   O  BDP B   3       6.322  -2.840  33.1800  0.00  0.00     0.000 OA
ATOM     46   O  BDP B   3       5.360  -4.744  32.6730  0.00  0.00     0.000 OA
ENDBRANCH 38 44
BRANCH 34 47
ATOM     47  O3  NAG B   4       5.134  -0.411  29.5630  0.00  0.00     0.000 O
BRANCH 47 50
ATOM     48  C1  NAG B   4       1.481   0.484  29.5170  0.00  0.00     0.000 C
ATOM     49  C2  NAG B   4       2.804  -0.027  28.9730  0.00  0.00     0.000 C
ATOM     50  C3  NAG B   4       3.853   0.007  30.0780  0.00  0.00     0.000 C
ATOM     51  C4  NAG B   4       3.980   1.394  30.6870  0.00  0.00     0.000 C
ATOM     52  C5  NAG B   4       2.608   1.884  31.1530  0.00  0.00     0.000 C
ATOM     53  O5  NAG B   4       1.658   1.797  30.0830  0.00  0.00     0.000 O
ATOM     54   O  NAG B   4       4.895   1.339  31.7840  0.00  0.00     0.000 O
ATOM     56  HD  NAG B   4       4.724   2.150  31.5330  0.00  0.00     0.000 HD
ATOM     56   C  NAG B   4       2.674   3.321  31.6550  0.00  0.00     0.000 C
ATOM     57   O  NAG B   4       3.130   4.168  30.5910  0.00  0.00     0.000 O
ATOM     59  HD  NAG B   4       2.959   4.979  30.3400  0.00  0.00     0.000 HD
BRANCH 49 61
ATOM     59   N  NAG B   4       2.773   0.746  27.7310  0.00  0.00     0.000 N
ATOM     61  HD  NAG B   4       3.286   0.170  28.1250  0.00  0.00     0.000 HD
ATOM     61   O  NAG B   4       3.487  -0.905  26.3650  0.00  0.00     0.000 OA
ATOM     62   C  NAG B   4       3.045   0.223  26.5300  0.00  0.00     0.000 C
ATOM     63   C  NAG B   4       2.754   1.106  25.3580  0.00  0.00     0.000 C
ENDBRANCH 49 61
BRANCH 48 64
ATOM     64  O4  BDP B   5       0.124   0.206  29.1860  0.00  0.00     0.000 O
BRANCH 64 68
ATOM     65  C1  BDP B   5      -1.911  -3.337  30.0100  0.00  0.00     0.000 C
ATOM     66  C2  BDP B   5      -1.381  -3.187  28.5910  0.00  0.00     0.000 C
ATOM     67  C3  BDP B   5      -0.322  -2.092  28.5520  0.00  0.00     0.000 C
ATOM     68  C4  BDP B   5      -0.895  -0.789  29.0990  0.00  0.00     0.000 C
ATOM     69  C5  BDP B   5      -1.518  -0.969  30.4770  0.00  0.00     0.000 C
ATOM     70  O5  BDP B   5      -2.430  -2.082  30.4780  0.00  0.00     0.000 O
ATOM     71   O  BDP B   5      -0.860  -4.445  28.1360  0.00  0.00     0.000 O
ATOM     73  HD  BDP B   5      -0.542  -5.221  27.9190  0.00  0.00     0.000 HD
ATOM     73   O  BDP B   5       0.134  -1.882  27.2100  0.00  0.00     0.000 O
ATOM     75  HD  BDP B   5       0.453  -2.657  26.9940  0.00  0.00     0.000 HD
BRANCH 69 75
ATOM     75   C  BDP B   5      -2.264   0.293  30.8270  0.00  0.00     0.000 C
ATOM     76   O  BDP B   5      -1.931   0.922  31.8520  0.00  0.00     0.000 OA
ATOM     77   O  BDP B   5      -3.187   0.675  30.0840  0.00  0.00     0.000 OA
ENDBRANCH 69 75
BRANCH 65 78
ATOM     78  O3  NAG B   6      -3.224  -3.761  30.3860  0.00  0.00     0.000 O
BRANCH 78 81
ATOM     79  C1  NAG B   6      -5.065  -4.791  33.5290  0.00  0.00     0.000 C
ATOM     80  C2  NAG B   6      -4.139  -4.940  32.3120  0.00  0.00     0.000 C
ATOM     81  C3  NAG B   6      -3.966  -3.600  31.6140  0.00  0.00     0.000 C
ATOM     82  C4  NAG B   6      -5.327  -2.958  31.3230  0.00  0.00     0.000 C
ATOM     83  C5  NAG B   6      -6.129  -2.862  32.6160  0.00  0.00     0.000 C
ATOM     84  O5  NAG B   6      -6.305  -4.189  33.1140  0.00  0.00     0.000 O
BRANCH 80 87
ATOM     85   N  NAG B   6      -2.954  -5.618  32.8320  0.00  0.00     0.000 N
ATOM     87  HD  NAG B   6      -2.552  -6.348  33.0660  0.00  0.00     0.000 HD
ATOM     87   C  NAG B   6      -2.210  -6.475  32.1220  0.00  0.00     0.000 C
ATOM     88   C  NAG B   6      -1.016  -7.036  32.8270  0.00  0.00     0.000 C
ATOM     89   O  NAG B   6      -2.466  -6.782  30.9640  0.00  0.00     0.000 OA
ENDBRANCH 80 87
ATOM     90   O  NAG B   6      -7.511  -0.940  33.1080  0.00  0.00     0.000 O
ATOM     92  HD  NAG B   6      -7.023  -1.575  33.4380  0.00  0.00     0.000 HD
ATOM     92   O  NAG B   6      -7.511  -0.940  33.1080  0.00  0.00     0.000 O
ATOM     94  HD  NAG B   6      -7.023  -1.575  33.4380  0.00  0.00     0.000 HD
ENDBRANCH 78 81
ENDBRANCH 65 78
ENDBRANCH 64 68
ENDBRANCH 48 64
ENDBRANCH 47 50
ENDBRANCH 34 47
ENDBRANCH 33 37
ENDBRANCH 17 33
ENDBRANCH 16 19
ENDBRANCH 1 16
TORSDOF 16
ENDMDL
MODEL 11
REMARK VINA RESULT:     -10.9     11.963     18.058
ROOT
ATOM      1  C1  BDP B   1       0.818  -7.112  24.0790  0.00  0.00     0.000 C
ATOM      2  C2  BDP B   1       1.810  -7.163  22.9300  0.00  0.00     0.000 C
ATOM      3  C3  BDP B   1       1.168  -7.636  21.6430  0.00  0.00     0.000 C
ATOM      4  C4  BDP B   1      -0.357  -7.618  21.6660  0.00  0.00     0.000 C
ATOM      5  C5  BDP B   1      -0.935  -8.234  22.9360  0.00  0.00     0.000 C
ATOM      6  O5  BDP B   1       0.031  -8.292  23.9990  0.00  0.00     0.000 O
ATOM      7   O  BDP B   1       2.391  -5.870  22.7310  0.00  0.00     0.000 O
ATOM      9  HD  BDP B   1       2.744  -5.141  23.0360  0.00  0.00     0.000 HD
ATOM      9   O  BDP B   1       1.584  -8.980  21.3530  0.00  0.00     0.000 O
ATOM     11  HD  BDP B   1       1.938  -8.251  21.6580  0.00  0.00     0.000 HD
ATOM     11   O  BDP B   1      -0.843  -6.279  21.5140  0.00  0.00     0.000 O
ATOM     13  HD  BDP B   1      -0.489  -5.550  21.8190  0.00  0.00     0.000 HD
ENDROOT
BRANCH 5 13
ATOM     13   C  BDP B   1      -1.386  -9.611  22.5920  0.00  0.00     0.000 C
ATOM     14   O  BDP B   1      -1.282  -9.986  21.4060  0.00  0.00     0.000 OA
ATOM     15   O  BDP B   1      -1.825 -10.351  23.4990  0.00  0.00     0.000 OA
ENDBRANCH 5 13
BRANCH 1 16
ATOM     16  O3  NAG B   2       0.413  -6.024  24.9060  0.00  0.00     0.000 O
BRANCH 16 19
ATOM     17  C1  NAG B   2      -1.429  -4.418  27.6050  0.00  0.00     0.000 C
ATOM     18  C2  NAG B   2      -0.174  -4.529  26.7390  0.00  0.00     0.000 C
ATOM     19  C3  NAG B   2      -0.526  -5.043  25.3500  0.00  0.00     0.000 C
ATOM     20  C4  NAG B   2      -1.942  -5.625  25.3030  0.00  0.00     0.000 C
ATOM     21  C5  NAG B   2      -2.390  -6.354  26.5780  0.00  0.00     0.000 C
ATOM     22  O5  NAG B   2      -1.884  -5.761  27.7800  0.00  0.00     0.000 O
ATOM     23   O  NAG B   2      -2.858  -4.567  25.0020  0.00  0.00     0.000 O
ATOM     25  HD  NAG B   2      -2.465  -3.987  25.5120  0.00  0.00     0.000 HD
ATOM     25   C  NAG B   2      -1.958  -7.827  26.5380  0.00  0.00     0.000 C
ATOM     26   O  NAG B   2      -2.908  -8.640  25.8340  0.00  0.00     0.000 O
ATOM     28  HD  NAG B   2      -2.515  -8.060  26.3440  0.00  0.00     0.000 HD
BRANCH 18 30
ATOM     28   N  NAG B   2      -0.457  -3.125  27.0360  0.00  0.00     0.000 N
ATOM     30  HD  NAG B   2      -1.091  -2.536  27.0100  0.00  0.00     0.000 HD
ATOM     30   C  NAG B   2       0.046  -2.081  26.3610  0.00  0.00     0.000 C
ATOM     31   C  NAG B   2      -0.388  -0.735  26.8670  0.00  0.00     0.000 C
ATOM     32   O  NAG B   2       0.786  -2.195  25.4120  0.00  0.00     0.000 OA
ENDBRANCH 18 30
BRANCH 17 33
ATOM     33  O4  BDP B   3      -2.096  -4.358  28.8850  0.00  0.00     0.000 O
BRANCH 33 37
ATOM     34  C1  BDP B   3      -5.050  -3.248  31.7630  0.00  0.00     0.000 C
ATOM     35  C2  BDP B   3      -5.210  -4.605  31.0880  0.00  0.00     0.000 C
ATOM     36  C3  BDP B   3      -3.936  -5.107  30.4170  0.00  0.00     0.000 C
ATOM     37  C4  BDP B   3      -3.304  -3.969  29.6010  0.00  0.00     0.000 C
ATOM     38  C5  BDP B   3      -3.068  -2.791  30.5660  0.00  0.00     0.000 C
ATOM     39  O5  BDP B   3      -4.367  -2.315  30.9170  0.00  0.00     0.000 O
ATOM     40   O  BDP B   3      -5.678  -5.501  32.0980  0.00  0.00     0.000 O
ATOM     42  HD  BDP B   3      -6.420  -5.111  31.8810  0.00  0.00     0.000 HD
ATOM     42   O  BDP B   3      -4.315  -6.206  29.5900  0.00  0.00     0.000 O
ATOM     44  HD  BDP B   3      -5.057  -5.816  29.3730  0.00  0.00     0.000 HD
BRANCH 38 44
ATOM     44   C  BDP B   3      -2.257  -1.673  29.9900  0.00  0.00     0.000 C
ATOM     45   O  BDP B   3      -2.867  -0.736  29.4290  0.00  0.00     0.000 OA
ATOM     46   O  BDP B   3      -1.011  -1.702  30.0820  0.00  0.00     0.000 OA
ENDBRANCH 38 44
BRANCH 34 47
ATOM     47  O3  NAG B   4      -6.214  -2.438  31.6150  0.00  0.00     0.000 O
BRANCH 47 50
ATOM     48  C1  NAG B   4      -7.244  -0.592  34.7260  0.00  0.00     0.000 C
ATOM     49  C2  NAG B   4      -6.934  -1.792  33.8500  0.00  0.00     0.000 C
ATOM     50  C3  NAG B   4      -6.451  -1.313  32.4860  0.00  0.00     0.000 C
ATOM     51  C4  NAG B   4      -7.453  -0.371  31.8370  0.00  0.00     0.000 C
ATOM     52  C5  NAG B   4      -7.780   0.778  32.7920  0.00  0.00     0.000 C
ATOM     53  O5  NAG B   4      -8.195   0.266  34.0650  0.00  0.00     0.000 O
ATOM     54   O  NAG B   4      -6.900   0.129  30.6170  0.00  0.00     0.000 O
ATOM     56  HD  NAG B   4      -7.750   0.279  30.6840  0.00  0.00     0.000 HD
ATOM     56   C  NAG B   4      -8.875   1.674  32.2260  0.00  0.00     0.000 C
ATOM     57   O  NAG B   4     -10.060   0.892  32.0220  0.00  0.00     0.000 O
ATOM     59  HD  NAG B   4     -10.910   1.043  32.0890  0.00  0.00     0.000 HD
BRANCH 49 61
ATOM     59   N  NAG B   4      -6.285  -2.555  34.9170  0.00  0.00     0.000 N
ATOM     61  HD  NAG B   4      -7.062  -2.499  34.5380  0.00  0.00     0.000 HD
ATOM     61   O  NAG B   4      -7.177  -4.564  34.3970  0.00  0.00     0.000 OA
ATOM     62   C  NAG B   4      -6.404  -3.881  35.0530  0.00  0.00     0.000 C
ATOM     63   C  NAG B   4      -5.501  -4.511  36.0650  0.00  0.00     0.000 C
ENDBRANCH 49 61
BRANCH 48 64
ATOM     64  O4  BDP B   5      -7.203  -0.382  36.1350  0.00  0.00     0.000 O
BRANCH 64 68
ATOM     65  C1  BDP B   5      -5.781   0.212  40.0070  0.00  0.00     0.000 C
ATOM     66  C2  BDP B   5      -4.722   0.077  38.9210  0.00  0.00     0.000 C
ATOM     67  C3  BDP B   5      -5.358   0.298  37.5550  0.00  0.00     0.000 C
ATOM     68  C4  BDP B   5      -6.521  -0.667  37.3550  0.00  0.00     0.000 C
ATOM     69  C5  BDP B   5      -7.524  -0.602  38.4990  0.00  0.00     0.000 C
ATOM     70  O5  BDP B   5      -6.854  -0.711  39.7670  0.00  0.00     0.000 O
ATOM     71   O  BDP B   5      -3.657   1.009  39.1680  0.00  0.00     0.000 O
ATOM     73  HD  BDP B   5      -3.053   1.601  39.3510  0.00  0.00     0.000 HD
ATOM     73   O  BDP B   5      -4.394   0.099  36.5140  0.00  0.00     0.000 O
ATOM     75  HD  BDP B   5      -3.790   0.692  36.6970  0.00  0.00     0.000 HD
BRANCH 69 75
ATOM     75   C  BDP B   5      -8.495  -1.745  38.3430  0.00  0.00     0.000 C
ATOM     76   O  BDP B   5      -9.718  -1.505  38.4020  0.00  0.00     0.000 OA
ATOM     77   O  BDP B   5      -8.051  -2.893  38.1560  0.00  0.00     0.000 OA
ENDBRANCH 69 75
BRANCH 65 78
ATOM     78  O3  NAG B   6      -5.790  -0.456  41.2710  0.00  0.00     0.000 O
BRANCH 78 81
ATOM     79  C1  NAG B   6      -5.497   0.361  44.9560  0.00  0.00     0.000 C
ATOM     80  C2  NAG B   6      -5.023   0.055  43.5270  0.00  0.00     0.000 C
ATOM     81  C3  NAG B   6      -6.211  -0.018  42.5820  0.00  0.00     0.000 C
ATOM     82  C4  NAG B   6      -7.286  -0.964  43.1290  0.00  0.00     0.000 C
ATOM     83  C5  NAG B   6      -7.667  -0.534  44.5410  0.00  0.00     0.000 C
ATOM     84  O5  NAG B   6      -6.490  -0.604  45.3470  0.00  0.00     0.000 O
BRANCH 80 87
ATOM     85   N  NAG B   6      -3.973   1.038  43.2730  0.00  0.00     0.000 N
ATOM     87  HD  NAG B   6      -3.149   1.290  43.3520  0.00  0.00     0.000 HD
ATOM     87   C  NAG B   6      -2.909   0.813  42.4930  0.00  0.00     0.000 C
ATOM     88   C  NAG B   6      -1.966   1.964  42.3340  0.00  0.00     0.000 C
ATOM     89   O  NAG B   6      -2.709  -0.254  41.9260  0.00  0.00     0.000 OA
ENDBRANCH 80 87
ATOM     90   O  NAG B   6      -9.956  -0.627  45.3170  0.00  0.00     0.000 O
ATOM     92  HD  NAG B   6      -9.193  -0.222  45.3820  0.00  0.00     0.000 HD
ATOM     92   O  NAG B   6      -9.956  -0.627  45.3170  0.00  0.00     0.000 O
ATOM     94  HD  NAG B   6      -9.193  -0.222  45.3820  0.00  0.00     0.000 HD
ENDBRANCH 78 81
ENDBRANCH 65 78
ENDBRANCH 64 68
ENDBRANCH 48 64
ENDBRANCH 47 50
ENDBRANCH 34 47
ENDBRANCH 33 37
ENDBRANCH 17 33
ENDBRANCH 16 19
ENDBRANCH 1 16
TORSDOF 16
ENDMDL
MODEL 12
REMARK VINA RESULT:     -10.8     27.593     30.352
ROOT
ATOM      1  C1  BDP B   1     -21.110 -30.258  30.8700  0.00  0.00     0.000 C
ATOM      2  C2  BDP B   1     -22.208 -31.307  30.8600  0.00  0.00     0.000 C
ATOM      3  C3  BDP B   1     -22.662 -31.644  29.4550  0.00  0.00     0.000 C
ATOM      4  C4  BDP B   1     -21.717 -31.155  28.3630  0.00  0.00     0.000 C
ATOM      5  C5  BDP B   1     -21.278 -29.708  28.5660  0.00  0.00     0.000 C
ATOM      6  O5  BDP B   1     -21.475 -29.267  29.9200  0.00  0.00     0.000 O
ATOM      7   O  BDP B   1     -21.753 -32.495  31.5160  0.00  0.00     0.000 O
ATOM      9  HD  BDP B   1     -21.344 -32.894  32.1670  0.00  0.00     0.000 HD
ATOM      9   O  BDP B   1     -23.953 -31.066  29.2050  0.00  0.00     0.000 O
ATOM     11  HD  BDP B   1     -23.544 -31.465  29.8560  0.00  0.00     0.000 HD
ATOM     11   O  BDP B   1     -20.565 -32.003  28.2830  0.00  0.00     0.000 O
ATOM     13  HD  BDP B   1     -20.156 -32.402  28.9340  0.00  0.00     0.000 HD
ENDROOT
BRANCH 5 13
ATOM     13   C  BDP B   1     -22.088 -28.868  27.6420  0.00  0.00     0.000 C
ATOM     14   O  BDP B   1     -22.867 -29.443  26.8530  0.00  0.00     0.000 OA
ATOM     15   O  BDP B   1     -21.984 -27.624  27.7020  0.00  0.00     0.000 OA
ENDBRANCH 5 13
BRANCH 1 16
ATOM     16  O3  NAG B   2     -19.785 -30.309  31.3930  0.00  0.00     0.000 O
BRANCH 16 19
ATOM     17  C1  NAG B   2     -16.350 -30.639  32.5540  0.00  0.00     0.000 C
ATOM     18  C2  NAG B   2     -17.498 -29.771  32.0400  0.00  0.00     0.000 C
ATOM     19  C3  NAG B   2     -18.839 -30.351  32.4640  0.00  0.00     0.000 C
ATOM     20  C4  NAG B   2     -18.700 -31.788  32.9740  0.00  0.00     0.000 C
ATOM     21  C5  NAG B   2     -17.639 -32.634  32.2580  0.00  0.00     0.000 C
ATOM     22  O5  NAG B   2     -16.483 -31.884  31.8650  0.00  0.00     0.000 O
ATOM     23   O  NAG B   2     -18.421 -31.746  34.3770  0.00  0.00     0.000 O
ATOM     25  HD  NAG B   2     -17.877 -31.075  34.3210  0.00  0.00     0.000 HD
ATOM     25   C  NAG B   2     -18.233 -33.306  31.0120  0.00  0.00     0.000 C
ATOM     26   O  NAG B   2     -18.886 -34.542  31.3360  0.00  0.00     0.000 O
ATOM     28  HD  NAG B   2     -18.341 -33.871  31.2800  0.00  0.00     0.000 HD
BRANCH 18 30
ATOM     28   N  NAG B   2     -17.889 -28.948  33.1840  0.00  0.00     0.000 N
ATOM     30  HD  NAG B   2     -18.456 -28.340  33.4260  0.00  0.00     0.000 HD
ATOM     30   C  NAG B   2     -17.155 -27.953  33.7000  0.00  0.00     0.000 C
ATOM     31   C  NAG B   2     -17.770 -27.262  34.8840  0.00  0.00     0.000 C
ATOM     32   O  NAG B   2     -16.081 -27.618  33.2570  0.00  0.00     0.000 OA
ENDBRANCH 18 30
BRANCH 17 33
ATOM     33  O4  BDP B   3     -14.988 -31.116  32.5040  0.00  0.00     0.000 O
BRANCH 33 37
ATOM     34  C1  BDP B   3     -11.792 -31.584  35.3000  0.00  0.00     0.000 C
ATOM     35  C2  BDP B   3     -12.066 -30.177  34.7830  0.00  0.00     0.000 C
ATOM     36  C3  BDP B   3     -13.442 -30.016  34.1470  0.00  0.00     0.000 C
ATOM     37  C4  BDP B   3     -13.707 -31.194  33.1970  0.00  0.00     0.000 C
ATOM     38  C5  BDP B   3     -13.557 -32.488  34.0190  0.00  0.00     0.000 C
ATOM     39  O5  BDP B   3     -12.169 -32.581  34.3420  0.00  0.00     0.000 O
ATOM     40   O  BDP B   3     -11.879 -29.300  35.8960  0.00  0.00     0.000 O
ATOM     42  HD  BDP B   3     -11.056 -29.417  35.6520  0.00  0.00     0.000 HD
ATOM     42   O  BDP B   3     -13.431 -28.769  33.4550  0.00  0.00     0.000 O
ATOM     44  HD  BDP B   3     -12.608 -28.887  33.2110  0.00  0.00     0.000 HD
BRANCH 38 44
ATOM     44   C  BDP B   3     -13.995 -33.729  33.3070  0.00  0.00     0.000 C
ATOM     45   O  BDP B   3     -13.387 -34.050  32.2620  0.00  0.00     0.000 OA
ATOM     46   O  BDP B   3     -14.944 -34.403  33.7650  0.00  0.00     0.000 OA
ENDBRANCH 38 44
BRANCH 34 47
ATOM     47  O3  NAG B   4     -10.438 -31.978  35.0860  0.00  0.00     0.000 O
BRANCH 47 50
ATOM     48  C1  NAG B   4      -8.505 -33.744  37.7860  0.00  0.00     0.000 C
ATOM     49  C2  NAG B   4      -9.165 -32.577  37.0730  0.00  0.00     0.000 C
ATOM     50  C3  NAG B   4      -9.862 -33.081  35.8140  0.00  0.00     0.000 C
ATOM     51  C4  NAG B   4      -8.904 -33.841  34.9100  0.00  0.00     0.000 C
ATOM     52  C5  NAG B   4      -8.219 -34.956  35.7010  0.00  0.00     0.000 C
ATOM     53  O5  NAG B   4      -7.612 -34.428  36.8870  0.00  0.00     0.000 O
ATOM     54   O  NAG B   4      -9.635 -34.380  33.8060  0.00  0.00     0.000 O
ATOM     56  HD  NAG B   4      -8.778 -34.403  33.6820  0.00  0.00     0.000 HD
ATOM     56   C  NAG B   4      -7.160 -35.660  34.8610  0.00  0.00     0.000 C
ATOM     57   O  NAG B   4      -6.170 -34.704  34.4600  0.00  0.00     0.000 O
ATOM     59  HD  NAG B   4      -5.313 -34.727  34.3360  0.00  0.00     0.000 HD
BRANCH 49 61
ATOM     59   N  NAG B   4      -9.958 -31.911  38.1070  0.00  0.00     0.000 N
ATOM     61  HD  NAG B   4      -9.152 -31.890  37.7920  0.00  0.00     0.000 HD
ATOM     61   O  NAG B   4      -9.198 -29.818  37.7290  0.00  0.00     0.000 OA
ATOM     62   C  NAG B   4      -9.961 -30.587  38.2960  0.00  0.00     0.000 C
ATOM     63   C  NAG B   4     -10.992 -30.071  39.2500  0.00  0.00     0.000 C
ENDBRANCH 49 61
BRANCH 48 64
ATOM     64  O4  BDP B   5      -8.209 -34.001  39.1560  0.00  0.00     0.000 O
BRANCH 64 68
ATOM     65  C1  BDP B   5      -5.873 -37.155  40.5590  0.00  0.00     0.000 C
ATOM     66  C2  BDP B   5      -7.378 -37.310  40.7330  0.00  0.00     0.000 C
ATOM     67  C3  BDP B   5      -8.104 -36.332  39.8180  0.00  0.00     0.000 C
ATOM     68  C4  BDP B   5      -7.631 -34.908  40.0930  0.00  0.00     0.000 C
ATOM     69  C5  BDP B   5      -6.115 -34.782  40.0210  0.00  0.00     0.000 C
ATOM     70  O5  BDP B   5      -5.484 -35.797  40.8210  0.00  0.00     0.000 O
ATOM     71   O  BDP B   5      -7.757 -38.669  40.4630  0.00  0.00     0.000 O
ATOM     73  HD  BDP B   5      -7.933 -39.495  40.2700  0.00  0.00     0.000 HD
ATOM     73   O  BDP B   5      -9.520 -36.407  40.0220  0.00  0.00     0.000 O
ATOM     75  HD  BDP B   5      -9.696 -37.233  39.8300  0.00  0.00     0.000 HD
BRANCH 69 75
ATOM     75   C  BDP B   5      -5.728 -33.420  40.5390  0.00  0.00     0.000 C
ATOM     76   O  BDP B   5      -5.528 -32.501  39.7200  0.00  0.00     0.000 OA
ATOM     77   O  BDP B   5      -5.624 -33.249  41.7680  0.00  0.00     0.000 OA
ENDBRANCH 69 75
BRANCH 65 78
ATOM     78  O3  NAG B   6      -4.875 -37.394  41.5540  0.00  0.00     0.000 O
BRANCH 78 81
ATOM     79  C1  NAG B   6      -1.616 -39.321  41.5050  0.00  0.00     0.000 C
ATOM     80  C2  NAG B   6      -3.136 -39.098  41.4540  0.00  0.00     0.000 C
ATOM     81  C3  NAG B   6      -3.451 -37.611  41.4480  0.00  0.00     0.000 C
ATOM     82  C4  NAG B   6      -2.726 -36.895  42.5920  0.00  0.00     0.000 C
ATOM     83  C5  NAG B   6      -1.233 -37.194  42.5110  0.00  0.00     0.000 C
ATOM     84  O5  NAG B   6      -1.067 -38.607  42.6280  0.00  0.00     0.000 O
BRANCH 80 87
ATOM     85   N  NAG B   6      -3.628 -39.845  40.2990  0.00  0.00     0.000 N
ATOM     87  HD  NAG B   6      -3.838 -40.600  39.9300  0.00  0.00     0.000 HD
ATOM     87   C  NAG B   6      -4.783 -40.522  40.2820  0.00  0.00     0.000 C
ATOM     88   C  NAG B   6      -5.123 -41.191  38.9880  0.00  0.00     0.000 C
ATOM     89   O  NAG B   6      -5.534 -40.587  41.2470  0.00  0.00     0.000 OA
ENDBRANCH 80 87
ATOM     90   O  NAG B   6       0.423 -35.500  43.0000  0.00  0.00     0.000 O
ATOM     92  HD  NAG B   6       0.239 -36.212  42.5420  0.00  0.00     0.000 HD
ATOM     92   O  NAG B   6       0.423 -35.500  43.0000  0.00  0.00     0.000 O
ATOM     94  HD  NAG B   6       0.239 -36.212  42.5420  0.00  0.00     0.000 HD
ENDBRANCH 78 81
ENDBRANCH 65 78
ENDBRANCH 64 68
ENDBRANCH 48 64
ENDBRANCH 47 50
ENDBRANCH 34 47
ENDBRANCH 33 37
ENDBRANCH 17 33
ENDBRANCH 16 19
ENDBRANCH 1 16
TORSDOF 16
ENDMDL
MODEL 13
REMARK VINA RESULT:     -10.7      5.615      7.759
ROOT
ATOM      1  C1  BDP B   1      -1.705  -8.748  25.6040  0.00  0.00     0.000 C
ATOM      2  C2  BDP B   1      -0.832  -9.924  25.2040  0.00  0.00     0.000 C
ATOM      3  C3  BDP B   1      -1.399 -10.681  24.0220  0.00  0.00     0.000 C
ATOM      4  C4  BDP B   1      -2.493  -9.930  23.2710  0.00  0.00     0.000 C
ATOM      5  C5  BDP B   1      -3.536  -9.319  24.2030  0.00  0.00     0.000 C
ATOM      6  O5  BDP B   1      -3.052  -9.196  25.5510  0.00  0.00     0.000 O
ATOM      7   O  BDP B   1       0.489  -9.466  24.8930  0.00  0.00     0.000 O
ATOM      9  HD  BDP B   1       1.183  -8.977  25.0640  0.00  0.00     0.000 HD
ATOM      9   O  BDP B   1      -1.951 -11.932  24.4600  0.00  0.00     0.000 O
ATOM     11  HD  BDP B   1      -1.257 -11.443  24.6310  0.00  0.00     0.000 HD
ATOM     11   O  BDP B   1      -1.921  -8.906  22.4480  0.00  0.00     0.000 O
ATOM     13  HD  BDP B   1      -1.227  -8.417  22.6180  0.00  0.00     0.000 HD
ENDROOT
BRANCH 5 13
ATOM     13   C  BDP B   1      -4.727 -10.211  24.1760  0.00  0.00     0.000 C
ATOM     14   O  BDP B   1      -4.746 -11.144  23.3460  0.00  0.00     0.000 OA
ATOM     15   O  BDP B   1      -5.651 -10.016  24.9940  0.00  0.00     0.000 OA
ENDBRANCH 5 13
BRANCH 1 16
ATOM     16  O3  NAG B   2      -1.406  -7.356  25.6850  0.00  0.00     0.000 O
BRANCH 16 19
ATOM     17  C1  NAG B   2       0.383  -5.510  28.2630  0.00  0.00     0.000 C
ATOM     18  C2  NAG B   2       0.280  -6.017  26.8240  0.00  0.00     0.000 C
ATOM     19  C3  NAG B   2      -1.176  -6.144  26.4040  0.00  0.00     0.000 C
ATOM     20  C4  NAG B   2      -2.122  -6.069  27.6060  0.00  0.00     0.000 C
ATOM     21  C5  NAG B   2      -1.589  -6.710  28.8950  0.00  0.00     0.000 C
ATOM     22  O5  NAG B   2      -0.176  -6.551  29.0680  0.00  0.00     0.000 O
ATOM     23   O  NAG B   2      -2.446  -4.695  27.8450  0.00  0.00     0.000 O
ATOM     25  HD  NAG B   2      -1.643  -4.407  27.6960  0.00  0.00     0.000 HD
ATOM     25   C  NAG B   2      -1.923  -8.208  28.9320  0.00  0.00     0.000 C
ATOM     26   O  NAG B   2      -3.239  -8.447  29.4510  0.00  0.00     0.000 O
ATOM     28  HD  NAG B   2      -2.436  -8.159  29.3020  0.00  0.00     0.000 HD
BRANCH 18 30
ATOM     28   N  NAG B   2       0.617  -4.594  26.8580  0.00  0.00     0.000 N
ATOM     30  HD  NAG B   2       0.270  -3.813  26.9940  0.00  0.00     0.000 HD
ATOM     30   C  NAG B   2       0.948  -3.858  25.7880  0.00  0.00     0.000 C
ATOM     31   C  NAG B   2       1.263  -2.419  26.0830  0.00  0.00     0.000 C
ATOM     32   O  NAG B   2       0.990  -4.299  24.6630  0.00  0.00     0.000 OA
ENDBRANCH 18 30
BRANCH 17 33
ATOM     33  O4  BDP B   3       1.087  -5.351  29.5140  0.00  0.00     0.000 O
BRANCH 33 37
ATOM     34  C1  BDP B   3       5.166  -4.884  30.6920  0.00  0.00     0.000 C
ATOM     35  C2  BDP B   3       4.698  -6.292  30.3450  0.00  0.00     0.000 C
ATOM     36  C3  BDP B   3       3.399  -6.325  29.5460  0.00  0.00     0.000 C
ATOM     37  C4  BDP B   3       2.382  -5.366  30.1830  0.00  0.00     0.000 C
ATOM     38  C5  BDP B   3       3.038  -3.972  30.2350  0.00  0.00     0.000 C
ATOM     39  O5  BDP B   3       4.093  -4.078  31.1920  0.00  0.00     0.000 O
ATOM     40   O  BDP B   3       5.779  -6.913  29.6460  0.00  0.00     0.000 O
ATOM     42  HD  BDP B   3       6.045  -7.014  30.4640  0.00  0.00     0.000 HD
ATOM     42   O  BDP B   3       2.940  -7.675  29.5660  0.00  0.00     0.000 O
ATOM     44  HD  BDP B   3       3.206  -7.777  30.3840  0.00  0.00     0.000 HD
BRANCH 38 44
ATOM     44   C  BDP B   3       2.109  -2.865  30.6260  0.00  0.00     0.000 C
ATOM     45   O  BDP B   3       2.498  -1.689  30.4580  0.00  0.00     0.000 OA
ATOM     46   O  BDP B   3       0.986  -3.140  31.1020  0.00  0.00     0.000 OA
ENDBRANCH 38 44
BRANCH 34 47
ATOM     47  O3  NAG B   4       5.742  -4.819  31.9950  0.00  0.00     0.000 O
BRANCH 47 50
ATOM     48  C1  NAG B   4       9.008  -3.620  33.4250  0.00  0.00     0.000 C
ATOM     49  C2  NAG B   4       7.917  -4.615  33.0690  0.00  0.00     0.000 C
ATOM     50  C3  NAG B   4       6.820  -3.905  32.2850  0.00  0.00     0.000 C
ATOM     51  C4  NAG B   4       6.277  -2.705  33.0450  0.00  0.00     0.000 C
ATOM     52  C5  NAG B   4       7.426  -1.776  33.4370  0.00  0.00     0.000 C
ATOM     53  O5  NAG B   4       8.440  -2.505  34.1400  0.00  0.00     0.000 O
ATOM     54   O  NAG B   4       5.333  -2.019  32.2180  0.00  0.00     0.000 O
ATOM     56  HD  NAG B   4       5.295  -1.768  33.0460  0.00  0.00     0.000 HD
ATOM     56   C  NAG B   4       6.935  -0.625  34.3070  0.00  0.00     0.000 C
ATOM     57   O  NAG B   4       6.346  -1.160  35.5000  0.00  0.00     0.000 O
ATOM     59  HD  NAG B   4       6.309  -0.909  36.3280  0.00  0.00     0.000 HD
BRANCH 49 61
ATOM     59   N  NAG B   4       8.629  -5.733  32.4480  0.00  0.00     0.000 N
ATOM     61  HD  NAG B   4       8.390  -5.474  33.2390  0.00  0.00     0.000 HD
ATOM     61   O  NAG B   4       7.691  -7.374  33.6850  0.00  0.00     0.000 OA
ATOM     62   C  NAG B   4       8.402  -7.015  32.7580  0.00  0.00     0.000 C
ATOM     63   C  NAG B   4       9.065  -8.022  31.8720  0.00  0.00     0.000 C
ENDBRANCH 49 61
BRANCH 48 64
ATOM     64  O4  BDP B   5      10.410  -3.753  33.6380  0.00  0.00     0.000 O
BRANCH 64 68
ATOM     65  C1  BDP B   5      14.523  -3.087  33.7340  0.00  0.00     0.000 C
ATOM     66  C2  BDP B   5      13.664  -1.898  33.3230  0.00  0.00     0.000 C
ATOM     67  C3  BDP B   5      12.220  -2.141  33.7400  0.00  0.00     0.000 C
ATOM     68  C4  BDP B   5      11.716  -3.453  33.1490  0.00  0.00     0.000 C
ATOM     69  C5  BDP B   5      12.637  -4.622  33.4760  0.00  0.00     0.000 C
ATOM     70  O5  BDP B   5      14.002  -4.295  33.1580  0.00  0.00     0.000 O
ATOM     71   O  BDP B   5      14.191  -0.698  33.9090  0.00  0.00     0.000 O
ATOM     73  HD  BDP B   5      14.538  -0.008  34.3020  0.00  0.00     0.000 HD
ATOM     73   O  BDP B   5      11.380  -1.069  33.2950  0.00  0.00     0.000 O
ATOM     75  HD  BDP B   5      11.727  -0.380  33.6880  0.00  0.00     0.000 HD
BRANCH 69 75
ATOM     75   C  BDP B   5      12.201  -5.811  32.6600  0.00  0.00     0.000 C
ATOM     76   O  BDP B   5      12.280  -6.948  33.1670  0.00  0.00     0.000 OA
ATOM     77   O  BDP B   5      11.772  -5.626  31.5060  0.00  0.00     0.000 OA
ENDBRANCH 69 75
BRANCH 65 78
ATOM     78  O3  NAG B   6      15.704  -3.550  33.0730  0.00  0.00     0.000 O
BRANCH 78 81
ATOM     79  C1  NAG B   6      19.392  -4.275  33.5280  0.00  0.00     0.000 C
ATOM     80  C2  NAG B   6      18.139  -3.479  33.1300  0.00  0.00     0.000 C
ATOM     81  C3  NAG B   6      16.884  -4.212  33.5760  0.00  0.00     0.000 C
ATOM     82  C4  NAG B   6      16.908  -5.670  33.1030  0.00  0.00     0.000 C
ATOM     83  C5  NAG B   6      18.194  -6.336  33.5780  0.00  0.00     0.000 C
ATOM     84  O5  NAG B   6      19.289  -5.615  33.0130  0.00  0.00     0.000 O
BRANCH 80 87
ATOM     85   N  NAG B   6      18.339  -2.134  33.6640  0.00  0.00     0.000 N
ATOM     87  HD  NAG B   6      18.710  -1.354  33.6060  0.00  0.00     0.000 HD
ATOM     87   C  NAG B   6      17.937  -1.016  33.0470  0.00  0.00     0.000 C
ATOM     88   C  NAG B   6      18.207   0.261  33.7780  0.00  0.00     0.000 C
ATOM     89   O  NAG B   6      17.371  -1.019  31.9600  0.00  0.00     0.000 OA
ENDBRANCH 80 87
ATOM     90   O  NAG B   6      18.220  -8.626  34.3540  0.00  0.00     0.000 O
ATOM     92  HD  NAG B   6      18.581  -7.842  34.4230  0.00  0.00     0.000 HD
ATOM     92   O  NAG B   6      18.220  -8.626  34.3540  0.00  0.00     0.000 O
ATOM     94  HD  NAG B   6      18.581  -7.842  34.4230  0.00  0.00     0.000 HD
ENDBRANCH 78 81
ENDBRANCH 65 78
ENDBRANCH 64 68
ENDBRANCH 48 64
ENDBRANCH 47 50
ENDBRANCH 34 47
ENDBRANCH 33 37
ENDBRANCH 17 33
ENDBRANCH 16 19
ENDBRANCH 1 16
TORSDOF 16
ENDMDL
MODEL 14
REMARK VINA RESULT:     -10.7     33.552     39.655
ROOT
ATOM      1  C1  BDP B   1       0.756 -38.962  43.9180  0.00  0.00     0.000 C
ATOM      2  C2  BDP B   1       1.614 -37.757  44.2620  0.00  0.00     0.000 C
ATOM      3  C3  BDP B   1       0.853 -36.456  44.1180  0.00  0.00     0.000 C
ATOM      4  C4  BDP B   1      -0.659 -36.629  44.0150  0.00  0.00     0.000 C
ATOM      5  C5  BDP B   1      -1.062 -37.721  43.0290  0.00  0.00     0.000 C
ATOM      6  O5  BDP B   1       0.019 -38.627  42.7520  0.00  0.00     0.000 O
ATOM      7   O  BDP B   1       2.110 -37.879  45.6000  0.00  0.00     0.000 O
ATOM      9  HD  BDP B   1       2.463 -38.343  46.2400  0.00  0.00     0.000 HD
ATOM      9   O  BDP B   1       1.293 -35.758  42.9430  0.00  0.00     0.000 O
ATOM     11  HD  BDP B   1       1.646 -36.223  43.5830  0.00  0.00     0.000 HD
ATOM     11   O  BDP B   1      -1.219 -36.910  45.3040  0.00  0.00     0.000 O
ATOM     13  HD  BDP B   1      -0.866 -37.374  45.9440  0.00  0.00     0.000 HD
ENDROOT
BRANCH 5 13
ATOM     13   C  BDP B   1      -1.486 -37.045  41.7720  0.00  0.00     0.000 C
ATOM     14   O  BDP B   1      -2.686 -36.721  41.6530  0.00  0.00     0.000 OA
ATOM     15   O  BDP B   1      -0.631 -36.801  40.8950  0.00  0.00     0.000 OA
ENDBRANCH 5 13
BRANCH 1 16
ATOM     16  O3  NAG B   2       0.398 -40.099  44.7010  0.00  0.00     0.000 O
BRANCH 16 19
ATOM     17  C1  NAG B   2      -2.292 -42.380  45.6040  0.00  0.00     0.000 C
ATOM     18  C2  NAG B   2      -1.583 -41.511  44.5650  0.00  0.00     0.000 C
ATOM     19  C3  NAG B   2      -0.092 -41.431  44.8610  0.00  0.00     0.000 C
ATOM     20  C4  NAG B   2       0.234 -41.936  46.2700  0.00  0.00     0.000 C
ATOM     21  C5  NAG B   2      -0.824 -41.622  47.3360  0.00  0.00     0.000 C
ATOM     22  O5  NAG B   2      -2.166 -41.668  46.8370  0.00  0.00     0.000 O
ATOM     23   O  NAG B   2       0.454 -43.349  46.2060  0.00  0.00     0.000 O
ATOM     25  HD  NAG B   2      -0.195 -43.496  45.6530  0.00  0.00     0.000 HD
ATOM     25   C  NAG B   2      -0.578 -40.237  47.9510  0.00  0.00     0.000 C
ATOM     26   O  NAG B   2       0.373 -40.294  49.0250  0.00  0.00     0.000 O
ATOM     28  HD  NAG B   2      -0.277 -40.441  48.4710  0.00  0.00     0.000 HD
BRANCH 18 30
ATOM     28   N  NAG B   2      -2.267 -42.305  43.5460  0.00  0.00     0.000 N
ATOM     30  HD  NAG B   2      -2.845 -42.943  43.4510  0.00  0.00     0.000 HD
ATOM     30   C  NAG B   2      -1.677 -43.215  42.7570  0.00  0.00     0.000 C
ATOM     31   C  NAG B   2      -2.594 -43.893  41.7790  0.00  0.00     0.000 C
ATOM     32   O  NAG B   2      -0.501 -43.487  42.8190  0.00  0.00     0.000 OA
ENDBRANCH 18 30
BRANCH 17 33
ATOM     33  O4  BDP B   3      -3.468 -42.801  46.3290  0.00  0.00     0.000 O
BRANCH 33 37
ATOM     34  C1  BDP B   3      -7.699 -43.238  46.7090  0.00  0.00     0.000 C
ATOM     35  C2  BDP B   3      -6.831 -44.373  47.2400  0.00  0.00     0.000 C
ATOM     36  C3  BDP B   3      -5.375 -43.977  47.4590  0.00  0.00     0.000 C
ATOM     37  C4  BDP B   3      -4.868 -43.195  46.2370  0.00  0.00     0.000 C
ATOM     38  C5  BDP B   3      -5.810 -41.992  46.0400  0.00  0.00     0.000 C
ATOM     39  O5  BDP B   3      -7.061 -42.545  45.6300  0.00  0.00     0.000 O
ATOM     40   O  BDP B   3      -7.456 -44.824  48.4430  0.00  0.00     0.000 O
ATOM     42  HD  BDP B   3      -7.939 -45.236  47.8540  0.00  0.00     0.000 HD
ATOM     42   O  BDP B   3      -4.647 -45.187  47.6540  0.00  0.00     0.000 O
ATOM     44  HD  BDP B   3      -5.130 -45.599  47.0650  0.00  0.00     0.000 HD
BRANCH 38 44
ATOM     44   C  BDP B   3      -5.339 -40.996  45.0270  0.00  0.00     0.000 C
ATOM     45   O  BDP B   3      -5.232 -41.376  43.8400  0.00  0.00     0.000 OA
ATOM     46   O  BDP B   3      -5.068 -39.830  45.3850  0.00  0.00     0.000 OA
ENDBRANCH 38 44
BRANCH 34 47
ATOM     47  O3  NAG B   4      -8.661 -43.700  45.7620  0.00  0.00     0.000 O
BRANCH 47 50
ATOM     48  C1  NAG B   4     -12.153 -42.351  46.1370  0.00  0.00     0.000 C
ATOM     49  C2  NAG B   4     -10.904 -43.126  46.5180  0.00  0.00     0.000 C
ATOM     50  C3  NAG B   4      -9.833 -42.918  45.4530  0.00  0.00     0.000 C
ATOM     51  C4  NAG B   4     -10.341 -43.290  44.0690  0.00  0.00     0.000 C
ATOM     52  C5  NAG B   4     -11.635 -42.532  43.7700  0.00  0.00     0.000 C
ATOM     53  O5  NAG B   4     -12.589 -42.739  44.8200  0.00  0.00     0.000 O
ATOM     54   O  NAG B   4      -9.336 -42.972  43.1030  0.00  0.00     0.000 O
ATOM     56  HD  NAG B   4      -9.958 -43.482  42.7820  0.00  0.00     0.000 HD
ATOM     56   C  NAG B   4     -12.241 -42.974  42.4430  0.00  0.00     0.000 C
ATOM     57   O  NAG B   4     -12.531 -44.377  42.5050  0.00  0.00     0.000 O
ATOM     59  HD  NAG B   4     -13.153 -44.887  42.1840  0.00  0.00     0.000 HD
BRANCH 49 61
ATOM     59   N  NAG B   4     -10.978 -42.774  47.9370  0.00  0.00     0.000 N
ATOM     61  HD  NAG B   4     -11.202 -43.429  47.4170  0.00  0.00     0.000 HD
ATOM     61   O  NAG B   4     -10.405 -44.801  48.7510  0.00  0.00     0.000 OA
ATOM     62   C  NAG B   4     -10.653 -43.616  48.9240  0.00  0.00     0.000 C
ATOM     63   C  NAG B   4     -10.585 -43.015  50.2920  0.00  0.00     0.000 C
ENDBRANCH 49 61
BRANCH 48 64
ATOM     64  O4  BDP B   5     -13.190 -41.746  46.9040  0.00  0.00     0.000 O
BRANCH 64 68
ATOM     65  C1  BDP B   5     -16.012 -38.955  48.1770  0.00  0.00     0.000 C
ATOM     66  C2  BDP B   5     -16.500 -40.393  48.0640  0.00  0.00     0.000 C
ATOM     67  C3  BDP B   5     -15.306 -41.338  48.0170  0.00  0.00     0.000 C
ATOM     68  C4  BDP B   5     -14.373 -40.949  46.8750  0.00  0.00     0.000 C
ATOM     69  C5  BDP B   5     -13.972 -39.481  46.9360  0.00  0.00     0.000 C
ATOM     70  O5  BDP B   5     -15.133 -38.645  47.0840  0.00  0.00     0.000 O
ATOM     71   O  BDP B   5     -17.372 -40.695  49.1640  0.00  0.00     0.000 O
ATOM     73  HD  BDP B   5     -17.874 -40.829  49.8570  0.00  0.00     0.000 HD
ATOM     73   O  BDP B   5     -15.741 -42.690  47.8330  0.00  0.00     0.000 O
ATOM     75  HD  BDP B   5     -16.242 -42.825  48.5260  0.00  0.00     0.000 HD
BRANCH 69 75
ATOM     75   C  BDP B   5     -13.261 -39.131  45.6530  0.00  0.00     0.000 C
ATOM     76   O  BDP B   5     -12.079 -38.736  45.7110  0.00  0.00     0.000 OA
ATOM     77   O  BDP B   5     -13.870 -39.250  44.5740  0.00  0.00     0.000 OA
ENDBRANCH 69 75
BRANCH 65 78
ATOM     78  O3  NAG B   6     -16.676 -37.792  47.6770  0.00  0.00     0.000 O
BRANCH 78 81
ATOM     79  C1  NAG B   6     -16.341 -34.032  47.9670  0.00  0.00     0.000 C
ATOM     80  C2  NAG B   6     -16.729 -35.460  48.3820  0.00  0.00     0.000 C
ATOM     81  C3  NAG B   6     -16.188 -36.466  47.3790  0.00  0.00     0.000 C
ATOM     82  C4  NAG B   6     -16.577 -36.074  45.9490  0.00  0.00     0.000 C
ATOM     83  C5  NAG B   6     -16.121 -34.646  45.6740  0.00  0.00     0.000 C
ATOM     84  O5  NAG B   6     -16.774 -33.794  46.6150  0.00  0.00     0.000 O
BRANCH 80 87
ATOM     85   N  NAG B   6     -17.495 -35.915  49.5390  0.00  0.00     0.000 N
ATOM     87  HD  NAG B   6     -17.715 -36.547  50.0890  0.00  0.00     0.000 HD
ATOM     87   C  NAG B   6     -16.944 -36.302  50.6970  0.00  0.00     0.000 C
ATOM     88   C  NAG B   6     -17.905 -36.700  51.7710  0.00  0.00     0.000 C
ATOM     89   O  NAG B   6     -15.734 -36.320  50.8880  0.00  0.00     0.000 OA
ENDBRANCH 80 87
ATOM     90   O  NAG B   6     -15.217 -34.000  43.5250  0.00  0.00     0.000 O
ATOM     92  HD  NAG B   6     -15.209 -33.855  44.3790  0.00  0.00     0.000 HD
ATOM     92   O  NAG B   6     -15.217 -34.000  43.5250  0.00  0.00     0.000 O
ATOM     94  HD  NAG B   6     -15.209 -33.855  44.3790  0.00  0.00     0.000 HD
ENDBRANCH 78 81
ENDBRANCH 65 78
ENDBRANCH 64 68
ENDBRANCH 48 64
ENDBRANCH 47 50
ENDBRANCH 34 47
ENDBRANCH 33 37
ENDBRANCH 17 33
ENDBRANCH 16 19
ENDBRANCH 1 16
TORSDOF 16
ENDMDL
MODEL 15
REMARK VINA RESULT:     -10.7     29.233     32.887
ROOT
ATOM      1  C1  BDP B   1     -15.733  -1.122  48.1480  0.00  0.00     0.000 C
ATOM      2  C2  BDP B   1     -15.496   0.373  48.2570  0.00  0.00     0.000 C
ATOM      3  C3  BDP B   1     -14.290   0.698  49.1130  0.00  0.00     0.000 C
ATOM      4  C4  BDP B   1     -13.380  -0.495  49.3830  0.00  0.00     0.000 C
ATOM      5  C5  BDP B   1     -14.151  -1.741  49.8070  0.00  0.00     0.000 C
ATOM      6  O5  BDP B   1     -15.540  -1.668  49.4450  0.00  0.00     0.000 O
ATOM      7   O  BDP B   1     -15.324   0.935  46.9520  0.00  0.00     0.000 O
ATOM      9  HD  BDP B   1     -15.554   1.007  46.1200  0.00  0.00     0.000 HD
ATOM      9   O  BDP B   1     -14.715   1.218  50.3820  0.00  0.00     0.000 O
ATOM     11  HD  BDP B   1     -14.945   1.290  49.5500  0.00  0.00     0.000 HD
ATOM     11   O  BDP B   1     -12.585  -0.788  48.2270  0.00  0.00     0.000 O
ATOM     13  HD  BDP B   1     -12.814  -0.716  47.3950  0.00  0.00     0.000 HD
ENDROOT
BRANCH 5 13
ATOM     13   C  BDP B   1     -14.022  -1.857  51.2850  0.00  0.00     0.000 C
ATOM     14   O  BDP B   1     -14.979  -2.343  51.9240  0.00  0.00     0.000 OA
ATOM     15   O  BDP B   1     -12.960  -1.492  51.8340  0.00  0.00     0.000 OA
ENDBRANCH 5 13
BRANCH 1 16
ATOM     16  O3  NAG B   2     -15.786  -1.972  47.0040  0.00  0.00     0.000 O
BRANCH 16 19
ATOM     17  C1  NAG B   2     -17.326  -5.271  47.0160  0.00  0.00     0.000 C
ATOM     18  C2  NAG B   2     -17.453  -3.748  46.9640  0.00  0.00     0.000 C
ATOM     19  C3  NAG B   2     -16.232  -3.131  46.2980  0.00  0.00     0.000 C
ATOM     20  C4  NAG B   2     -15.083  -4.136  46.1780  0.00  0.00     0.000 C
ATOM     21  C5  NAG B   2     -14.959  -5.127  47.3430  0.00  0.00     0.000 C
ATOM     22  O5  NAG B   2     -16.223  -5.526  47.8890  0.00  0.00     0.000 O
ATOM     23   O  NAG B   2     -15.232  -4.851  44.9470  0.00  0.00     0.000 O
ATOM     25  HD  NAG B   2     -16.092  -4.929  45.0150  0.00  0.00     0.000 HD
ATOM     25   C  NAG B   2     -14.105  -4.532  48.4710  0.00  0.00     0.000 C
ATOM     26   O  NAG B   2     -12.704  -4.745  48.2450  0.00  0.00     0.000 O
ATOM     28  HD  NAG B   2     -13.564  -4.823  48.3130  0.00  0.00     0.000 HD
BRANCH 18 30
ATOM     28   N  NAG B   2     -18.285  -4.383  45.9430  0.00  0.00     0.000 N
ATOM     30  HD  NAG B   2     -18.238  -4.795  45.1830  0.00  0.00     0.000 HD
ATOM     30   C  NAG B   2     -19.128  -3.734  45.1270  0.00  0.00     0.000 C
ATOM     31   C  NAG B   2     -19.880  -4.612  44.1670  0.00  0.00     0.000 C
ATOM     32   O  NAG B   2     -19.278  -2.534  45.1420  0.00  0.00     0.000 OA
ENDBRANCH 18 30
BRANCH 17 33
ATOM     33  O4  BDP B   3     -17.658  -6.562  47.5710  0.00  0.00     0.000 O
BRANCH 33 37
ATOM     34  C1  BDP B   3     -20.128  -9.909  46.5980  0.00  0.00     0.000 C
ATOM     35  C2  BDP B   3     -20.829  -8.592  46.9120  0.00  0.00     0.000 C
ATOM     36  C3  BDP B   3     -19.913  -7.377  46.8290  0.00  0.00     0.000 C
ATOM     37  C4  BDP B   3     -18.594  -7.679  47.5580  0.00  0.00     0.000 C
ATOM     38  C5  BDP B   3     -17.997  -8.946  46.9150  0.00  0.00     0.000 C
ATOM     39  O5  BDP B   3     -18.872 -10.013  47.2790  0.00  0.00     0.000 O
ATOM     40   O  BDP B   3     -21.931  -8.501  46.0060  0.00  0.00     0.000 O
ATOM     42  HD  BDP B   3     -22.268  -9.026  46.6080  0.00  0.00     0.000 HD
ATOM     42   O  BDP B   3     -20.616  -6.292  47.4320  0.00  0.00     0.000 O
ATOM     44  HD  BDP B   3     -20.952  -6.816  48.0340  0.00  0.00     0.000 HD
BRANCH 38 44
ATOM     44   C  BDP B   3     -16.601  -9.263  47.3530  0.00  0.00     0.000 C
ATOM     45   O  BDP B   3     -15.709  -9.311  46.4770  0.00  0.00     0.000 OA
ATOM     46   O  BDP B   3     -16.365  -9.470  48.5640  0.00  0.00     0.000 OA
ENDBRANCH 38 44
BRANCH 34 47
ATOM     47  O3  NAG B   4     -20.596 -10.973  47.4240  0.00  0.00     0.000 O
BRANCH 47 50
ATOM     48  C1  NAG B   4     -21.283 -14.252  45.7140  0.00  0.00     0.000 C
ATOM     49  C2  NAG B   4     -21.467 -12.781  46.0460  0.00  0.00     0.000 C
ATOM     50  C3  NAG B   4     -20.398 -12.350  47.0440  0.00  0.00     0.000 C
ATOM     51  C4  NAG B   4     -20.406 -13.226  48.2860  0.00  0.00     0.000 C
ATOM     52  C5  NAG B   4     -20.289 -14.697  47.8850  0.00  0.00     0.000 C
ATOM     53  O5  NAG B   4     -21.296 -15.034  46.9230  0.00  0.00     0.000 O
ATOM     54   O  NAG B   4     -19.318 -12.845  49.1320  0.00  0.00     0.000 O
ATOM     56  HD  NAG B   4     -19.893 -13.351  49.5360  0.00  0.00     0.000 HD
ATOM     56   C  NAG B   4     -20.419 -15.613  49.0960  0.00  0.00     0.000 C
ATOM     57   O  NAG B   4     -21.699 -15.402  49.7070  0.00  0.00     0.000 O
ATOM     59  HD  NAG B   4     -22.275 -15.908  50.1110  0.00  0.00     0.000 HD
BRANCH 49 61
ATOM     59   N  NAG B   4     -21.852 -12.488  44.6660  0.00  0.00     0.000 N
ATOM     61  HD  NAG B   4     -22.232 -12.608  45.4340  0.00  0.00     0.000 HD
ATOM     61   O  NAG B   4     -23.422 -10.936  45.1450  0.00  0.00     0.000 OA
ATOM     62   C  NAG B   4     -22.740 -11.543  44.3320  0.00  0.00     0.000 C
ATOM     63   C  NAG B   4     -22.845 -11.240  42.8710  0.00  0.00     0.000 C
ENDBRANCH 49 61
BRANCH 48 64
ATOM     64  O4  BDP B   5     -21.573 -15.027  44.5540  0.00  0.00     0.000 O
BRANCH 64 68
ATOM     65  C1  BDP B   5     -21.083 -18.370  42.1140  0.00  0.00     0.000 C
ATOM     66  C2  BDP B   5     -19.881 -17.984  42.9650  0.00  0.00     0.000 C
ATOM     67  C3  BDP B   5     -20.325 -17.054  44.0870  0.00  0.00     0.000 C
ATOM     68  C4  BDP B   5     -21.041 -15.839  43.5080  0.00  0.00     0.000 C
ATOM     69  C5  BDP B   5     -22.177 -16.232  42.5730  0.00  0.00     0.000 C
ATOM     70  O5  BDP B   5     -21.724 -17.191  41.6010  0.00  0.00     0.000 O
ATOM     71   O  BDP B   5     -19.253 -19.170  43.4770  0.00  0.00     0.000 O
ATOM     73  HD  BDP B   5     -18.925 -19.914  43.7740  0.00  0.00     0.000 HD
ATOM     73   O  BDP B   5     -19.197 -16.617  44.8540  0.00  0.00     0.000 O
ATOM     75  HD  BDP B   5     -18.870 -17.362  45.1520  0.00  0.00     0.000 HD
BRANCH 69 75
ATOM     75   C  BDP B   5     -22.661 -14.991  41.8680  0.00  0.00     0.000 C
ATOM     76   O  BDP B   5     -23.838 -14.617  42.0510  0.00  0.00     0.000 OA
ATOM     77   O  BDP B   5     -21.875 -14.372  41.1270  0.00  0.00     0.000 OA
ENDBRANCH 69 75
BRANCH 65 78
ATOM     78  O3  NAG B   6     -21.068 -18.692  40.7200  0.00  0.00     0.000 O
BRANCH 78 81
ATOM     79  C1  NAG B   6     -22.018 -21.385  38.2340  0.00  0.00     0.000 C
ATOM     80  C2  NAG B   6     -21.122 -20.599  39.2050  0.00  0.00     0.000 C
ATOM     81  C3  NAG B   6     -21.931 -19.532  39.9230  0.00  0.00     0.000 C
ATOM     82  C4  NAG B   6     -22.714 -18.676  38.9220  0.00  0.00     0.000 C
ATOM     83  C5  NAG B   6     -23.565 -19.581  38.0380  0.00  0.00     0.000 C
ATOM     84  O5  NAG B   6     -22.681 -20.466  37.3480  0.00  0.00     0.000 O
BRANCH 80 87
ATOM     85   N  NAG B   6     -19.766 -21.129  39.3290  0.00  0.00     0.000 N
ATOM     87  HD  NAG B   6     -18.955 -21.049  39.6220  0.00  0.00     0.000 HD
ATOM     87   C  NAG B   6     -19.212 -21.504  40.4880  0.00  0.00     0.000 C
ATOM     88   C  NAG B   6     -17.824 -22.054  40.3950  0.00  0.00     0.000 C
ATOM     89   O  NAG B   6     -19.793 -21.424  41.5640  0.00  0.00     0.000 OA
ENDBRANCH 80 87
ATOM     90   O  NAG B   6     -25.797 -18.948  37.3570  0.00  0.00     0.000 O
ATOM     92  HD  NAG B   6     -25.264 -19.605  37.5440  0.00  0.00     0.000 HD
ATOM     92   O  NAG B   6     -25.797 -18.948  37.3570  0.00  0.00     0.000 O
ATOM     94  HD  NAG B   6     -25.264 -19.605  37.5440  0.00  0.00     0.000 HD
ENDBRANCH 78 81
ENDBRANCH 65 78
ENDBRANCH 64 68
ENDBRANCH 48 64
ENDBRANCH 47 50
ENDBRANCH 34 47
ENDBRANCH 33 37
ENDBRANCH 17 33
ENDBRANCH 16 19
ENDBRANCH 1 16
TORSDOF 16
ENDMDL
MODEL 16
REMARK VINA RESULT:     -10.6     32.717     38.828
ROOT
ATOM      1  C1  BDP B   1       2.282 -38.287  43.8680  0.00  0.00     0.000 C
ATOM      2  C2  BDP B   1       2.625 -36.827  43.6300  0.00  0.00     0.000 C
ATOM      3  C3  BDP B   1       3.352 -36.620  42.3180  0.00  0.00     0.000 C
ATOM      4  C4  BDP B   1       3.276 -37.811  41.3700  0.00  0.00     0.000 C
ATOM      5  C5  BDP B   1       3.569 -39.138  42.0640  0.00  0.00     0.000 C
ATOM      6  O5  BDP B   1       3.420 -39.047  43.4910  0.00  0.00     0.000 O
ATOM      7   O  BDP B   1       1.431 -36.037  43.6480  0.00  0.00     0.000 O
ATOM      9  HD  BDP B   1       0.665 -35.826  43.9920  0.00  0.00     0.000 HD
ATOM      9   O  BDP B   1       4.741 -36.348  42.5660  0.00  0.00     0.000 O
ATOM     11  HD  BDP B   1       3.975 -36.137  42.9100  0.00  0.00     0.000 HD
ATOM     11   O  BDP B   1       1.989 -37.868  40.7420  0.00  0.00     0.000 O
ATOM     13  HD  BDP B   1       1.223 -37.657  41.0870  0.00  0.00     0.000 HD
ENDROOT
BRANCH 5 13
ATOM     13   C  BDP B   1       4.971 -39.510  41.7280  0.00  0.00     0.000 C
ATOM     14   O  BDP B   1       5.579 -38.818  40.8850  0.00  0.00     0.000 OA
ATOM     15   O  BDP B   1       5.500 -40.478  42.3150  0.00  0.00     0.000 OA
ENDBRANCH 5 13
BRANCH 1 16
ATOM     16  O3  NAG B   2       1.021 -38.921  44.0750  0.00  0.00     0.000 O
BRANCH 16 19
ATOM     17  C1  NAG B   2      -2.331 -40.304  44.4040  0.00  0.00     0.000 C
ATOM     18  C2  NAG B   2      -0.827 -40.503  44.2080  0.00  0.00     0.000 C
ATOM     19  C3  NAG B   2      -0.047 -39.394  44.8980  0.00  0.00     0.000 C
ATOM     20  C4  NAG B   2      -0.952 -38.224  45.2930  0.00  0.00     0.000 C
ATOM     21  C5  NAG B   2      -2.095 -37.924  44.3130  0.00  0.00     0.000 C
ATOM     22  O5  NAG B   2      -2.644 -39.099  43.7030  0.00  0.00     0.000 O
ATOM     23   O  NAG B   2      -1.485 -38.481  46.5960  0.00  0.00     0.000 O
ATOM     25  HD  NAG B   2      -1.624 -39.323  46.4490  0.00  0.00     0.000 HD
ATOM     25   C  NAG B   2      -1.622 -36.973  43.2040  0.00  0.00     0.000 C
ATOM     26   O  NAG B   2      -1.715 -35.599  43.6080  0.00  0.00     0.000 O
ATOM     28  HD  NAG B   2      -1.854 -36.442  43.4620  0.00  0.00     0.000 HD
BRANCH 18 30
ATOM     28   N  NAG B   2      -0.557 -41.073  45.5270  0.00  0.00     0.000 N
ATOM     30  HD  NAG B   2       0.086 -41.225  46.0870  0.00  0.00     0.000 HD
ATOM     30   C  NAG B   2      -0.642 -42.375  45.8330  0.00  0.00     0.000 C
ATOM     31   C  NAG B   2      -0.325 -42.711  47.2630  0.00  0.00     0.000 C
ATOM     32   O  NAG B   2      -0.944 -43.229  45.0320  0.00  0.00     0.000 OA
ENDBRANCH 18 30
BRANCH 17 33
ATOM     33  O4  BDP B   3      -3.707 -40.515  44.0210  0.00  0.00     0.000 O
BRANCH 33 37
ATOM     34  C1  BDP B   3      -7.532 -42.072  45.1120  0.00  0.00     0.000 C
ATOM     35  C2  BDP B   3      -6.307 -42.737  45.7290  0.00  0.00     0.000 C
ATOM     36  C3  BDP B   3      -5.043 -41.889  45.6410  0.00  0.00     0.000 C
ATOM     37  C4  BDP B   3      -4.910 -41.313  44.2230  0.00  0.00     0.000 C
ATOM     38  C5  BDP B   3      -6.201 -40.526  43.9260  0.00  0.00     0.000 C
ATOM     39  O5  BDP B   3      -7.235 -41.505  43.8300  0.00  0.00     0.000 O
ATOM     40   O  BDP B   3      -6.658 -43.047  47.0790  0.00  0.00     0.000 O
ATOM     42  HD  BDP B   3      -7.028 -43.713  46.6660  0.00  0.00     0.000 HD
ATOM     42   O  BDP B   3      -3.951 -42.747  45.9700  0.00  0.00     0.000 O
ATOM     44  HD  BDP B   3      -4.321 -43.412  45.5580  0.00  0.00     0.000 HD
BRANCH 38 44
ATOM     44   C  BDP B   3      -6.154 -39.713  42.6710  0.00  0.00     0.000 C
ATOM     45   O  BDP B   3      -6.413 -40.288  41.5910  0.00  0.00     0.000 OA
ATOM     46   O  BDP B   3      -5.862 -38.499  42.7310  0.00  0.00     0.000 OA
ENDBRANCH 38 44
BRANCH 34 47
ATOM     47  O3  NAG B   4      -8.365 -43.012  44.4360  0.00  0.00     0.000 O
BRANCH 47 50
ATOM     48  C1  NAG B   4     -12.048 -43.073  45.2000  0.00  0.00     0.000 C
ATOM     49  C2  NAG B   4     -10.564 -43.286  45.4440  0.00  0.00     0.000 C
ATOM     50  C3  NAG B   4      -9.773 -42.758  44.2530  0.00  0.00     0.000 C
ATOM     51  C4  NAG B   4     -10.238 -43.388  42.9500  0.00  0.00     0.000 C
ATOM     52  C5  NAG B   4     -11.747 -43.203  42.7920  0.00  0.00     0.000 C
ATOM     53  O5  NAG B   4     -12.433 -43.686  43.9540  0.00  0.00     0.000 O
ATOM     54   O  NAG B   4      -9.538 -42.778  41.8620  0.00  0.00     0.000 O
ATOM     56  HD  NAG B   4      -9.944 -43.507  41.6300  0.00  0.00     0.000 HD
ATOM     56   C  NAG B   4     -12.269 -43.931  41.5590  0.00  0.00     0.000 C
ATOM     57   O  NAG B   4     -11.986 -45.331  41.6870  0.00  0.00     0.000 O
ATOM     59  HD  NAG B   4     -12.392 -46.060  41.4550  0.00  0.00     0.000 HD
BRANCH 49 61
ATOM     59   N  NAG B   4     -10.591 -42.869  46.8470  0.00  0.00     0.000 N
ATOM     61  HD  NAG B   4     -10.623 -43.601  46.3860  0.00  0.00     0.000 HD
ATOM     61   O  NAG B   4      -9.230 -44.489  47.6380  0.00  0.00     0.000 OA
ATOM     62   C  NAG B   4      -9.867 -43.459  47.8050  0.00  0.00     0.000 C
ATOM     63   C  NAG B   4      -9.858 -42.764  49.1300  0.00  0.00     0.000 C
ENDBRANCH 49 61
BRANCH 48 64
ATOM     64  O4  BDP B   5     -13.153 -42.858  46.0720  0.00  0.00     0.000 O
BRANCH 64 68
ATOM     65  C1  BDP B   5     -14.235 -39.282  47.9210  0.00  0.00     0.000 C
ATOM     66  C2  BDP B   5     -14.360 -40.538  48.7730  0.00  0.00     0.000 C
ATOM     67  C3  BDP B   5     -13.549 -41.665  48.1470  0.00  0.00     0.000 C
ATOM     68  C4  BDP B   5     -13.993 -41.894  46.7060  0.00  0.00     0.000 C
ATOM     69  C5  BDP B   5     -13.965 -40.611  45.8860  0.00  0.00     0.000 C
ATOM     70  O5  BDP B   5     -14.657 -39.555  46.5750  0.00  0.00     0.000 O
ATOM     71   O  BDP B   5     -13.930 -40.256  50.1130  0.00  0.00     0.000 O
ATOM     73  HD  BDP B   5     -13.642 -40.038  50.9000  0.00  0.00     0.000 HD
ATOM     73   O  BDP B   5     -13.716 -42.878  48.8910  0.00  0.00     0.000 O
ATOM     75  HD  BDP B   5     -13.427 -42.660  49.6770  0.00  0.00     0.000 HD
BRANCH 69 75
ATOM     75   C  BDP B   5     -14.642 -40.878  44.5660  0.00  0.00     0.000 C
ATOM     76   O  BDP B   5     -14.068 -40.526  43.5150  0.00  0.00     0.000 OA
ATOM     77   O  BDP B   5     -15.750 -41.445  44.5600  0.00  0.00     0.000 OA
ENDBRANCH 69 75
BRANCH 65 78
ATOM     78  O3  NAG B   6     -15.215 -38.251  47.7790  0.00  0.00     0.000 O
BRANCH 78 81
ATOM     79  C1  NAG B   6     -15.701 -34.550  48.4110  0.00  0.00     0.000 C
ATOM     80  C2  NAG B   6     -15.696 -36.056  48.7200  0.00  0.00     0.000 C
ATOM     81  C3  NAG B   6     -15.084 -36.829  47.5630  0.00  0.00     0.000 C
ATOM     82  C4  NAG B   6     -15.743 -36.438  46.2360  0.00  0.00     0.000 C
ATOM     83  C5  NAG B   6     -15.663 -34.927  46.0570  0.00  0.00     0.000 C
ATOM     84  O5  NAG B   6     -16.356 -34.324  47.1510  0.00  0.00     0.000 O
BRANCH 80 87
ATOM     85   N  NAG B   6     -16.178 -36.526  50.0160  0.00  0.00     0.000 N
ATOM     87  HD  NAG B   6     -16.331 -37.177  50.5670  0.00  0.00     0.000 HD
ATOM     87   C  NAG B   6     -15.398 -37.091  50.9460  0.00  0.00     0.000 C
ATOM     88   C  NAG B   6     -16.079 -37.472  52.2210  0.00  0.00     0.000 C
ATOM     89   O  NAG B   6     -14.197 -37.278  50.7860  0.00  0.00     0.000 OA
ENDBRANCH 80 87
ATOM     90   O  NAG B   6     -15.230 -33.930  43.8970  0.00  0.00     0.000 O
ATOM     92  HD  NAG B   6     -15.138 -33.850  44.7540  0.00  0.00     0.000 HD
ATOM     92   O  NAG B   6     -15.230 -33.930  43.8970  0.00  0.00     0.000 O
ATOM     94  HD  NAG B   6     -15.138 -33.850  44.7540  0.00  0.00     0.000 HD
ENDBRANCH 78 81
ENDBRANCH 65 78
ENDBRANCH 64 68
ENDBRANCH 48 64
ENDBRANCH 47 50
ENDBRANCH 34 47
ENDBRANCH 33 37
ENDBRANCH 17 33
ENDBRANCH 16 19
ENDBRANCH 1 16
TORSDOF 16
ENDMDL
MODEL 17
REMARK VINA RESULT:     -10.5      9.394     19.304
ROOT
ATOM      1  C1  BDP B   1      14.675  -4.144  33.8770  0.00  0.00     0.000 C
ATOM      2  C2  BDP B   1      15.515  -4.043  35.1380  0.00  0.00     0.000 C
ATOM      3  C3  BDP B   1      16.339  -2.774  35.1740  0.00  0.00     0.000 C
ATOM      4  C4  BDP B   1      15.907  -1.723  34.1580  0.00  0.00     0.000 C
ATOM      5  C5  BDP B   1      15.685  -2.305  32.7650  0.00  0.00     0.000 C
ATOM      6  O5  BDP B   1      15.498  -3.730  32.7960  0.00  0.00     0.000 O
ATOM      7   O  BDP B   1      14.669  -4.100  36.2910  0.00  0.00     0.000 O
ATOM      9  HD  BDP B   1      14.006  -4.442  36.7310  0.00  0.00     0.000 HD
ATOM      9   O  BDP B   1      17.720  -3.080  34.9240  0.00  0.00     0.000 O
ATOM     11  HD  BDP B   1      17.057  -3.422  35.3640  0.00  0.00     0.000 HD
ATOM     11   O  BDP B   1      14.716  -1.060  34.6000  0.00  0.00     0.000 O
ATOM     13  HD  BDP B   1      14.053  -1.402  35.0400  0.00  0.00     0.000 HD
ENDROOT
BRANCH 5 13
ATOM     13   C  BDP B   1      16.887  -1.973  31.9520  0.00  0.00     0.000 C
ATOM     14   O  BDP B   1      17.709  -1.157  32.4200  0.00  0.00     0.000 OA
ATOM     15   O  BDP B   1      17.050  -2.537  30.8490  0.00  0.00     0.000 OA
ENDBRANCH 5 13
BRANCH 1 16
ATOM     16  O3  NAG B   2      13.264  -4.261  33.7100  0.00  0.00     0.000 O
BRANCH 16 19
ATOM     17  C1  NAG B   2       9.645  -4.360  33.3160  0.00  0.00     0.000 C
ATOM     18  C2  NAG B   2      11.047  -4.403  32.7080  0.00  0.00     0.000 C
ATOM     19  C3  NAG B   2      12.041  -5.000  33.6940  0.00  0.00     0.000 C
ATOM     20  C4  NAG B   2      11.462  -5.071  35.1090  0.00  0.00     0.000 C
ATOM     21  C5  NAG B   2      10.533  -3.910  35.4930  0.00  0.00     0.000 C
ATOM     22  O5  NAG B   2       9.737  -3.434  34.4020  0.00  0.00     0.000 O
ATOM     23   O  NAG B   2      10.768  -6.315  35.2550  0.00  0.00     0.000 O
ATOM     25  HD  NAG B   2      10.416  -6.291  34.4640  0.00  0.00     0.000 HD
ATOM     25   C  NAG B   2      11.343  -2.734  36.0580  0.00  0.00     0.000 C
ATOM     26   O  NAG B   2      11.597  -2.890  37.4610  0.00  0.00     0.000 O
ATOM     28  HD  NAG B   2      11.245  -2.867  36.6700  0.00  0.00     0.000 HD
BRANCH 18 30
ATOM     28   N  NAG B   2      10.214  -5.486  32.1870  0.00  0.00     0.000 N
ATOM     30  HD  NAG B   2       9.880  -6.255  32.4020  0.00  0.00     0.000 HD
ATOM     30   C  NAG B   2      10.570  -6.324  31.2030  0.00  0.00     0.000 C
ATOM     31   C  NAG B   2       9.533  -7.348  30.8390  0.00  0.00     0.000 C
ATOM     32   O  NAG B   2      11.642  -6.280  30.6450  0.00  0.00     0.000 OA
ENDBRANCH 18 30
BRANCH 17 33
ATOM     33  O4  BDP B   3       8.302  -3.835  33.3930  0.00  0.00     0.000 O
BRANCH 33 37
ATOM     34  C1  BDP B   3       5.138  -0.969  33.2640  0.00  0.00     0.000 C
ATOM     35  C2  BDP B   3       6.137  -0.956  32.1130  0.00  0.00     0.000 C
ATOM     36  C3  BDP B   3       6.957  -2.237  32.0020  0.00  0.00     0.000 C
ATOM     37  C4  BDP B   3       7.470  -2.638  33.3940  0.00  0.00     0.000 C
ATOM     38  C5  BDP B   3       6.241  -2.772  34.3130  0.00  0.00     0.000 C
ATOM     39  O5  BDP B   3       5.734  -1.447  34.4760  0.00  0.00     0.000 O
ATOM     40   O  BDP B   3       5.380  -0.695  30.9300  0.00  0.00     0.000 O
ATOM     42  HD  BDP B   3       5.463   0.109  31.2410  0.00  0.00     0.000 HD
ATOM     42   O  BDP B   3       8.028  -1.961  31.1020  0.00  0.00     0.000 O
ATOM     44  HD  BDP B   3       8.111  -1.157  31.4120  0.00  0.00     0.000 HD
BRANCH 38 44
ATOM     44   C  BDP B   3       6.532  -3.371  35.6530  0.00  0.00     0.000 C
ATOM     45   O  BDP B   3       6.038  -4.490  35.9150  0.00  0.00     0.000 OA
ATOM     46   O  BDP B   3       7.250  -2.749  36.4660  0.00  0.00     0.000 OA
ENDBRANCH 38 44
BRANCH 34 47
ATOM     47  O3  NAG B   4       5.032   0.307  33.8920  0.00  0.00     0.000 O
BRANCH 47 50
ATOM     48  C1  NAG B   4       1.943   2.447  34.0680  0.00  0.00     0.000 C
ATOM     49  C2  NAG B   4       3.240   1.907  33.4920  0.00  0.00     0.000 C
ATOM     50  C3  NAG B   4       3.765   0.789  34.3850  0.00  0.00     0.000 C
ATOM     51  C4  NAG B   4       3.923   1.250  35.8250  0.00  0.00     0.000 C
ATOM     52  C5  NAG B   4       2.607   1.847  36.3270  0.00  0.00     0.000 C
ATOM     53  O5  NAG B   4       2.148   2.867  35.4310  0.00  0.00     0.000 O
ATOM     54   O  NAG B   4       4.311   0.136  36.6320  0.00  0.00     0.000 O
ATOM     56  HD  NAG B   4       4.418   0.894  37.0370  0.00  0.00     0.000 HD
ATOM     56   C  NAG B   4       2.763   2.435  37.7240  0.00  0.00     0.000 C
ATOM     57   O  NAG B   4       3.755   3.469  37.6890  0.00  0.00     0.000 O
ATOM     59  HD  NAG B   4       3.862   4.227  38.0940  0.00  0.00     0.000 HD
BRANCH 49 61
ATOM     59   N  NAG B   4       3.839   3.214  33.2190  0.00  0.00     0.000 N
ATOM     61  HD  NAG B   4       4.039   2.376  33.1290  0.00  0.00     0.000 HD
ATOM     61   O  NAG B   4       4.687   2.706  31.1880  0.00  0.00     0.000 OA
ATOM     62   C  NAG B   4       4.444   3.521  32.0650  0.00  0.00     0.000 C
ATOM     63   C  NAG B   4       4.803   4.963  31.8870  0.00  0.00     0.000 C
ENDBRANCH 49 61
BRANCH 48 64
ATOM     64  O4  BDP B   5       0.794   3.044  33.4750  0.00  0.00     0.000 O
BRANCH 64 68
ATOM     65  C1  BDP B   5       0.839   6.341  30.9260  0.00  0.00     0.000 C
ATOM     66  C2  BDP B   5       0.401   6.612  32.3590  0.00  0.00     0.000 C
ATOM     67  C3  BDP B   5       0.836   5.460  33.2540  0.00  0.00     0.000 C
ATOM     68  C4  BDP B   5       0.286   4.142  32.7180  0.00  0.00     0.000 C
ATOM     69  C5  BDP B   5       0.639   3.926  31.2520  0.00  0.00     0.000 C
ATOM     70  O5  BDP B   5       0.302   5.088  30.4740  0.00  0.00     0.000 O
ATOM     71   O  BDP B   5       0.948   7.864  32.8010  0.00  0.00     0.000 O
ATOM     73  HD  BDP B   5       1.319   8.614  33.0240  0.00  0.00     0.000 HD
ATOM     73   O  BDP B   5       0.366   5.658  34.5930  0.00  0.00     0.000 O
ATOM     75  HD  BDP B   5       0.737   6.408  34.8160  0.00  0.00     0.000 HD
BRANCH 69 75
ATOM     75   C  BDP B   5      -0.140   2.738  30.7480  0.00  0.00     0.000 C
ATOM     76   O  BDP B   5      -1.271   2.517  31.2240  0.00  0.00     0.000 OA
ATOM     77   O  BDP B   5       0.365   2.015  29.8690  0.00  0.00     0.000 OA
ENDBRANCH 69 75
BRANCH 65 78
ATOM     78  O3  NAG B   6       0.182   6.792  29.7380  0.00  0.00     0.000 O
BRANCH 78 81
ATOM     79  C1  NAG B   6       1.284   8.591  26.5940  0.00  0.00     0.000 C
ATOM     80  C2  NAG B   6       0.937   8.411  28.0810  0.00  0.00     0.000 C
ATOM     81  C3  NAG B   6       0.658   6.948  28.3830  0.00  0.00     0.000 C
ATOM     82  C4  NAG B   6      -0.368   6.374  27.4000  0.00  0.00     0.000 C
ATOM     83  C5  NAG B   6       0.111   6.611  25.9720  0.00  0.00     0.000 C
ATOM     84  O5  NAG B   6       0.238   8.022  25.7880  0.00  0.00     0.000 O
BRANCH 80 87
ATOM     85   N  NAG B   6       0.912   9.501  29.0520  0.00  0.00     0.000 N
ATOM     87  HD  NAG B   6       0.861   9.770  29.8740  0.00  0.00     0.000 HD
ATOM     87   C  NAG B   6       1.867   9.711  29.9670  0.00  0.00     0.000 C
ATOM     88   C  NAG B   6       1.670  10.904  30.8480  0.00  0.00     0.000 C
ATOM     89   O  NAG B   6       2.852   8.992  30.0810  0.00  0.00     0.000 OA
ENDBRANCH 80 87
ATOM     90   O  NAG B   6      -0.198   4.950  24.2420  0.00  0.00     0.000 O
ATOM     92  HD  NAG B   6       0.298   5.598  24.5330  0.00  0.00     0.000 HD
ATOM     92   O  NAG B   6      -0.198   4.950  24.2420  0.00  0.00     0.000 O
ATOM     94  HD  NAG B   6       0.298   5.598  24.5330  0.00  0.00     0.000 HD
ENDBRANCH 78 81
ENDBRANCH 65 78
ENDBRANCH 64 68
ENDBRANCH 48 64
ENDBRANCH 47 50
ENDBRANCH 34 47
ENDBRANCH 33 37
ENDBRANCH 17 33
ENDBRANCH 16 19
ENDBRANCH 1 16
TORSDOF 16
ENDMDL
MODEL 18
REMARK VINA RESULT:     -10.4      9.466     19.460
ROOT
ATOM      1  C1  BDP B   1      27.241  -9.584  26.6000  0.00  0.00     0.000 C
ATOM      2  C2  BDP B   1      28.122  -8.348  26.6180  0.00  0.00     0.000 C
ATOM      3  C3  BDP B   1      27.547  -7.226  25.7800  0.00  0.00     0.000 C
ATOM      4  C4  BDP B   1      26.084  -7.422  25.3970  0.00  0.00     0.000 C
ATOM      5  C5  BDP B   1      25.794  -8.826  24.8760  0.00  0.00     0.000 C
ATOM      6  O5  BDP B   1      26.811  -9.768  25.2590  0.00  0.00     0.000 O
ATOM      7   O  BDP B   1      28.302  -7.898  27.9650  0.00  0.00     0.000 O
ATOM      9  HD  BDP B   1      28.459  -8.052  28.8030  0.00  0.00     0.000 HD
ATOM      9   O  BDP B   1      28.300  -7.086  24.5650  0.00  0.00     0.000 O
ATOM     11  HD  BDP B   1      28.457  -7.240  25.4020  0.00  0.00     0.000 HD
ATOM     11   O  BDP B   1      25.233  -7.136  26.5140  0.00  0.00     0.000 O
ATOM     13  HD  BDP B   1      25.390  -7.290  27.3510  0.00  0.00     0.000 HD
ENDROOT
BRANCH 5 13
ATOM     13   C  BDP B   1      25.723  -8.739  23.3920  0.00  0.00     0.000 C
ATOM     14   O  BDP B   1      24.598  -8.632  22.8600  0.00  0.00     0.000 OA
ATOM     15   O  BDP B   1      26.784  -8.750  22.7310  0.00  0.00     0.000 OA
ENDBRANCH 5 13
BRANCH 1 16
ATOM     16  O3  NAG B   2      26.607 -10.287  27.6670  0.00  0.00     0.000 O
BRANCH 16 19
ATOM     17  C1  NAG B   2      24.586  -9.243  30.5100  0.00  0.00     0.000 C
ATOM     18  C2  NAG B   2      24.874  -9.222  29.0080  0.00  0.00     0.000 C
ATOM     19  C3  NAG B   2      25.527 -10.525  28.5700  0.00  0.00     0.000 C
ATOM     20  C4  NAG B   2      26.024 -11.341  29.7670  0.00  0.00     0.000 C
ATOM     21  C5  NAG B   2      26.569 -10.513  30.9390  0.00  0.00     0.000 C
ATOM     22  O5  NAG B   2      25.870  -9.279  31.1370  0.00  0.00     0.000 O
ATOM     23   O  NAG B   2      24.956 -12.179  30.2210  0.00  0.00     0.000 O
ATOM     25  HD  NAG B   2      24.345 -11.574  30.1210  0.00  0.00     0.000 HD
ATOM     25   C  NAG B   2      28.060 -10.205  30.7360  0.00  0.00     0.000 C
ATOM     26   O  NAG B   2      28.892 -11.275  31.2080  0.00  0.00     0.000 O
ATOM     28  HD  NAG B   2      28.280 -10.669  31.1080  0.00  0.00     0.000 HD
BRANCH 18 30
ATOM     28   N  NAG B   2      23.457  -9.469  29.2710  0.00  0.00     0.000 N
ATOM     30  HD  NAG B   2      22.910 -10.080  29.5470  0.00  0.00     0.000 HD
ATOM     30   C  NAG B   2      22.506  -9.557  28.3300  0.00  0.00     0.000 C
ATOM     31   C  NAG B   2      21.120  -9.805  28.8530  0.00  0.00     0.000 C
ATOM     32   O  NAG B   2      22.729  -9.454  27.1460  0.00  0.00     0.000 OA
ENDBRANCH 18 30
BRANCH 17 33
ATOM     33  O4  BDP B   3      24.336  -8.586  31.7710  0.00  0.00     0.000 O
BRANCH 33 37
ATOM     34  C1  BDP B   3      21.413  -5.758  33.0760  0.00  0.00     0.000 C
ATOM     35  C2  BDP B   3      22.789  -5.217  32.7040  0.00  0.00     0.000 C
ATOM     36  C3  BDP B   3      23.619  -6.183  31.8660  0.00  0.00     0.000 C
ATOM     37  C4  BDP B   3      23.541  -7.590  32.4790  0.00  0.00     0.000 C
ATOM     38  C5  BDP B   3      22.050  -7.971  32.5620  0.00  0.00     0.000 C
ATOM     39  O5  BDP B   3      21.486  -7.108  33.5490  0.00  0.00     0.000 O
ATOM     40   O  BDP B   3      22.563  -3.976  32.0340  0.00  0.00     0.000 O
ATOM     42  HD  BDP B   3      22.493  -3.721  32.8580  0.00  0.00     0.000 HD
ATOM     42   O  BDP B   3      24.954  -5.680  31.8610  0.00  0.00     0.000 O
ATOM     44  HD  BDP B   3      24.884  -5.425  32.6860  0.00  0.00     0.000 HD
BRANCH 38 44
ATOM     44   C  BDP B   3      21.796  -9.399  32.9320  0.00  0.00     0.000 C
ATOM     45   O  BDP B   3      21.548 -10.207  32.0110  0.00  0.00     0.000 OA
ATOM     46   O  BDP B   3      21.837  -9.743  34.1340  0.00  0.00     0.000 OA
ENDBRANCH 38 44
BRANCH 34 47
ATOM     47  O3  NAG B   4      21.030  -5.379  34.3960  0.00  0.00     0.000 O
BRANCH 47 50
ATOM     48  C1  NAG B   4      17.766  -3.574  34.8830  0.00  0.00     0.000 C
ATOM     49  C2  NAG B   4      19.208  -3.765  34.4460  0.00  0.00     0.000 C
ATOM     50  C3  NAG B   4      19.642  -5.196  34.7420  0.00  0.00     0.000 C
ATOM     51  C4  NAG B   4      19.432  -5.553  36.2050  0.00  0.00     0.000 C
ATOM     52  C5  NAG B   4      17.983  -5.274  36.6050  0.00  0.00     0.000 C
ATOM     53  O5  NAG B   4      17.623  -3.927  36.2720  0.00  0.00     0.000 O
ATOM     54   O  NAG B   4      19.752  -6.933  36.3980  0.00  0.00     0.000 O
ATOM     56  HD  NAG B   4      19.687  -6.498  37.1440  0.00  0.00     0.000 HD
ATOM     56   C  NAG B   4      17.766  -5.502  38.0960  0.00  0.00     0.000 C
ATOM     57   O  NAG B   4      18.625  -4.622  38.8330  0.00  0.00     0.000 O
ATOM     59  HD  NAG B   4      18.560  -4.187  39.5790  0.00  0.00     0.000 HD
BRANCH 49 61
ATOM     59   N  NAG B   4      19.611  -2.460  34.9720  0.00  0.00     0.000 N
ATOM     61  HD  NAG B   4      19.975  -3.148  34.5920  0.00  0.00     0.000 HD
ATOM     61   O  NAG B   4      21.027  -1.918  33.2980  0.00  0.00     0.000 OA
ATOM     62   C  NAG B   4      20.426  -1.622  34.3200  0.00  0.00     0.000 C
ATOM     63   C  NAG B   4      20.552  -0.253  34.9100  0.00  0.00     0.000 C
ENDBRANCH 49 61
BRANCH 48 64
ATOM     64  O4  BDP B   5      16.716  -2.730  34.4200  0.00  0.00     0.000 O
BRANCH 64 68
ATOM     65  C1  BDP B   5      13.052  -4.090  32.9730  0.00  0.00     0.000 C
ATOM     66  C2  BDP B   5      13.973  -3.440  31.9490  0.00  0.00     0.000 C
ATOM     67  C3  BDP B   5      15.394  -3.392  32.4970  0.00  0.00     0.000 C
ATOM     68  C4  BDP B   5      15.414  -2.668  33.8390  0.00  0.00     0.000 C
ATOM     69  C5  BDP B   5      14.414  -3.258  34.8250  0.00  0.00     0.000 C
ATOM     70  O5  BDP B   5      13.115  -3.376  34.2180  0.00  0.00     0.000 O
ATOM     71   O  BDP B   5      13.906  -4.165  30.7120  0.00  0.00     0.000 O
ATOM     73  HD  BDP B   5      13.843  -4.649  29.9960  0.00  0.00     0.000 HD
ATOM     73   O  BDP B   5      16.262  -2.714  31.5810  0.00  0.00     0.000 O
ATOM     75  HD  BDP B   5      16.200  -3.198  30.8660  0.00  0.00     0.000 HD
BRANCH 69 75
ATOM     75   C  BDP B   5      14.329  -2.341  36.0190  0.00  0.00     0.000 C
ATOM     76   O  BDP B   5      14.243  -2.845  37.1570  0.00  0.00     0.000 OA
ATOM     77   O  BDP B   5      14.352  -1.110  35.8370  0.00  0.00     0.000 OA
ENDBRANCH 69 75
BRANCH 65 78
ATOM     78  O3  NAG B   6      11.658  -3.823  33.1510  0.00  0.00     0.000 O
BRANCH 78 81
ATOM     79  C1  NAG B   6       8.775  -6.109  34.0430  0.00  0.00     0.000 C
ATOM     80  C2  NAG B   6       9.941  -5.550  33.2110  0.00  0.00     0.000 C
ATOM     81  C3  NAG B   6      10.661  -4.456  33.9830  0.00  0.00     0.000 C
ATOM     82  C4  NAG B   6       9.669  -3.409  34.5000  0.00  0.00     0.000 C
ATOM     83  C5  NAG B   6       8.581  -4.100  35.3130  0.00  0.00     0.000 C
ATOM     84  O5  NAG B   6       7.919  -5.026  34.4510  0.00  0.00     0.000 O
BRANCH 80 87
ATOM     85   N  NAG B   6      10.452  -5.870  31.8810  0.00  0.00     0.000 N
ATOM     87  HD  NAG B   6      11.110  -5.898  31.3190  0.00  0.00     0.000 HD
ATOM     87   C  NAG B   6      11.356  -6.826  31.6360  0.00  0.00     0.000 C
ATOM     88   C  NAG B   6      11.722  -7.020  30.1990  0.00  0.00     0.000 C
ATOM     89   O  NAG B   6      11.851  -7.519  32.5170  0.00  0.00     0.000 OA
ENDBRANCH 80 87
ATOM     90   O  NAG B   6       7.684  -3.106  37.3270  0.00  0.00     0.000 O
ATOM     92  HD  NAG B   6       7.864  -3.844  36.9110  0.00  0.00     0.000 HD
ATOM     92   O  NAG B   6       7.684  -3.106  37.3270  0.00  0.00     0.000 O
ATOM     94  HD  NAG B   6       7.864  -3.844  36.9110  0.00  0.00     0.000 HD
ENDBRANCH 78 81
ENDBRANCH 65 78
ENDBRANCH 64 68
ENDBRANCH 48 64
ENDBRANCH 47 50
ENDBRANCH 34 47
ENDBRANCH 33 37
ENDBRANCH 17 33
ENDBRANCH 16 19
ENDBRANCH 1 16
TORSDOF 16
ENDMDL
MODEL 19
REMARK VINA RESULT:     -10.3     28.633     33.598
ROOT
ATOM      1  C1  BDP B   1     -14.134  -2.918  50.2870  0.00  0.00     0.000 C
ATOM      2  C2  BDP B   1     -13.579  -1.527  50.5360  0.00  0.00     0.000 C
ATOM      3  C3  BDP B   1     -12.194  -1.353  49.9500  0.00  0.00     0.000 C
ATOM      4  C4  BDP B   1     -11.799  -2.438  48.9550  0.00  0.00     0.000 C
ATOM      5  C5  BDP B   1     -12.109  -3.844  49.4620  0.00  0.00     0.000 C
ATOM      6  O5  BDP B   1     -13.076  -3.836  50.5250  0.00  0.00     0.000 O
ATOM      7   O  BDP B   1     -14.462  -0.545  49.9840  0.00  0.00     0.000 O
ATOM      9  HD  BDP B   1     -15.257  -0.230  49.8460  0.00  0.00     0.000 HD
ATOM      9   O  BDP B   1     -11.215  -1.346  51.0010  0.00  0.00     0.000 O
ATOM     11  HD  BDP B   1     -12.010  -1.031  50.8630  0.00  0.00     0.000 HD
ATOM     11   O  BDP B   1     -12.448  -2.223  47.6970  0.00  0.00     0.000 O
ATOM     13  HD  BDP B   1     -13.243  -1.908  47.5590  0.00  0.00     0.000 HD
ENDROOT
BRANCH 5 13
ATOM     13   C  BDP B   1     -10.830  -4.428  49.9500  0.00  0.00     0.000 C
ATOM     14   O  BDP B   1     -10.854  -5.581  50.4300  0.00  0.00     0.000 OA
ATOM     15   O  BDP B   1      -9.777  -3.764  49.8420  0.00  0.00     0.000 OA
ENDBRANCH 5 13
BRANCH 1 16
ATOM     16  O3  NAG B   2     -15.319  -3.337  49.6120  0.00  0.00     0.000 O
BRANCH 16 19
ATOM     17  C1  NAG B   2     -17.793  -4.794  47.3740  0.00  0.00     0.000 C
ATOM     18  C2  NAG B   2     -17.397  -4.281  48.7590  0.00  0.00     0.000 C
ATOM     19  C3  NAG B   2     -16.356  -3.177  48.6420  0.00  0.00     0.000 C
ATOM     20  C4  NAG B   2     -15.746  -3.118  47.2390  0.00  0.00     0.000 C
ATOM     21  C5  NAG B   2     -15.570  -4.477  46.5470  0.00  0.00     0.000 C
ATOM     22  O5  NAG B   2     -16.614  -5.409  46.8500  0.00  0.00     0.000 O
ATOM     23   O  NAG B   2     -16.556  -2.262  46.4270  0.00  0.00     0.000 O
ATOM     25  HD  NAG B   2     -17.307  -2.557  46.7420  0.00  0.00     0.000 HD
ATOM     25   C  NAG B   2     -14.224  -5.109  46.9300  0.00  0.00     0.000 C
ATOM     26   O  NAG B   2     -13.158  -4.635  46.0940  0.00  0.00     0.000 O
ATOM     28  HD  NAG B   2     -13.909  -4.929  46.4090  0.00  0.00     0.000 HD
BRANCH 18 30
ATOM     28   N  NAG B   2     -18.728  -4.079  49.3290  0.00  0.00     0.000 N
ATOM     30  HD  NAG B   2     -19.541  -4.374  49.2880  0.00  0.00     0.000 HD
ATOM     30   C  NAG B   2     -19.495  -2.999  49.1240  0.00  0.00     0.000 C
ATOM     31   C  NAG B   2     -20.821  -3.022  49.8310  0.00  0.00     0.000 C
ATOM     32   O  NAG B   2     -19.166  -2.072  48.4210  0.00  0.00     0.000 OA
ENDBRANCH 18 30
BRANCH 17 33
ATOM     33  O4  BDP B   3     -18.333  -5.802  46.4920  0.00  0.00     0.000 O
BRANCH 33 37
ATOM     34  C1  BDP B   3     -18.803 -10.037  46.7900  0.00  0.00     0.000 C
ATOM     35  C2  BDP B   3     -18.140  -9.496  45.5280  0.00  0.00     0.000 C
ATOM     36  C3  BDP B   3     -17.629  -8.067  45.6710  0.00  0.00     0.000 C
ATOM     37  C4  BDP B   3     -18.708  -7.203  46.3430  0.00  0.00     0.000 C
ATOM     38  C5  BDP B   3     -19.057  -7.870  47.6870  0.00  0.00     0.000 C
ATOM     39  O5  BDP B   3     -19.718  -9.090  47.3530  0.00  0.00     0.000 O
ATOM     40   O  BDP B   3     -17.094 -10.414  45.2020  0.00  0.00     0.000 O
ATOM     42  HD  BDP B   3     -17.776 -10.834  44.8730  0.00  0.00     0.000 HD
ATOM     42   O  BDP B   3     -17.324  -7.607  44.3560  0.00  0.00     0.000 O
ATOM     44  HD  BDP B   3     -18.006  -8.027  44.0270  0.00  0.00     0.000 HD
BRANCH 38 44
ATOM     44   C  BDP B   3     -19.933  -7.046  48.5780  0.00  0.00     0.000 C
ATOM     45   O  BDP B   3     -20.880  -6.420  48.0510  0.00  0.00     0.000 OA
ATOM     46   O  BDP B   3     -19.701  -7.003  49.8060  0.00  0.00     0.000 OA
ENDBRANCH 38 44
BRANCH 34 47
ATOM     47  O3  NAG B   4     -19.931 -10.857  46.4900  0.00  0.00     0.000 O
BRANCH 47 50
ATOM     48  C1  NAG B   4     -21.097 -13.920  48.3360  0.00  0.00     0.000 C
ATOM     49  C2  NAG B   4     -20.348 -13.121  47.2840  0.00  0.00     0.000 C
ATOM     50  C3  NAG B   4     -20.579 -11.632  47.5190  0.00  0.00     0.000 C
ATOM     51  C4  NAG B   4     -22.061 -11.294  47.5510  0.00  0.00     0.000 C
ATOM     52  C5  NAG B   4     -22.773 -12.177  48.5770  0.00  0.00     0.000 C
ATOM     53  O5  NAG B   4     -22.492 -13.560  48.3260  0.00  0.00     0.000 O
ATOM     54   O  NAG B   4     -22.216  -9.912  47.8820  0.00  0.00     0.000 O
ATOM     56  HD  NAG B   4     -22.944 -10.265  47.5740  0.00  0.00     0.000 HD
ATOM     56   C  NAG B   4     -24.280 -11.954  48.5480  0.00  0.00     0.000 C
ATOM     57   O  NAG B   4     -24.775 -12.274  47.2410  0.00  0.00     0.000 O
ATOM     59  HD  NAG B   4     -25.504 -12.627  46.9330  0.00  0.00     0.000 HD
BRANCH 49 61
ATOM     59   N  NAG B   4     -20.749 -13.993  46.1800  0.00  0.00     0.000 N
ATOM     61  HD  NAG B   4     -20.287 -13.271  46.3030  0.00  0.00     0.000 HD
ATOM     61   O  NAG B   4     -18.761 -14.004  45.1070  0.00  0.00     0.000 OA
ATOM     62   C  NAG B   4     -19.905 -14.417  45.2310  0.00  0.00     0.000 C
ATOM     63   C  NAG B   4     -20.440 -15.469  44.3120  0.00  0.00     0.000 C
ENDBRANCH 49 61
BRANCH 48 64
ATOM     64  O4  BDP B   5     -20.861 -15.188  48.9400  0.00  0.00     0.000 O
BRANCH 64 68
ATOM     65  C1  BDP B   5     -22.092 -18.847  47.3680  0.00  0.00     0.000 C
ATOM     66  C2  BDP B   5     -22.873 -18.342  48.5730  0.00  0.00     0.000 C
ATOM     67  C3  BDP B   5     -22.616 -16.853  48.7640  0.00  0.00     0.000 C
ATOM     68  C4  BDP B   5     -21.120 -16.591  48.8910  0.00  0.00     0.000 C
ATOM     69  C5  BDP B   5     -20.331 -17.190  47.7330  0.00  0.00     0.000 C
ATOM     70  O5  BDP B   5     -20.693 -18.568  47.5350  0.00  0.00     0.000 O
ATOM     71   O  BDP B   5     -24.270 -18.621  48.3930  0.00  0.00     0.000 O
ATOM     73  HD  BDP B   5     -25.102 -18.794  48.2250  0.00  0.00     0.000 HD
ATOM     73   O  BDP B   5     -23.281 -16.374  49.9390  0.00  0.00     0.000 O
ATOM     75  HD  BDP B   5     -24.113 -16.548  49.7710  0.00  0.00     0.000 HD
BRANCH 69 75
ATOM     75   C  BDP B   5     -18.863 -17.097  48.0620  0.00  0.00     0.000 C
ATOM     76   O  BDP B   5     -18.144 -16.335  47.3850  0.00  0.00     0.000 OA
ATOM     77   O  BDP B   5     -18.411 -17.778  49.0020  0.00  0.00     0.000 OA
ENDBRANCH 69 75
BRANCH 65 78
ATOM     78  O3  NAG B   6     -21.574 -20.168  47.1840  0.00  0.00     0.000 O
BRANCH 78 81
ATOM     79  C1  NAG B   6     -21.437 -23.162  44.8710  0.00  0.00     0.000 C
ATOM     80  C2  NAG B   6     -21.889 -22.311  46.0690  0.00  0.00     0.000 C
ATOM     81  C3  NAG B   6     -21.279 -20.921  45.9870  0.00  0.00     0.000 C
ATOM     82  C4  NAG B   6     -19.763 -21.002  45.7810  0.00  0.00     0.000 C
ATOM     83  C5  NAG B   6     -19.463 -21.861  44.5580  0.00  0.00     0.000 C
ATOM     84  O5  NAG B   6     -20.000 -23.162  44.8020  0.00  0.00     0.000 O
BRANCH 80 87
ATOM     85   N  NAG B   6     -23.340 -22.479  46.0870  0.00  0.00     0.000 N
ATOM     87  HD  NAG B   6     -24.037 -22.934  46.3240  0.00  0.00     0.000 HD
ATOM     87   C  NAG B   6     -24.086 -22.426  47.1970  0.00  0.00     0.000 C
ATOM     88   C  NAG B   6     -25.559 -22.589  46.9960  0.00  0.00     0.000 C
ATOM     89   O  NAG B   6     -23.613 -22.242  48.3120  0.00  0.00     0.000 OA
ENDBRANCH 80 87
ATOM     90   O  NAG B   6     -17.682 -21.298  43.0220  0.00  0.00     0.000 O
ATOM     92  HD  NAG B   6     -18.459 -21.669  43.1130  0.00  0.00     0.000 HD
ATOM     92   O  NAG B   6     -17.682 -21.298  43.0220  0.00  0.00     0.000 O
ATOM     94  HD  NAG B   6     -18.459 -21.669  43.1130  0.00  0.00     0.000 HD
ENDBRANCH 78 81
ENDBRANCH 65 78
ENDBRANCH 64 68
ENDBRANCH 48 64
ENDBRANCH 47 50
ENDBRANCH 34 47
ENDBRANCH 33 37
ENDBRANCH 17 33
ENDBRANCH 16 19
ENDBRANCH 1 16
TORSDOF 16
ENDMDL
MODEL 20
REMARK VINA RESULT:     -10.2     11.449     19.860
ROOT
ATOM      1  C1  BDP B   1      -1.492  -8.605  25.4410  0.00  0.00     0.000 C
ATOM      2  C2  BDP B   1      -0.715  -9.890  25.6640  0.00  0.00     0.000 C
ATOM      3  C3  BDP B   1      -0.541 -10.680  24.3840  0.00  0.00     0.000 C
ATOM      4  C4  BDP B   1      -0.848  -9.887  23.1180  0.00  0.00     0.000 C
ATOM      5  C5  BDP B   1      -2.152  -9.102  23.2150  0.00  0.00     0.000 C
ATOM      6  O5  BDP B   1      -2.575  -8.919  24.5770  0.00  0.00     0.000 O
ATOM      7   O  BDP B   1       0.568  -9.592  26.2240  0.00  0.00     0.000 O
ATOM      9  HD  BDP B   1       1.073  -9.162  26.7810  0.00  0.00     0.000 HD
ATOM      9   O  BDP B   1      -1.400 -11.830  24.3970  0.00  0.00     0.000 O
ATOM     11  HD  BDP B   1      -0.896 -11.400  24.9550  0.00  0.00     0.000 HD
ATOM     11   O  BDP B   1       0.231  -8.996  22.8130  0.00  0.00     0.000 O
ATOM     13  HD  BDP B   1       0.736  -8.566  23.3700  0.00  0.00     0.000 HD
ENDROOT
BRANCH 5 13
ATOM     13   C  BDP B   1      -3.186  -9.870  22.4680  0.00  0.00     0.000 C
ATOM     14   O  BDP B   1      -3.206  -9.775  21.2240  0.00  0.00     0.000 OA
ATOM     15   O  BDP B   1      -3.977 -10.601  23.1020  0.00  0.00     0.000 OA
ENDBRANCH 5 13
BRANCH 1 16
ATOM     16  O3  NAG B   2      -1.128  -7.247  25.6840  0.00  0.00     0.000 O
BRANCH 16 19
ATOM     17  C1  NAG B   2      -0.258  -3.847  26.6510  0.00  0.00     0.000 C
ATOM     18  C2  NAG B   2      -0.001  -5.090  25.8000  0.00  0.00     0.000 C
ATOM     19  C3  NAG B   2      -1.300  -5.837  25.5370  0.00  0.00     0.000 C
ATOM     20  C4  NAG B   2      -2.427  -5.356  26.4550  0.00  0.00     0.000 C
ATOM     21  C5  NAG B   2      -1.989  -4.961  27.8720  0.00  0.00     0.000 C
ATOM     22  O5  NAG B   2      -0.697  -4.344  27.9180  0.00  0.00     0.000 O
ATOM     23   O  NAG B   2      -3.085  -4.251  25.8260  0.00  0.00     0.000 O
ATOM     25  HD  NAG B   2      -2.354  -3.890  25.5350  0.00  0.00     0.000 HD
ATOM     25   C  NAG B   2      -1.979  -6.187  28.7970  0.00  0.00     0.000 C
ATOM     26   O  NAG B   2      -3.276  -6.442  29.3540  0.00  0.00     0.000 O
ATOM     28  HD  NAG B   2      -2.545  -6.081  29.0630  0.00  0.00     0.000 HD
BRANCH 18 30
ATOM     28   N  NAG B   2       0.235  -3.879  25.0160  0.00  0.00     0.000 N
ATOM     30  HD  NAG B   2      -0.141  -3.135  24.7780  0.00  0.00     0.000 HD
ATOM     30   C  NAG B   2       0.331  -3.835  23.6790  0.00  0.00     0.000 C
ATOM     31   C  NAG B   2       0.587  -2.469  23.1080  0.00  0.00     0.000 C
ATOM     32   O  NAG B   2       0.218  -4.809  22.9710  0.00  0.00     0.000 OA
ENDBRANCH 18 30
BRANCH 17 33
ATOM     33  O4  BDP B   3       0.172  -2.810  27.5600  0.00  0.00     0.000 O
BRANCH 33 37
ATOM     34  C1  BDP B   3       0.135   1.459  27.4440  0.00  0.00     0.000 C
ATOM     35  C2  BDP B   3       1.365   0.758  26.8810  0.00  0.00     0.000 C
ATOM     36  C3  BDP B   3       1.138  -0.717  26.5680  0.00  0.00     0.000 C
ATOM     37  C4  BDP B   3       0.405  -1.383  27.7430  0.00  0.00     0.000 C
ATOM     38  C5  BDP B   3      -0.898  -0.595  27.9750  0.00  0.00     0.000 C
ATOM     39  O5  BDP B   3      -0.494   0.682  28.4700  0.00  0.00     0.000 O
ATOM     40   O  BDP B   3       1.757   1.502  25.7260  0.00  0.00     0.000 O
ATOM     42  HD  BDP B   3       2.105   1.991  26.3500  0.00  0.00     0.000 HD
ATOM     42   O  BDP B   3       2.425  -1.293  26.3500  0.00  0.00     0.000 O
ATOM     44  HD  BDP B   3       2.773  -0.804  26.9740  0.00  0.00     0.000 HD
BRANCH 38 44
ATOM     44   C  BDP B   3      -1.845  -1.236  28.9410  0.00  0.00     0.000 C
ATOM     45   O  BDP B   3      -1.419  -1.510  30.0850  0.00  0.00     0.000 OA
ATOM     46   O  BDP B   3      -3.019  -1.478  28.5870  0.00  0.00     0.000 OA
ENDBRANCH 38 44
BRANCH 34 47
ATOM     47  O3  NAG B   4       0.475   2.406  28.4540  0.00  0.00     0.000 O
BRANCH 47 50
ATOM     48  C1  NAG B   4      -2.158   4.824  29.6240  0.00  0.00     0.000 C
ATOM     49  C2  NAG B   4      -1.148   4.208  28.6720  0.00  0.00     0.000 C
ATOM     50  C3  NAG B   4      -0.536   2.969  29.3150  0.00  0.00     0.000 C
ATOM     51  C4  NAG B   4       0.072   3.285  30.6730  0.00  0.00     0.000 C
ATOM     52  C5  NAG B   4      -0.969   3.966  31.5620  0.00  0.00     0.000 C
ATOM     53  O5  NAG B   4      -1.532   5.102  30.8920  0.00  0.00     0.000 O
ATOM     54   O  NAG B   4       0.531   2.071  31.2720  0.00  0.00     0.000 O
ATOM     56  HD  NAG B   4       0.838   2.776  31.6700  0.00  0.00     0.000 HD
ATOM     56   C  NAG B   4      -0.360   4.411  32.8860  0.00  0.00     0.000 C
ATOM     57   O  NAG B   4       0.702   5.339  32.6250  0.00  0.00     0.000 O
ATOM     59  HD  NAG B   4       1.009   6.044  33.0230  0.00  0.00     0.000 HD
BRANCH 49 61
ATOM     59   N  NAG B   4      -0.529   5.482  28.3050  0.00  0.00     0.000 N
ATOM     61  HD  NAG B   4      -0.438   4.640  28.1240  0.00  0.00     0.000 HD
ATOM     61   O  NAG B   4      -0.314   5.053  26.0970  0.00  0.00     0.000 OA
ATOM     62   C  NAG B   4      -0.234   5.822  27.0440  0.00  0.00     0.000 C
ATOM     63   C  NAG B   4       0.192   7.242  26.8400  0.00  0.00     0.000 C
ENDBRANCH 49 61
BRANCH 48 64
ATOM     64  O4  BDP B   5      -3.345   5.585  29.4200  0.00  0.00     0.000 O
BRANCH 64 68
ATOM     65  C1  BDP B   5      -7.444   5.472  28.6760  0.00  0.00     0.000 C
ATOM     66  C2  BDP B   5      -6.869   6.835  29.0350  0.00  0.00     0.000 C
ATOM     67  C3  BDP B   5      -5.356   6.817  28.8540  0.00  0.00     0.000 C
ATOM     68  C4  BDP B   5      -4.743   5.692  29.6820  0.00  0.00     0.000 C
ATOM     69  C5  BDP B   5      -5.396   4.346  29.3950  0.00  0.00     0.000 C
ATOM     70  O5  BDP B   5      -6.828   4.451  29.4770  0.00  0.00     0.000 O
ATOM     71   O  BDP B   5      -7.487   7.847  28.2250  0.00  0.00     0.000 O
ATOM     73  HD  BDP B   5      -7.876   8.414  27.6980  0.00  0.00     0.000 HD
ATOM     73   O  BDP B   5      -4.786   8.067  29.2600  0.00  0.00     0.000 O
ATOM     75  HD  BDP B   5      -5.175   8.633  28.7330  0.00  0.00     0.000 HD
BRANCH 69 75
ATOM     75   C  BDP B   5      -4.904   3.354  30.4170  0.00  0.00     0.000 C
ATOM     76   O  BDP B   5      -4.514   2.235  30.0280  0.00  0.00     0.000 OA
ATOM     77   O  BDP B   5      -4.896   3.679  31.6190  0.00  0.00     0.000 OA
ENDBRANCH 69 75
BRANCH 65 78
ATOM     78  O3  NAG B   6      -8.621   4.876  29.2280  0.00  0.00     0.000 O
BRANCH 78 81
ATOM     79  C1  NAG B   6     -11.925   3.694  27.8060  0.00  0.00     0.000 C
ATOM     80  C2  NAG B   6     -10.847   4.694  28.2530  0.00  0.00     0.000 C
ATOM     81  C3  NAG B   6      -9.583   3.957  28.6640  0.00  0.00     0.000 C
ATOM     82  C4  NAG B   6      -9.900   2.848  29.6720  0.00  0.00     0.000 C
ATOM     83  C5  NAG B   6     -10.970   1.929  29.0940  0.00  0.00     0.000 C
ATOM     84  O5  NAG B   6     -12.132   2.720  28.8460  0.00  0.00     0.000 O
BRANCH 80 87
ATOM     85   N  NAG B   6     -11.055   6.139  28.2260  0.00  0.00     0.000 N
ATOM     87  HD  NAG B   6     -10.743   6.942  28.3140  0.00  0.00     0.000 HD
ATOM     87   C  NAG B   6     -10.487   6.961  27.3350  0.00  0.00     0.000 C
ATOM     88   C  NAG B   6     -10.857   8.405  27.4560  0.00  0.00     0.000 C
ATOM     89   O  NAG B   6      -9.722   6.573  26.4600  0.00  0.00     0.000 OA
ENDBRANCH 80 87
ATOM     90   O  NAG B   6     -10.897  -0.465  29.4310  0.00  0.00     0.000 O
ATOM     92  HD  NAG B   6     -11.141   0.177  28.9040  0.00  0.00     0.000 HD
ATOM     92   O  NAG B   6     -10.897  -0.465  29.4310  0.00  0.00     0.000 O
ATOM     94  HD  NAG B   6     -11.141   0.177  28.9040  0.00  0.00     0.000 HD
ENDBRANCH 78 81
ENDBRANCH 65 78
ENDBRANCH 64 68
ENDBRANCH 48 64
ENDBRANCH 47 50
ENDBRANCH 34 47
ENDBRANCH 33 37
ENDBRANCH 17 33
ENDBRANCH 16 19
ENDBRANCH 1 16
TORSDOF 16
ENDMDL
MODEL 21
REMARK VINA RESULT:     -10.1     26.112     30.130
ROOT
ATOM      1  C1  BDP B   1       4.007   9.632  47.5820  0.00  0.00     0.000 C
ATOM      2  C2  BDP B   1       4.309  11.069  47.1940  0.00  0.00     0.000 C
ATOM      3  C3  BDP B   1       3.157  11.999  47.5100  0.00  0.00     0.000 C
ATOM      4  C4  BDP B   1       2.113  11.399  48.4460  0.00  0.00     0.000 C
ATOM      5  C5  BDP B   1       1.705   9.984  48.0470  0.00  0.00     0.000 C
ATOM      6  O5  BDP B   1       2.671   9.366  47.1800  0.00  0.00     0.000 O
ATOM      7   O  BDP B   1       5.488  11.518  47.8710  0.00  0.00     0.000 O
ATOM      9  HD  BDP B   1       6.301  11.395  48.1430  0.00  0.00     0.000 HD
ATOM      9   O  BDP B   1       2.488  12.379  46.2970  0.00  0.00     0.000 O
ATOM     11  HD  BDP B   1       3.301  12.256  46.5700  0.00  0.00     0.000 HD
ATOM     11   O  BDP B   1       2.593  11.402  49.7960  0.00  0.00     0.000 O
ATOM     13  HD  BDP B   1       3.406  11.279  50.0680  0.00  0.00     0.000 HD
ENDROOT
BRANCH 5 13
ATOM     13   C  BDP B   1       0.395  10.084  47.3480  0.00  0.00     0.000 C
ATOM     14   O  BDP B   1      -0.007   9.093  46.7040  0.00  0.00     0.000 OA
ATOM     15   O  BDP B   1      -0.269  11.138  47.4490  0.00  0.00     0.000 OA
ENDBRANCH 5 13
BRANCH 1 16
ATOM     16  O3  NAG B   2       4.685   8.751  48.4750  0.00  0.00     0.000 O
BRANCH 16 19
ATOM     17  C1  NAG B   2       6.261   6.238  50.5860  0.00  0.00     0.000 C
ATOM     18  C2  NAG B   2       5.723   6.678  49.2240  0.00  0.00     0.000 C
ATOM     19  C3  NAG B   2       5.861   8.184  49.0560  0.00  0.00     0.000 C
ATOM     20  C4  NAG B   2       6.166   8.878  50.3860  0.00  0.00     0.000 C
ATOM     21  C5  NAG B   2       5.489   8.256  51.6160  0.00  0.00     0.000 C
ATOM     22  O5  NAG B   2       5.381   6.829  51.5450  0.00  0.00     0.000 O
ATOM     23   O  NAG B   2       7.585   8.900  50.5730  0.00  0.00     0.000 O
ATOM     25  HD  NAG B   2       7.707   8.096  50.2740  0.00  0.00     0.000 HD
ATOM     25   C  NAG B   2       4.086   8.844  51.8170  0.00  0.00     0.000 C
ATOM     26   O  NAG B   2       4.126  10.072  52.5580  0.00  0.00     0.000 O
ATOM     28  HD  NAG B   2       4.248   9.268  52.2600  0.00  0.00     0.000 HD
BRANCH 18 30
ATOM     28   N  NAG B   2       6.455   5.652  48.4820  0.00  0.00     0.000 N
ATOM     30  HD  NAG B   2       6.863   4.895  48.5840  0.00  0.00     0.000 HD
ATOM     30   C  NAG B   2       7.668   5.817  47.9370  0.00  0.00     0.000 C
ATOM     31   C  NAG B   2       8.205   4.615  47.2140  0.00  0.00     0.000 C
ATOM     32   O  NAG B   2       8.300   6.845  48.0160  0.00  0.00     0.000 OA
ENDBRANCH 18 30
BRANCH 17 33
ATOM     33  O4  BDP B   3       6.334   5.311  51.6910  0.00  0.00     0.000 O
BRANCH 33 37
ATOM     34  C1  BDP B   3       7.746   1.880  53.8080  0.00  0.00     0.000 C
ATOM     35  C2  BDP B   3       8.580   2.362  52.6260  0.00  0.00     0.000 C
ATOM     36  C3  BDP B   3       8.265   3.791  52.2000  0.00  0.00     0.000 C
ATOM     37  C4  BDP B   3       6.743   3.982  52.1300  0.00  0.00     0.000 C
ATOM     38  C5  BDP B   3       6.171   3.612  53.5120  0.00  0.00     0.000 C
ATOM     39  O5  BDP B   3       6.360   2.203  53.6430  0.00  0.00     0.000 O
ATOM     40   O  BDP B   3       9.947   2.200  53.0100  0.00  0.00     0.000 O
ATOM     42  HD  BDP B   3       9.757   1.390  52.7690  0.00  0.00     0.000 HD
ATOM     42   O  BDP B   3       8.884   3.985  50.9290  0.00  0.00     0.000 O
ATOM     44  HD  BDP B   3       8.693   3.175  50.6890  0.00  0.00     0.000 HD
BRANCH 38 44
ATOM     44   C  BDP B   3       4.724   3.948  53.6940  0.00  0.00     0.000 C
ATOM     45   O  BDP B   3       4.336   4.264  54.8400  0.00  0.00     0.000 OA
ATOM     46   O  BDP B   3       3.951   3.905  52.7120  0.00  0.00     0.000 OA
ENDBRANCH 38 44
BRANCH 34 47
ATOM     47  O3  NAG B   4       7.379   0.508  53.6780  0.00  0.00     0.000 O
BRANCH 47 50
ATOM     48  C1  NAG B   4       5.890  -1.367  56.5780  0.00  0.00     0.000 C
ATOM     49  C2  NAG B   4       6.977  -0.706  55.7500  0.00  0.00     0.000 C
ATOM     50  C3  NAG B   4       6.354  -0.069  54.5130  0.00  0.00     0.000 C
ATOM     51  C4  NAG B   4       5.551  -1.078  53.7080  0.00  0.00     0.000 C
ATOM     52  C5  NAG B   4       4.522  -1.761  54.6090  0.00  0.00     0.000 C
ATOM     53  O5  NAG B   4       5.160  -2.310  55.7690  0.00  0.00     0.000 O
ATOM     54   O  NAG B   4       4.905  -0.403  52.6250  0.00  0.00     0.000 O
ATOM     56  HD  NAG B   4       4.897  -1.264  52.5340  0.00  0.00     0.000 HD
ATOM     56   C  NAG B   4       3.784  -2.868  53.8660  0.00  0.00     0.000 C
ATOM     57   O  NAG B   4       4.732  -3.848  53.4240  0.00  0.00     0.000 O
ATOM     59  HD  NAG B   4       4.724  -4.709  53.3330  0.00  0.00     0.000 HD
BRANCH 49 61
ATOM     59   N  NAG B   4       7.925  -1.819  55.8130  0.00  0.00     0.000 N
ATOM     61  HD  NAG B   4       7.879  -1.023  55.4750  0.00  0.00     0.000 HD
ATOM     61   O  NAG B   4       9.777  -0.579  56.1790  0.00  0.00     0.000 OA
ATOM     62   C  NAG B   4       9.224  -1.666  56.0930  0.00  0.00     0.000 C
ATOM     63   C  NAG B   4       9.989  -2.930  56.3250  0.00  0.00     0.000 C
ENDBRANCH 49 61
BRANCH 48 64
ATOM     64  O4  BDP B   5       5.752  -1.619  57.9740  0.00  0.00     0.000 O
BRANCH 64 68
ATOM     65  C1  BDP B   5       4.869  -3.140  61.7530  0.00  0.00     0.000 C
ATOM     66  C2  BDP B   5       6.219  -3.540  61.1720  0.00  0.00     0.000 C
ATOM     67  C3  BDP B   5       6.584  -2.598  60.0310  0.00  0.00     0.000 C
ATOM     68  C4  BDP B   5       5.479  -2.593  58.9810  0.00  0.00     0.000 C
ATOM     69  C5  BDP B   5       4.113  -2.295  59.5860  0.00  0.00     0.000 C
ATOM     70  O5  BDP B   5       3.868  -3.143  60.7220  0.00  0.00     0.000 O
ATOM     71   O  BDP B   5       7.212  -3.528  62.2080  0.00  0.00     0.000 O
ATOM     73  HD  BDP B   5       7.774  -3.485  62.8660  0.00  0.00     0.000 HD
ATOM     73   O  BDP B   5       7.815  -3.004  59.4190  0.00  0.00     0.000 O
ATOM     75  HD  BDP B   5       8.377  -2.961  60.0770  0.00  0.00     0.000 HD
BRANCH 69 75
ATOM     75   C  BDP B   5       3.063  -2.549  58.5340  0.00  0.00     0.000 C
ATOM     76   O  BDP B   5       2.745  -3.727  58.2750  0.00  0.00     0.000 OA
ATOM     77   O  BDP B   5       2.541  -1.577  57.9560  0.00  0.00     0.000 OA
ENDBRANCH 69 75
BRANCH 65 78
ATOM     78  O3  NAG B   6       3.916  -4.013  62.3650  0.00  0.00     0.000 O
BRANCH 78 81
ATOM     79  C1  NAG B   6       1.269  -3.297  64.9750  0.00  0.00     0.000 C
ATOM     80  C2  NAG B   6       2.679  -3.398  64.3720  0.00  0.00     0.000 C
ATOM     81  C3  NAG B   6       2.597  -3.767  62.9000  0.00  0.00     0.000 C
ATOM     82  C4  NAG B   6       1.711  -4.999  62.6940  0.00  0.00     0.000 C
ATOM     83  C5  NAG B   6       0.346  -4.753  63.3280  0.00  0.00     0.000 C
ATOM     84  O5  NAG B   6       0.553  -4.519  64.7210  0.00  0.00     0.000 O
BRANCH 80 87
ATOM     85   N  NAG B   6       3.337  -2.140  64.7150  0.00  0.00     0.000 N
ATOM     87  HD  NAG B   6       3.751  -1.645  65.2930  0.00  0.00     0.000 HD
ATOM     87   C  NAG B   6       4.640  -2.030  65.0020  0.00  0.00     0.000 C
ATOM     88   C  NAG B   6       5.125  -0.646  65.2930  0.00  0.00     0.000 C
ATOM     89   O  NAG B   6       5.404  -2.988  65.0160  0.00  0.00     0.000 OA
ENDBRANCH 80 87
ATOM     90   O  NAG B   6      -1.693  -5.522  62.2790  0.00  0.00     0.000 O
ATOM     92  HD  NAG B   6      -1.330  -4.921  62.7860  0.00  0.00     0.000 HD
ATOM     92   O  NAG B   6      -1.693  -5.522  62.2790  0.00  0.00     0.000 O
ATOM     94  HD  NAG B   6      -1.330  -4.921  62.7860  0.00  0.00     0.000 HD
ENDBRANCH 78 81
ENDBRANCH 65 78
ENDBRANCH 64 68
ENDBRANCH 48 64
ENDBRANCH 47 50
ENDBRANCH 34 47
ENDBRANCH 33 37
ENDBRANCH 17 33
ENDBRANCH 16 19
ENDBRANCH 1 16
TORSDOF 16
ENDMDL
MODEL 22
REMARK VINA RESULT:     -10.1     27.425     30.770
ROOT
ATOM      1  C1  BDP B   1     -13.826 -28.610  36.0460  0.00  0.00     0.000 C
ATOM      2  C2  BDP B   1     -14.958 -28.206  36.9730  0.00  0.00     0.000 C
ATOM      3  C3  BDP B   1     -16.300 -28.708  36.4860  0.00  0.00     0.000 C
ATOM      4  C4  BDP B   1     -16.208 -29.780  35.4060  0.00  0.00     0.000 C
ATOM      5  C5  BDP B   1     -15.218 -29.423  34.3020  0.00  0.00     0.000 C
ATOM      6  O5  BDP B   1     -14.286 -28.410  34.7170  0.00  0.00     0.000 O
ATOM      7   O  BDP B   1     -14.708 -28.704  38.2920  0.00  0.00     0.000 O
ATOM      9  HD  BDP B   1     -14.178 -28.849  38.9620  0.00  0.00     0.000 HD
ATOM      9   O  BDP B   1     -17.067 -27.617  35.9530  0.00  0.00     0.000 O
ATOM     11  HD  BDP B   1     -16.537 -27.761  36.6230  0.00  0.00     0.000 HD
ATOM     11   O  BDP B   1     -15.854 -31.042  35.9850  0.00  0.00     0.000 O
ATOM     13  HD  BDP B   1     -15.324 -31.187  36.6540  0.00  0.00     0.000 HD
ENDROOT
BRANCH 5 13
ATOM     13   C  BDP B   1     -16.010 -28.932  33.1420  0.00  0.00     0.000 C
ATOM     14   O  BDP B   1     -16.371 -27.737  33.1380  0.00  0.00     0.000 OA
ATOM     15   O  BDP B   1     -16.264 -29.717  32.2030  0.00  0.00     0.000 OA
ENDBRANCH 5 13
BRANCH 1 16
ATOM     16  O3  NAG B   2     -12.649 -29.375  36.2980  0.00  0.00     0.000 O
BRANCH 16 19
ATOM     17  C1  NAG B   2      -9.790 -31.610  36.5920  0.00  0.00     0.000 C
ATOM     18  C2  NAG B   2     -10.391 -30.207  36.6800  0.00  0.00     0.000 C
ATOM     19  C3  NAG B   2     -11.859 -30.277  37.0740  0.00  0.00     0.000 C
ATOM     20  C4  NAG B   2     -12.415 -31.697  36.9400  0.00  0.00     0.000 C
ATOM     21  C5  NAG B   2     -11.849 -32.511  35.7680  0.00  0.00     0.000 C
ATOM     22  O5  NAG B   2     -10.467 -32.241  35.5020  0.00  0.00     0.000 O
ATOM     23   O  NAG B   2     -12.185 -32.393  38.1690  0.00  0.00     0.000 O
ATOM     25  HD  NAG B   2     -11.391 -32.070  38.2860  0.00  0.00     0.000 HD
ATOM     25   C  NAG B   2     -12.655 -32.249  34.4880  0.00  0.00     0.000 C
ATOM     26   O  NAG B   2     -13.814 -33.090  34.4080  0.00  0.00     0.000 O
ATOM     28  HD  NAG B   2     -13.019 -32.767  34.5250  0.00  0.00     0.000 HD
BRANCH 18 30
ATOM     28   N  NAG B   2      -9.585 -30.510  37.8620  0.00  0.00     0.000 N
ATOM     30  HD  NAG B   2      -9.597 -30.964  38.5990  0.00  0.00     0.000 HD
ATOM     30   C  NAG B   2      -9.287 -29.634  38.8320  0.00  0.00     0.000 C
ATOM     31   C  NAG B   2      -8.433 -30.184  39.9390  0.00  0.00     0.000 C
ATOM     32   O  NAG B   2      -9.672 -28.488  38.8370  0.00  0.00     0.000 OA
ENDBRANCH 18 30
BRANCH 17 33
ATOM     33  O4  BDP B   3      -8.803 -32.549  36.1120  0.00  0.00     0.000 O
BRANCH 33 37
ATOM     34  C1  BDP B   3      -6.442 -36.108  36.1170  0.00  0.00     0.000 C
ATOM     35  C2  BDP B   3      -7.513 -35.984  35.0400  0.00  0.00     0.000 C
ATOM     36  C3  BDP B   3      -8.010 -34.558  34.8340  0.00  0.00     0.000 C
ATOM     37  C4  BDP B   3      -8.285 -33.909  36.1990  0.00  0.00     0.000 C
ATOM     38  C5  BDP B   3      -6.982 -33.995  37.0170  0.00  0.00     0.000 C
ATOM     39  O5  BDP B   3      -6.795 -35.382  37.3000  0.00  0.00     0.000 O
ATOM     40   O  BDP B   3      -6.950 -36.539  33.8500  0.00  0.00     0.000 O
ATOM     42  HD  BDP B   3      -7.195 -37.263  34.2560  0.00  0.00     0.000 HD
ATOM     42   O  BDP B   3      -9.192 -34.646  34.0400  0.00  0.00     0.000 O
ATOM     44  HD  BDP B   3      -9.437 -35.370  34.4470  0.00  0.00     0.000 HD
BRANCH 38 44
ATOM     44   C  BDP B   3      -7.001 -33.215  38.2940  0.00  0.00     0.000 C
ATOM     45   O  BDP B   3      -6.278 -32.197  38.3690  0.00  0.00     0.000 OA
ATOM     46   O  BDP B   3      -7.725 -33.595  39.2400  0.00  0.00     0.000 OA
ENDBRANCH 38 44
BRANCH 34 47
ATOM     47  O3  NAG B   4      -6.588 -37.304  36.8810  0.00  0.00     0.000 O
BRANCH 47 50
ATOM     48  C1  NAG B   4      -4.120 -38.776  39.3070  0.00  0.00     0.000 C
ATOM     49  C2  NAG B   4      -4.806 -38.554  37.9710  0.00  0.00     0.000 C
ATOM     50  C3  NAG B   4      -5.879 -37.482  38.1240  0.00  0.00     0.000 C
ATOM     51  C4  NAG B   4      -6.866 -37.831  39.2260  0.00  0.00     0.000 C
ATOM     52  C5  NAG B   4      -6.113 -38.112  40.5270  0.00  0.00     0.000 C
ATOM     53  O5  NAG B   4      -5.098 -39.101  40.3140  0.00  0.00     0.000 O
ATOM     54   O  NAG B   4      -7.779 -36.744  39.3950  0.00  0.00     0.000 O
ATOM     56  HD  NAG B   4      -8.046 -37.467  39.7890  0.00  0.00     0.000 HD
ATOM     56   C  NAG B   4      -7.060 -38.587  41.6230  0.00  0.00     0.000 C
ATOM     57   O  NAG B   4      -7.705 -39.794  41.1930  0.00  0.00     0.000 O
ATOM     59  HD  NAG B   4      -7.971 -40.517  41.5870  0.00  0.00     0.000 HD
BRANCH 49 61
ATOM     59   N  NAG B   4      -3.655 -38.419  37.0770  0.00  0.00     0.000 N
ATOM     61  HD  NAG B   4      -4.174 -39.043  37.3780  0.00  0.00     0.000 HD
ATOM     61   O  NAG B   4      -4.390 -39.828  35.4720  0.00  0.00     0.000 OA
ATOM     62   C  NAG B   4      -3.580 -39.007  35.8770  0.00  0.00     0.000 C
ATOM     63   C  NAG B   4      -2.431 -38.583  35.0190  0.00  0.00     0.000 C
ENDBRANCH 49 61
BRANCH 48 64
ATOM     64  O4  BDP B   5      -2.805 -39.191  39.6650  0.00  0.00     0.000 O
BRANCH 64 68
ATOM     65  C1  BDP B   5      -1.597 -40.118  43.5450  0.00  0.00     0.000 C
ATOM     66  C2  BDP B   5      -0.935 -38.900  42.9130  0.00  0.00     0.000 C
ATOM     67  C3  BDP B   5      -1.754 -38.435  41.7170  0.00  0.00     0.000 C
ATOM     68  C4  BDP B   5      -1.932 -39.579  40.7250  0.00  0.00     0.000 C
ATOM     69  C5  BDP B   5      -2.498 -40.830  41.3870  0.00  0.00     0.000 C
ATOM     70  O5  BDP B   5      -1.748 -41.160  42.5690  0.00  0.00     0.000 O
ATOM     71   O  BDP B   5      -0.795 -37.863  43.8960  0.00  0.00     0.000 O
ATOM     73  HD  BDP B   5      -0.753 -37.266  44.5220  0.00  0.00     0.000 HD
ATOM     73   O  BDP B   5      -1.108 -37.338  41.0610  0.00  0.00     0.000 O
ATOM     75  HD  BDP B   5      -1.066 -36.740  41.6860  0.00  0.00     0.000 HD
BRANCH 69 75
ATOM     75   C  BDP B   5      -2.411 -41.967  40.4010  0.00  0.00     0.000 C
ATOM     76   O  BDP B   5      -1.285 -42.351  40.0260  0.00  0.00     0.000 OA
ATOM     77   O  BDP B   5      -3.463 -42.493  39.9930  0.00  0.00     0.000 OA
ENDBRANCH 69 75
BRANCH 65 78
ATOM     78  O3  NAG B   6      -0.936 -41.177  44.2420  0.00  0.00     0.000 O
BRANCH 78 81
ATOM     79  C1  NAG B   6      -0.777 -42.518  47.7790  0.00  0.00     0.000 C
ATOM     80  C2  NAG B   6      -0.471 -41.582  46.6000  0.00  0.00     0.000 C
ATOM     81  C3  NAG B   6      -1.326 -41.951  45.3980  0.00  0.00     0.000 C
ATOM     82  C4  NAG B   6      -1.214 -43.447  45.0880  0.00  0.00     0.000 C
ATOM     83  C5  NAG B   6      -1.556 -44.250  46.3380  0.00  0.00     0.000 C
ATOM     84  O5  NAG B   6      -0.623 -43.885  47.3550  0.00  0.00     0.000 O
BRANCH 80 87
ATOM     85   N  NAG B   6       0.487 -40.479  46.6190  0.00  0.00     0.000 N
ATOM     87  HD  NAG B   6       0.813 -39.765  46.2540  0.00  0.00     0.000 HD
ATOM     87   C  NAG B   6       0.144 -39.192  46.7520  0.00  0.00     0.000 C
ATOM     88   C  NAG B   6       1.280 -38.219  46.7830  0.00  0.00     0.000 C
ATOM     89   O  NAG B   6      -1.017 -38.817  46.8590  0.00  0.00     0.000 OA
ENDBRANCH 80 87
ATOM     90   O  NAG B   6      -2.825 -46.305  46.2120  0.00  0.00     0.000 O
ATOM     92  HD  NAG B   6      -2.632 -45.610  46.6920  0.00  0.00     0.000 HD
ATOM     92   O  NAG B   6      -2.825 -46.305  46.2120  0.00  0.00     0.000 O
ATOM     94  HD  NAG B   6      -2.632 -45.610  46.6920  0.00  0.00     0.000 HD
ENDBRANCH 78 81
ENDBRANCH 65 78
ENDBRANCH 64 68
ENDBRANCH 48 64
ENDBRANCH 47 50
ENDBRANCH 34 47
ENDBRANCH 33 37
ENDBRANCH 17 33
ENDBRANCH 16 19
ENDBRANCH 1 16
TORSDOF 16
ENDMDL
MODEL 23
REMARK VINA RESULT:     -10.1     25.994     31.957
ROOT
ATOM      1  C1  BDP B   1      -9.154   1.353  47.1350  0.00  0.00     0.000 C
ATOM      2  C2  BDP B   1      -8.444   0.460  46.1330  0.00  0.00     0.000 C
ATOM      3  C3  BDP B   1      -7.057   0.071  46.5990  0.00  0.00     0.000 C
ATOM      4  C4  BDP B   1      -6.800   0.341  48.0780  0.00  0.00     0.000 C
ATOM      5  C5  BDP B   1      -7.258   1.729  48.5130  0.00  0.00     0.000 C
ATOM      6  O5  BDP B   1      -8.202   2.302  47.5930  0.00  0.00     0.000 O
ATOM      7   O  BDP B   1      -9.220  -0.719  45.8970  0.00  0.00     0.000 O
ATOM      9  HD  BDP B   1      -9.976  -1.114  45.7490  0.00  0.00     0.000 HD
ATOM      9   O  BDP B   1      -6.067   0.791  45.8470  0.00  0.00     0.000 O
ATOM     11  HD  BDP B   1      -6.824   0.396  45.6990  0.00  0.00     0.000 HD
ATOM     11   O  BDP B   1      -7.440  -0.654  48.8860  0.00  0.00     0.000 O
ATOM     13  HD  BDP B   1      -8.197  -1.049  48.7370  0.00  0.00     0.000 HD
ENDROOT
BRANCH 5 13
ATOM     13   C  BDP B   1      -6.045   2.590  48.5880  0.00  0.00     0.000 C
ATOM     14   O  BDP B   1      -5.619   2.911  49.7170  0.00  0.00     0.000 OA
ATOM     15   O  BDP B   1      -5.480   2.938  47.5290  0.00  0.00     0.000 OA
ENDBRANCH 5 13
BRANCH 1 16
ATOM     16  O3  NAG B   2     -10.388   1.172  47.8260  0.00  0.00     0.000 O
BRANCH 16 19
ATOM     17  C1  NAG B   2     -13.168  -1.046  48.6080  0.00  0.00     0.000 C
ATOM     18  C2  NAG B   2     -11.685  -0.835  48.3010  0.00  0.00     0.000 C
ATOM     19  C3  NAG B   2     -11.226   0.531  48.7890  0.00  0.00     0.000 C
ATOM     20  C4  NAG B   2     -12.411   1.439  49.1290  0.00  0.00     0.000 C
ATOM     21  C5  NAG B   2     -13.642   1.269  48.2280  0.00  0.00     0.000 C
ATOM     22  O5  NAG B   2     -13.856  -0.083  47.8060  0.00  0.00     0.000 O
ATOM     23   O  NAG B   2     -12.776   1.218  50.4950  0.00  0.00     0.000 O
ATOM     25  HD  NAG B   2     -12.671   0.359  50.4570  0.00  0.00     0.000 HD
ATOM     25   C  NAG B   2     -13.527   2.158  46.9820  0.00  0.00     0.000 C
ATOM     26   O  NAG B   2     -13.995   3.491  47.2350  0.00  0.00     0.000 O
ATOM     28  HD  NAG B   2     -13.890   2.632  47.1970  0.00  0.00     0.000 HD
BRANCH 18 30
ATOM     28   N  NAG B   2     -11.280  -1.141  49.6730  0.00  0.00     0.000 N
ATOM     30  HD  NAG B   2     -10.656  -0.985  50.2520  0.00  0.00     0.000 HD
ATOM     30   C  NAG B   2     -10.875  -2.345  50.1040  0.00  0.00     0.000 C
ATOM     31   C  NAG B   2     -10.523  -2.407  51.5630  0.00  0.00     0.000 C
ATOM     32   O  NAG B   2     -10.788  -3.314  49.3870  0.00  0.00     0.000 OA
ENDBRANCH 18 30
BRANCH 17 33
ATOM     33  O4  BDP B   3     -14.441  -1.686  48.3760  0.00  0.00     0.000 O
BRANCH 33 37
ATOM     34  C1  BDP B   3     -16.662  -5.297  47.8550  0.00  0.00     0.000 C
ATOM     35  C2  BDP B   3     -15.165  -5.354  47.5770  0.00  0.00     0.000 C
ATOM     36  C3  BDP B   3     -14.388  -4.187  48.1760  0.00  0.00     0.000 C
ATOM     37  C4  BDP B   3     -15.125  -2.873  47.8760  0.00  0.00     0.000 C
ATOM     38  C5  BDP B   3     -16.554  -3.012  48.4350  0.00  0.00     0.000 C
ATOM     39  O5  BDP B   3     -17.195  -3.989  47.6150  0.00  0.00     0.000 O
ATOM     40   O  BDP B   3     -14.714  -6.616  48.0730  0.00  0.00     0.000 O
ATOM     42  HD  BDP B   3     -15.042  -6.858  47.3090  0.00  0.00     0.000 HD
ATOM     42   O  BDP B   3     -13.089  -4.214  47.5870  0.00  0.00     0.000 O
ATOM     44  HD  BDP B   3     -13.417  -4.456  46.8230  0.00  0.00     0.000 HD
BRANCH 38 44
ATOM     44   C  BDP B   3     -17.348  -1.744  48.4260  0.00  0.00     0.000 C
ATOM     45   O  BDP B   3     -18.042  -1.494  47.4160  0.00  0.00     0.000 OA
ATOM     46   O  BDP B   3     -17.299  -0.977  49.4130  0.00  0.00     0.000 OA
ENDBRANCH 38 44
BRANCH 34 47
ATOM     47  O3  NAG B   4     -17.430  -5.748  46.7400  0.00  0.00     0.000 O
BRANCH 47 50
ATOM     48  C1  NAG B   4     -20.352  -8.112  46.8890  0.00  0.00     0.000 C
ATOM     49  C2  NAG B   4     -18.896  -7.691  46.7830  0.00  0.00     0.000 C
ATOM     50  C3  NAG B   4     -18.798  -6.175  46.9050  0.00  0.00     0.000 C
ATOM     51  C4  NAG B   4     -19.675  -5.473  45.8810  0.00  0.00     0.000 C
ATOM     52  C5  NAG B   4     -21.111  -5.988  45.9870  0.00  0.00     0.000 C
ATOM     53  O5  NAG B   4     -21.136  -7.418  45.9000  0.00  0.00     0.000 O
ATOM     54   O  NAG B   4     -19.625  -4.063  46.1130  0.00  0.00     0.000 O
ATOM     56  HD  NAG B   4     -19.969  -4.263  45.3430  0.00  0.00     0.000 HD
ATOM     56   C  NAG B   4     -21.993  -5.399  44.8930  0.00  0.00     0.000 C
ATOM     57   O  NAG B   4     -21.463  -5.771  43.6140  0.00  0.00     0.000 O
ATOM     59  HD  NAG B   4     -21.807  -5.971  42.8440  0.00  0.00     0.000 HD
BRANCH 49 61
ATOM     59   N  NAG B   4     -18.150  -8.464  47.7770  0.00  0.00     0.000 N
ATOM     61  HD  NAG B   4     -18.425  -8.550  46.9610  0.00  0.00     0.000 HD
ATOM     61   O  NAG B   4     -16.568  -9.257  46.3730  0.00  0.00     0.000 OA
ATOM     62   C  NAG B   4     -17.014  -9.117  47.5020  0.00  0.00     0.000 C
ATOM     63   C  NAG B   4     -16.283  -9.668  48.6850  0.00  0.00     0.000 C
ENDBRANCH 49 61
BRANCH 48 64
ATOM     64  O4  BDP B   5     -20.987  -9.296  47.3620  0.00  0.00     0.000 O
BRANCH 64 68
ATOM     65  C1  BDP B   5     -20.905 -13.011  45.4740  0.00  0.00     0.000 C
ATOM     66  C2  BDP B   5     -22.178 -12.196  45.2870  0.00  0.00     0.000 C
ATOM     67  C3  BDP B   5     -21.911 -10.740  45.6450  0.00  0.00     0.000 C
ATOM     68  C4  BDP B   5     -21.360 -10.641  47.0640  0.00  0.00     0.000 C
ATOM     69  C5  BDP B   5     -20.149 -11.540  47.2740  0.00  0.00     0.000 C
ATOM     70  O5  BDP B   5     -20.426 -12.877  46.8210  0.00  0.00     0.000 O
ATOM     71   O  BDP B   5     -22.644 -12.333  43.9360  0.00  0.00     0.000 O
ATOM     73  HD  BDP B   5     -22.870 -12.434  43.1060  0.00  0.00     0.000 HD
ATOM     73   O  BDP B   5     -23.115  -9.969  45.5510  0.00  0.00     0.000 O
ATOM     75  HD  BDP B   5     -23.340 -10.070  44.7210  0.00  0.00     0.000 HD
BRANCH 69 75
ATOM     75   C  BDP B   5     -19.827 -11.564  48.7470  0.00  0.00     0.000 C
ATOM     76   O  BDP B   5     -19.747 -12.666  49.3250  0.00  0.00     0.000 OA
ATOM     77   O  BDP B   5     -19.647 -10.486  49.3430  0.00  0.00     0.000 OA
ENDBRANCH 69 75
BRANCH 65 78
ATOM     78  O3  NAG B   6     -20.828 -14.395  45.8260  0.00  0.00     0.000 O
BRANCH 78 81
ATOM     79  C1  NAG B   6     -19.204 -17.425  44.2390  0.00  0.00     0.000 C
ATOM     80  C2  NAG B   6     -20.205 -16.270  44.3990  0.00  0.00     0.000 C
ATOM     81  C3  NAG B   6     -19.811 -15.391  45.5750  0.00  0.00     0.000 C
ATOM     82  C4  NAG B   6     -19.583 -16.233  46.8340  0.00  0.00     0.000 C
ATOM     83  C5  NAG B   6     -18.563 -17.326  46.5330  0.00  0.00     0.000 C
ATOM     84  O5  NAG B   6     -19.095 -18.137  45.4850  0.00  0.00     0.000 O
BRANCH 80 87
ATOM     85   N  NAG B   6     -20.272 -15.608  43.0980  0.00  0.00     0.000 N
ATOM     87  HD  NAG B   6     -20.558 -15.592  42.2810  0.00  0.00     0.000 HD
ATOM     87   C  NAG B   6     -21.395 -15.104  42.5720  0.00  0.00     0.000 C
ATOM     88   C  NAG B   6     -21.245 -14.435  41.2430  0.00  0.00     0.000 C
ATOM     89   O  NAG B   6     -22.482 -15.163  43.1340  0.00  0.00     0.000 OA
ENDBRANCH 80 87
ATOM     90   O  NAG B   6     -16.891 -17.976  48.1560  0.00  0.00     0.000 O
ATOM     92  HD  NAG B   6     -17.082 -17.900  47.3140  0.00  0.00     0.000 HD
ATOM     92   O  NAG B   6     -16.891 -17.976  48.1560  0.00  0.00     0.000 O
ATOM     94  HD  NAG B   6     -17.082 -17.900  47.3140  0.00  0.00     0.000 HD
ENDBRANCH 78 81
ENDBRANCH 65 78
ENDBRANCH 64 68
ENDBRANCH 48 64
ENDBRANCH 47 50
ENDBRANCH 34 47
ENDBRANCH 33 37
ENDBRANCH 17 33
ENDBRANCH 16 19
ENDBRANCH 1 16
TORSDOF 16
ENDMDL
MODEL 24
REMARK VINA RESULT:     -10.0     35.505     41.587
ROOT
ATOM      1  C1  BDP B   1     -10.062 -44.898  47.3260  0.00  0.00     0.000 C
ATOM      2  C2  BDP B   1      -9.312 -44.650  48.6230  0.00  0.00     0.000 C
ATOM      3  C3  BDP B   1      -7.854 -44.317  48.3830  0.00  0.00     0.000 C
ATOM      4  C4  BDP B   1      -7.528 -43.955  46.9390  0.00  0.00     0.000 C
ATOM      5  C5  BDP B   1      -8.138 -44.928  45.9340  0.00  0.00     0.000 C
ATOM      6  O5  BDP B   1      -9.217 -45.689  46.5030  0.00  0.00     0.000 O
ATOM      7   O  BDP B   1      -9.935 -43.585  49.3490  0.00  0.00     0.000 O
ATOM      9  HD  BDP B   1     -10.639 -43.182  49.6510  0.00  0.00     0.000 HD
ATOM      9   O  BDP B   1      -7.030 -45.435  48.7490  0.00  0.00     0.000 O
ATOM     11  HD  BDP B   1      -7.735 -45.032  49.0510  0.00  0.00     0.000 HD
ATOM     11   O  BDP B   1      -7.966 -42.622  46.6470  0.00  0.00     0.000 O
ATOM     13  HD  BDP B   1      -8.670 -42.219  46.9490  0.00  0.00     0.000 HD
ENDROOT
BRANCH 5 13
ATOM     13   C  BDP B   1      -7.052 -45.847  45.4960  0.00  0.00     0.000 C
ATOM     14   O  BDP B   1      -6.373 -45.524  44.4990  0.00  0.00     0.000 OA
ATOM     15   O  BDP B   1      -6.838 -46.891  46.1490  0.00  0.00     0.000 OA
ENDBRANCH 5 13
BRANCH 1 16
ATOM     16  O3  NAG B   2     -11.205 -44.246  46.7770  0.00  0.00     0.000 O
BRANCH 16 19
ATOM     17  C1  NAG B   2     -12.678 -40.923  46.9830  0.00  0.00     0.000 C
ATOM     18  C2  NAG B   2     -11.458 -41.823  46.7860  0.00  0.00     0.000 C
ATOM     19  C3  NAG B   2     -11.865 -43.144  46.1510  0.00  0.00     0.000 C
ATOM     20  C4  NAG B   2     -13.381 -43.354  46.2010  0.00  0.00     0.000 C
ATOM     21  C5  NAG B   2     -14.074 -42.808  47.4570  0.00  0.00     0.000 C
ATOM     22  O5  NAG B   2     -13.488 -41.597  47.9490  0.00  0.00     0.000 O
ATOM     23   O  NAG B   2     -13.960 -42.764  45.0320  0.00  0.00     0.000 O
ATOM     25  HD  NAG B   2     -13.451 -42.063  45.0490  0.00  0.00     0.000 HD
ATOM     25   C  NAG B   2     -14.056 -43.853  48.5820  0.00  0.00     0.000 C
ATOM     26   O  NAG B   2     -15.153 -44.770  48.4720  0.00  0.00     0.000 O
ATOM     28  HD  NAG B   2     -14.645 -44.070  48.4880  0.00  0.00     0.000 HD
BRANCH 18 30
ATOM     28   N  NAG B   2     -11.460 -40.718  45.8280  0.00  0.00     0.000 N
ATOM     30  HD  NAG B   2     -11.905 -40.396  45.1580  0.00  0.00     0.000 HD
ATOM     30   C  NAG B   2     -10.564 -40.552  44.8440  0.00  0.00     0.000 C
ATOM     31   C  NAG B   2     -10.775 -39.330  43.9970  0.00  0.00     0.000 C
ATOM     32   O  NAG B   2      -9.654 -41.320  44.6360  0.00  0.00     0.000 OA
ENDBRANCH 18 30
BRANCH 17 33
ATOM     33  O4  BDP B   3     -13.368 -39.831  47.6290  0.00  0.00     0.000 O
BRANCH 33 37
ATOM     34  C1  BDP B   3     -16.287 -36.742  47.2020  0.00  0.00     0.000 C
ATOM     35  C2  BDP B   3     -15.469 -37.104  45.9680  0.00  0.00     0.000 C
ATOM     36  C3  BDP B   3     -14.775 -38.457  46.0700  0.00  0.00     0.000 C
ATOM     37  C4  BDP B   3     -14.097 -38.582  47.4430  0.00  0.00     0.000 C
ATOM     38  C5  BDP B   3     -15.185 -38.366  48.5120  0.00  0.00     0.000 C
ATOM     39  O5  BDP B   3     -15.559 -36.992  48.4100  0.00  0.00     0.000 O
ATOM     40   O  BDP B   3     -16.369 -37.040  44.8590  0.00  0.00     0.000 O
ATOM     42  HD  BDP B   3     -16.180 -36.200  44.9540  0.00  0.00     0.000 HD
ATOM     42   O  BDP B   3     -13.829 -38.514  45.0040  0.00  0.00     0.000 O
ATOM     44  HD  BDP B   3     -13.639 -37.674  45.0980  0.00  0.00     0.000 HD
BRANCH 38 44
ATOM     44   C  BDP B   3     -14.748 -38.670  49.9110  0.00  0.00     0.000 C
ATOM     45   O  BDP B   3     -14.206 -37.753  50.5670  0.00  0.00     0.000 OA
ATOM     46   O  BDP B   3     -14.930 -39.814  50.3810  0.00  0.00     0.000 OA
ENDBRANCH 38 44
BRANCH 34 47
ATOM     47  O3  NAG B   4     -16.202 -35.352  47.5100  0.00  0.00     0.000 O
BRANCH 47 50
ATOM     48  C1  NAG B   4     -19.320 -33.259  47.7300  0.00  0.00     0.000 C
ATOM     49  C2  NAG B   4     -18.204 -34.042  47.0600  0.00  0.00     0.000 C
ATOM     50  C3  NAG B   4     -17.307 -34.660  48.1260  0.00  0.00     0.000 C
ATOM     51  C4  NAG B   4     -16.775 -33.608  49.0870  0.00  0.00     0.000 C
ATOM     52  C5  NAG B   4     -17.937 -32.808  49.6760  0.00  0.00     0.000 C
ATOM     53  O5  NAG B   4     -18.762 -32.281  48.6290  0.00  0.00     0.000 O
ATOM     54   O  NAG B   4     -16.033 -34.257  50.1230  0.00  0.00     0.000 O
ATOM     56  HD  NAG B   4     -15.898 -33.402  50.1020  0.00  0.00     0.000 HD
ATOM     56   C  NAG B   4     -17.435 -31.663  50.5480  0.00  0.00     0.000 C
ATOM     57   O  NAG B   4     -16.628 -30.787  49.7500  0.00  0.00     0.000 O
ATOM     59  HD  NAG B   4     -16.493 -29.931  49.7280  0.00  0.00     0.000 HD
BRANCH 49 61
ATOM     59   N  NAG B   4     -19.061 -34.644  46.0370  0.00  0.00     0.000 N
ATOM     61  HD  NAG B   4     -18.528 -33.967  46.1220  0.00  0.00     0.000 HD
ATOM     61   O  NAG B   4     -17.628 -34.406  44.3080  0.00  0.00     0.000 OA
ATOM     62   C  NAG B   4     -18.672 -34.840  44.7710  0.00  0.00     0.000 C
ATOM     63   C  NAG B   4     -19.598 -35.659  43.9300  0.00  0.00     0.000 C
ENDBRANCH 49 61
BRANCH 48 64
ATOM     64  O4  BDP B   5     -20.656 -32.952  47.3440  0.00  0.00     0.000 O
BRANCH 64 68
ATOM     65  C1  BDP B   5     -22.714 -29.359  46.8660  0.00  0.00     0.000 C
ATOM     66  C2  BDP B   5     -23.575 -30.599  47.0700  0.00  0.00     0.000 C
ATOM     67  C3  BDP B   5     -22.725 -31.723  47.6480  0.00  0.00     0.000 C
ATOM     68  C4  BDP B   5     -21.526 -31.991  46.7460  0.00  0.00     0.000 C
ATOM     69  C5  BDP B   5     -20.728 -30.726  46.4600  0.00  0.00     0.000 C
ATOM     70  O5  BDP B   5     -21.597 -29.669  46.0170  0.00  0.00     0.000 O
ATOM     71   O  BDP B   5     -24.684 -30.280  47.9240  0.00  0.00     0.000 O
ATOM     73  HD  BDP B   5     -25.322 -30.039  48.4580  0.00  0.00     0.000 HD
ATOM     73   O  BDP B   5     -23.498 -32.923  47.7770  0.00  0.00     0.000 O
ATOM     75  HD  BDP B   5     -24.136 -32.682  48.3100  0.00  0.00     0.000 HD
BRANCH 69 75
ATOM     75   C  BDP B   5     -19.721 -31.034  45.3810  0.00  0.00     0.000 C
ATOM     76   O  BDP B   5     -18.511 -30.849  45.6180  0.00  0.00     0.000 OA
ATOM     77   O  BDP B   5     -20.125 -31.469  44.2860  0.00  0.00     0.000 OA
ENDBRANCH 69 75
BRANCH 65 78
ATOM     78  O3  NAG B   6     -22.902 -28.351  45.8690  0.00  0.00     0.000 O
BRANCH 78 81
ATOM     79  C1  NAG B   6     -23.793 -24.686  45.5440  0.00  0.00     0.000 C
ATOM     80  C2  NAG B   6     -24.028 -26.200  45.6630  0.00  0.00     0.000 C
ATOM     81  C3  NAG B   6     -22.712 -26.920  45.9090  0.00  0.00     0.000 C
ATOM     82  C4  NAG B   6     -21.661 -26.502  44.8750  0.00  0.00     0.000 C
ATOM     83  C5  NAG B   6     -21.524 -24.984  44.8760  0.00  0.00     0.000 C
ATOM     84  O5  NAG B   6     -22.798 -24.435  44.5360  0.00  0.00     0.000 O
BRANCH 80 87
ATOM     85   N  NAG B   6     -25.121 -26.306  46.6260  0.00  0.00     0.000 N
ATOM     87  HD  NAG B   6     -25.970 -26.302  46.7980  0.00  0.00     0.000 HD
ATOM     87   C  NAG B   6     -26.019 -27.299  46.6340  0.00  0.00     0.000 C
ATOM     88   C  NAG B   6     -27.039 -27.242  47.7260  0.00  0.00     0.000 C
ATOM     89   O  NAG B   6     -26.013 -28.212  45.8170  0.00  0.00     0.000 OA
ENDBRANCH 80 87
ATOM     90   O  NAG B   6     -19.374 -23.908  44.6220  0.00  0.00     0.000 O
ATOM     92  HD  NAG B   6     -20.166 -23.853  44.9670  0.00  0.00     0.000 HD
ATOM     92   O  NAG B   6     -19.374 -23.908  44.6220  0.00  0.00     0.000 O
ATOM     94  HD  NAG B   6     -20.166 -23.853  44.9670  0.00  0.00     0.000 HD
ENDBRANCH 78 81
ENDBRANCH 65 78
ENDBRANCH 64 68
ENDBRANCH 48 64
ENDBRANCH 47 50
ENDBRANCH 34 47
ENDBRANCH 33 37
ENDBRANCH 17 33
ENDBRANCH 16 19
ENDBRANCH 1 16
TORSDOF 16
ENDMDL
MODEL 25
REMARK VINA RESULT:     -10.0     28.872     31.990
ROOT
ATOM      1  C1  BDP B   1       2.500  17.687  18.4230  0.00  0.00     0.000 C
ATOM      2  C2  BDP B   1       1.867  18.242  19.6870  0.00  0.00     0.000 C
ATOM      3  C3  BDP B   1       2.726  19.307  20.3340  0.00  0.00     0.000 C
ATOM      4  C4  BDP B   1       3.831  19.846  19.4330  0.00  0.00     0.000 C
ATOM      5  C5  BDP B   1       4.606  18.740  18.7240  0.00  0.00     0.000 C
ATOM      6  O5  BDP B   1       3.880  17.499  18.6990  0.00  0.00     0.000 O
ATOM      7   O  BDP B   1       0.575  18.782  19.3870  0.00  0.00     0.000 O
ATOM      9  HD  BDP B   1      -0.194  18.737  18.9920  0.00  0.00     0.000 HD
ATOM      9   O  BDP B   1       3.346  18.783  21.5190  0.00  0.00     0.000 O
ATOM     11  HD  BDP B   1       2.576  18.738  21.1240  0.00  0.00     0.000 HD
ATOM     11   O  BDP B   1       3.290  20.754  18.4660  0.00  0.00     0.000 O
ATOM     13  HD  BDP B   1       2.520  20.708  18.0710  0.00  0.00     0.000 HD
ENDROOT
BRANCH 5 13
ATOM     13   C  BDP B   1       5.887  18.557  19.4600  0.00  0.00     0.000 C
ATOM     14   O  BDP B   1       6.722  17.750  19.0000  0.00  0.00     0.000 OA
ATOM     15   O  BDP B   1       6.097  19.230  20.4920  0.00  0.00     0.000 OA
ENDBRANCH 5 13
BRANCH 1 16
ATOM     16  O3  NAG B   2       2.016  17.653  17.0820  0.00  0.00     0.000 O
BRANCH 16 19
ATOM     17  C1  NAG B   2       2.921  15.535  14.2630  0.00  0.00     0.000 C
ATOM     18  C2  NAG B   2       2.442  15.688  15.7060  0.00  0.00     0.000 C
ATOM     19  C3  NAG B   2       1.655  16.979  15.8750  0.00  0.00     0.000 C
ATOM     20  C4  NAG B   2       1.845  17.919  14.6820  0.00  0.00     0.000 C
ATOM     21  C5  NAG B   2       3.245  17.896  14.0510  0.00  0.00     0.000 C
ATOM     22  O5  NAG B   2       3.853  16.600  14.0620  0.00  0.00     0.000 O
ATOM     23   O  NAG B   2       0.862  17.601  13.6920  0.00  0.00     0.000 O
ATOM     25  HD  NAG B   2       0.931  16.745  13.7970  0.00  0.00     0.000 HD
ATOM     25   C  NAG B   2       4.178  18.882  14.7680  0.00  0.00     0.000 C
ATOM     26   O  NAG B   2       4.050  20.212  14.2450  0.00  0.00     0.000 O
ATOM     28  HD  NAG B   2       4.119  19.355  14.3490  0.00  0.00     0.000 HD
BRANCH 18 30
ATOM     28   N  NAG B   2       1.051  15.240  15.7530  0.00  0.00     0.000 N
ATOM     30  HD  NAG B   2       0.396  15.101  16.3030  0.00  0.00     0.000 HD
ATOM     30   C  NAG B   2       0.640  13.986  15.5170  0.00  0.00     0.000 C
ATOM     31   C  NAG B   2      -0.845  13.779  15.6160  0.00  0.00     0.000 C
ATOM     32   O  NAG B   2       1.391  13.077  15.2500  0.00  0.00     0.000 OA
ENDBRANCH 18 30
BRANCH 17 33
ATOM     33  O4  BDP B   3       3.809  14.989  13.2630  0.00  0.00     0.000 O
BRANCH 33 37
ATOM     34  C1  BDP B   3       7.490  13.771  11.4710  0.00  0.00     0.000 C
ATOM     35  C2  BDP B   3       7.324  13.516  12.9650  0.00  0.00     0.000 C
ATOM     36  C3  BDP B   3       5.876  13.576  13.4370  0.00  0.00     0.000 C
ATOM     37  C4  BDP B   3       5.193  14.816  12.8400  0.00  0.00     0.000 C
ATOM     38  C5  BDP B   3       5.338  14.725  11.3090  0.00  0.00     0.000 C
ATOM     39  O5  BDP B   3       6.729  14.905  11.0410  0.00  0.00     0.000 O
ATOM     40   O  BDP B   3       7.925  12.245  13.2220  0.00  0.00     0.000 O
ATOM     42  HD  BDP B   3       8.629  12.749  13.2090  0.00  0.00     0.000 HD
ATOM     42   O  BDP B   3       5.911  13.624  14.8620  0.00  0.00     0.000 O
ATOM     44  HD  BDP B   3       6.615  14.128  14.8490  0.00  0.00     0.000 HD
BRANCH 38 44
ATOM     44   C  BDP B   3       4.541  15.740  10.5500  0.00  0.00     0.000 C
ATOM     45   O  BDP B   3       3.623  15.326   9.8070  0.00  0.00     0.000 OA
ATOM     46   O  BDP B   3       4.808  16.955  10.6750  0.00  0.00     0.000 OA
ENDBRANCH 38 44
BRANCH 34 47
ATOM     47  O3  NAG B   4       8.665  14.527  11.1860  0.00  0.00     0.000 O
BRANCH 47 50
ATOM     48  C1  NAG B   4      10.665  13.230   8.2770  0.00  0.00     0.000 C
ATOM     49  C2  NAG B   4       9.990  13.196   9.6370  0.00  0.00     0.000 C
ATOM     50  C3  NAG B   4       9.257  14.512   9.8710  0.00  0.00     0.000 C
ATOM     51  C4  NAG B   4      10.187  15.706   9.7190  0.00  0.00     0.000 C
ATOM     52  C5  NAG B   4      10.889  15.647   8.3620  0.00  0.00     0.000 C
ATOM     53  O5  NAG B   4      11.530  14.378   8.1860  0.00  0.00     0.000 O
ATOM     54   O  NAG B   4       9.424  16.909   9.8420  0.00  0.00     0.000 O
ATOM     56  HD  NAG B   4      10.277  17.047   9.8980  0.00  0.00     0.000 HD
ATOM     56   C  NAG B   4      11.922  16.759   8.2260  0.00  0.00     0.000 C
ATOM     57   O  NAG B   4      12.905  16.615   9.2600  0.00  0.00     0.000 O
ATOM     59  HD  NAG B   4      13.758  16.753   9.3160  0.00  0.00     0.000 HD
BRANCH 49 61
ATOM     59   N  NAG B   4      11.146  12.533  10.2430  0.00  0.00     0.000 N
ATOM     61  HD  NAG B   4      10.382  12.861  10.4870  0.00  0.00     0.000 HD
ATOM     61   O  NAG B   4       9.985  11.173  11.6230  0.00  0.00     0.000 OA
ATOM     62   C  NAG B   4      11.042  11.532  11.1250  0.00  0.00     0.000 C
ATOM     63   C  NAG B   4      12.322  10.839  11.4690  0.00  0.00     0.000 C
ENDBRANCH 49 61
BRANCH 48 64
ATOM     64  O4  BDP B   5      10.997  12.215   7.3340  0.00  0.00     0.000 O
BRANCH 64 68
ATOM     65  C1  BDP B   5      10.911   9.092   4.5760  0.00  0.00     0.000 C
ATOM     66  C2  BDP B   5       9.600   9.840   4.7770  0.00  0.00     0.000 C
ATOM     67  C3  BDP B   5       9.873  11.179   5.4510  0.00  0.00     0.000 C
ATOM     68  C4  BDP B   5      10.625  10.963   6.7600  0.00  0.00     0.000 C
ATOM     69  C5  BDP B   5      11.881  10.123   6.5690  0.00  0.00     0.000 C
ATOM     70  O5  BDP B   5      11.581   8.923   5.8350  0.00  0.00     0.000 O
ATOM     71   O  BDP B   5       8.942  10.008   3.5120  0.00  0.00     0.000 O
ATOM     73  HD  BDP B   5       8.598  10.100   2.7220  0.00  0.00     0.000 HD
ATOM     73   O  BDP B   5       8.645  11.866   5.7200  0.00  0.00     0.000 O
ATOM     75  HD  BDP B   5       8.301  11.957   4.9310  0.00  0.00     0.000 HD
BRANCH 69 75
ATOM     75   C  BDP B   5      12.420   9.760   7.9290  0.00  0.00     0.000 C
ATOM     76   O  BDP B   5      11.750   8.997   8.6550  0.00  0.00     0.000 OA
ATOM     77   O  BDP B   5      13.517  10.226   8.2880  0.00  0.00     0.000 OA
ENDBRANCH 69 75
BRANCH 65 78
ATOM     78  O3  NAG B   6      11.082   7.672   4.5520  0.00  0.00     0.000 O
BRANCH 78 81
ATOM     79  C1  NAG B   6      12.033   4.908   2.1450  0.00  0.00     0.000 C
ATOM     80  C2  NAG B   6      11.121   5.916   2.8620  0.00  0.00     0.000 C
ATOM     81  C3  NAG B   6      11.944   6.826   3.7600  0.00  0.00     0.000 C
ATOM     82  C4  NAG B   6      12.858   6.006   4.6770  0.00  0.00     0.000 C
ATOM     83  C5  NAG B   6      13.709   5.064   3.8330  0.00  0.00     0.000 C
ATOM     84  O5  NAG B   6      12.822   4.202   3.1190  0.00  0.00     0.000 O
BRANCH 80 87
ATOM     85   N  NAG B   6      10.317   6.496   1.7900  0.00  0.00     0.000 N
ATOM     87  HD  NAG B   6       9.631   6.455   1.2620  0.00  0.00     0.000 HD
ATOM     87   C  NAG B   6       9.062   6.934   1.9470  0.00  0.00     0.000 C
ATOM     88   C  NAG B   6       8.424   7.527   0.7310  0.00  0.00     0.000 C
ATOM     89   O  NAG B   6       8.462   6.875   3.0140  0.00  0.00     0.000 OA
ENDBRANCH 80 87
ATOM     90   O  NAG B   6      16.025   4.625   4.3750  0.00  0.00     0.000 O
ATOM     92  HD  NAG B   6      15.435   4.685   3.7430  0.00  0.00     0.000 HD
ATOM     92   O  NAG B   6      16.025   4.625   4.3750  0.00  0.00     0.000 O
ATOM     94  HD  NAG B   6      15.435   4.685   3.7430  0.00  0.00     0.000 HD
ENDBRANCH 78 81
ENDBRANCH 65 78
ENDBRANCH 64 68
ENDBRANCH 48 64
ENDBRANCH 47 50
ENDBRANCH 34 47
ENDBRANCH 33 37
ENDBRANCH 17 33
ENDBRANCH 16 19
ENDBRANCH 1 16
TORSDOF 16
ENDMDL
MODEL 26
REMARK VINA RESULT:      -9.9     27.086     33.055
ROOT
ATOM      1  C1  BDP B   1     -22.449 -20.522  41.2800  0.00  0.00     0.000 C
ATOM      2  C2  BDP B   1     -21.040 -20.660  40.7310  0.00  0.00     0.000 C
ATOM      3  C3  BDP B   1     -20.921 -20.119  39.3230  0.00  0.00     0.000 C
ATOM      4  C4  BDP B   1     -22.097 -19.251  38.8890  0.00  0.00     0.000 C
ATOM      5  C5  BDP B   1     -23.448 -19.876  39.2250  0.00  0.00     0.000 C
ATOM      6  O5  BDP B   1     -23.338 -20.892  40.2360  0.00  0.00     0.000 O
ATOM      7   O  BDP B   1     -20.116 -19.980  41.5870  0.00  0.00     0.000 O
ATOM      9  HD  BDP B   1     -19.816 -19.779  42.3750  0.00  0.00     0.000 HD
ATOM      9   O  BDP B   1     -20.813 -21.205  38.3880  0.00  0.00     0.000 O
ATOM     11  HD  BDP B   1     -20.513 -21.004  39.1760  0.00  0.00     0.000 HD
ATOM     11   O  BDP B   1     -22.004 -17.951  39.4850  0.00  0.00     0.000 O
ATOM     13  HD  BDP B   1     -21.704 -17.750  40.2720  0.00  0.00     0.000 HD
ENDROOT
BRANCH 5 13
ATOM     13   C  BDP B   1     -23.982 -20.472  37.9690  0.00  0.00     0.000 C
ATOM     14   O  BDP B   1     -23.325 -20.319  36.9190  0.00  0.00     0.000 OA
ATOM     15   O  BDP B   1     -25.047 -21.123  38.0110  0.00  0.00     0.000 OA
ENDBRANCH 5 13
BRANCH 1 16
ATOM     16  O3  NAG B   2     -22.931 -19.842  42.4370  0.00  0.00     0.000 O
BRANCH 16 19
ATOM     17  C1  NAG B   2     -22.152 -17.194  44.8120  0.00  0.00     0.000 C
ATOM     18  C2  NAG B   2     -22.136 -17.742  43.3840  0.00  0.00     0.000 C
ATOM     19  C3  NAG B   2     -23.321 -18.669  43.1540  0.00  0.00     0.000 C
ATOM     20  C4  NAG B   2     -23.992 -19.069  44.4710  0.00  0.00     0.000 C
ATOM     21  C5  NAG B   2     -23.039 -19.249  45.6610  0.00  0.00     0.000 C
ATOM     22  O5  NAG B   2     -21.939 -18.331  45.6520  0.00  0.00     0.000 O
ATOM     23   O  NAG B   2     -24.986 -18.090  44.7900  0.00  0.00     0.000 O
ATOM     25  HD  NAG B   2     -24.501 -17.416  44.5450  0.00  0.00     0.000 HD
ATOM     25   C  NAG B   2     -22.483 -20.679  45.6980  0.00  0.00     0.000 C
ATOM     26   O  NAG B   2     -23.372 -21.577  46.3770  0.00  0.00     0.000 O
ATOM     28  HD  NAG B   2     -22.887 -20.903  46.1320  0.00  0.00     0.000 HD
BRANCH 18 30
ATOM     28   N  NAG B   2     -22.602 -16.357  43.4140  0.00  0.00     0.000 N
ATOM     30  HD  NAG B   2     -23.280 -15.868  43.6430  0.00  0.00     0.000 HD
ATOM     30   C  NAG B   2     -22.905 -15.625  42.3320  0.00  0.00     0.000 C
ATOM     31   C  NAG B   2     -23.352 -14.220  42.6240  0.00  0.00     0.000 C
ATOM     32   O  NAG B   2     -22.836 -16.047  41.2010  0.00  0.00     0.000 OA
ENDBRANCH 18 30
BRANCH 17 33
ATOM     33  O4  BDP B   3     -21.502 -16.614  45.9640  0.00  0.00     0.000 O
BRANCH 33 37
ATOM     34  C1  BDP B   3     -20.474 -12.604  47.0130  0.00  0.00     0.000 C
ATOM     35  C2  BDP B   3     -19.327 -13.587  46.8120  0.00  0.00     0.000 C
ATOM     36  C3  BDP B   3     -19.727 -14.843  46.0440  0.00  0.00     0.000 C
ATOM     37  C4  BDP B   3     -21.049 -15.386  46.6060  0.00  0.00     0.000 C
ATOM     38  C5  BDP B   3     -22.087 -14.251  46.5130  0.00  0.00     0.000 C
ATOM     39  O5  BDP B   3     -21.665 -13.265  47.4540  0.00  0.00     0.000 O
ATOM     40   O  BDP B   3     -18.287 -12.860  46.1540  0.00  0.00     0.000 O
ATOM     42  HD  BDP B   3     -18.158 -12.608  46.9730  0.00  0.00     0.000 HD
ATOM     42   O  BDP B   3     -18.660 -15.776  46.2020  0.00  0.00     0.000 O
ATOM     44  HD  BDP B   3     -18.531 -15.524  47.0200  0.00  0.00     0.000 HD
BRANCH 38 44
ATOM     44   C  BDP B   3     -23.492 -14.671  46.8130  0.00  0.00     0.000 C
ATOM     45   O  BDP B   3     -23.750 -15.066  47.9710  0.00  0.00     0.000 OA
ATOM     46   O  BDP B   3     -24.359 -14.618  45.9130  0.00  0.00     0.000 OA
ENDBRANCH 38 44
BRANCH 34 47
ATOM     47  O3  NAG B   4     -20.420 -11.976  48.2930  0.00  0.00     0.000 O
BRANCH 47 50
ATOM     48  C1  NAG B   4     -20.662  -8.223  48.3230  0.00  0.00     0.000 C
ATOM     49  C2  NAG B   4     -20.058  -9.584  48.0250  0.00  0.00     0.000 C
ATOM     50  C3  NAG B   4     -21.006 -10.676  48.5070  0.00  0.00     0.000 C
ATOM     51  C4  NAG B   4     -21.348 -10.509  49.9790  0.00  0.00     0.000 C
ATOM     52  C5  NAG B   4     -21.885  -9.100  50.2310  0.00  0.00     0.000 C
ATOM     53  O5  NAG B   4     -20.969  -8.119  49.7280  0.00  0.00     0.000 O
ATOM     54   O  NAG B   4     -22.320 -11.493  50.3450  0.00  0.00     0.000 O
ATOM     56  HD  NAG B   4     -21.956 -11.112  51.0320  0.00  0.00     0.000 HD
ATOM     56   C  NAG B   4     -22.122  -8.855  51.7170  0.00  0.00     0.000 C
ATOM     57   O  NAG B   4     -20.881  -9.009  52.4190  0.00  0.00     0.000 O
ATOM     59  HD  NAG B   4     -20.517  -8.629  53.1060  0.00  0.00     0.000 HD
BRANCH 49 61
ATOM     59   N  NAG B   4     -18.719  -9.176  48.4510  0.00  0.00     0.000 N
ATOM     61  HD  NAG B   4     -19.120  -9.886  48.1620  0.00  0.00     0.000 HD
ATOM     61   O  NAG B   4     -17.576 -10.257  46.8300  0.00  0.00     0.000 OA
ATOM     62   C  NAG B   4     -17.604  -9.485  47.7780  0.00  0.00     0.000 C
ATOM     63   C  NAG B   4     -16.357  -8.804  48.2430  0.00  0.00     0.000 C
ENDBRANCH 49 61
BRANCH 48 64
ATOM     64  O4  BDP B   5     -20.549  -6.952  47.6910  0.00  0.00     0.000 O
BRANCH 64 68
ATOM     65  C1  BDP B   5     -17.020  -4.839  47.0170  0.00  0.00     0.000 C
ATOM     66  C2  BDP B   5     -17.808  -4.443  48.2580  0.00  0.00     0.000 C
ATOM     67  C3  BDP B   5     -18.800  -5.544  48.6090  0.00  0.00     0.000 C
ATOM     68  C4  BDP B   5     -19.704  -5.836  47.4160  0.00  0.00     0.000 C
ATOM     69  C5  BDP B   5     -18.908  -6.129  46.1510  0.00  0.00     0.000 C
ATOM     70  O5  BDP B   5     -17.917  -5.110  45.9290  0.00  0.00     0.000 O
ATOM     71   O  BDP B   5     -16.902  -4.180  49.3410  0.00  0.00     0.000 O
ATOM     73  HD  BDP B   5     -16.314  -4.054  49.9640  0.00  0.00     0.000 HD
ATOM     73   O  BDP B   5     -19.606  -5.157  49.7280  0.00  0.00     0.000 O
ATOM     75  HD  BDP B   5     -19.018  -5.031  50.3520  0.00  0.00     0.000 HD
BRANCH 69 75
ATOM     75   C  BDP B   5     -19.865  -6.162  44.9860  0.00  0.00     0.000 C
ATOM     76   O  BDP B   5     -20.135  -7.262  44.4630  0.00  0.00     0.000 OA
ATOM     77   O  BDP B   5     -20.362  -5.094  44.5830  0.00  0.00     0.000 OA
ENDBRANCH 69 75
BRANCH 65 78
ATOM     78  O3  NAG B   6     -16.468  -3.950  46.0420  0.00  0.00     0.000 O
BRANCH 78 81
ATOM     79  C1  NAG B   6     -13.019  -3.396  44.5830  0.00  0.00     0.000 C
ATOM     80  C2  NAG B   6     -14.137  -3.366  45.6370  0.00  0.00     0.000 C
ATOM     81  C3  NAG B   6     -15.363  -4.104  45.1240  0.00  0.00     0.000 C
ATOM     82  C4  NAG B   6     -15.764  -3.598  43.7350  0.00  0.00     0.000 C
ATOM     83  C5  NAG B   6     -14.567  -3.697  42.7950  0.00  0.00     0.000 C
ATOM     84  O5  NAG B   6     -13.524  -2.885  43.3370  0.00  0.00     0.000 O
BRANCH 80 87
ATOM     85   N  NAG B   6     -13.536  -3.872  46.8680  0.00  0.00     0.000 N
ATOM     87  HD  NAG B   6     -13.037  -3.744  47.5640  0.00  0.00     0.000 HD
ATOM     87   C  NAG B   6     -13.835  -3.415  48.0900  0.00  0.00     0.000 C
ATOM     88   C  NAG B   6     -13.134  -4.090  49.2250  0.00  0.00     0.000 C
ATOM     89   O  NAG B   6     -14.640  -2.513  48.2880  0.00  0.00     0.000 OA
ENDBRANCH 80 87
ATOM     90   O  NAG B   6     -14.825  -4.368  40.4860  0.00  0.00     0.000 O
ATOM     92  HD  NAG B   6     -14.303  -4.363  41.1770  0.00  0.00     0.000 HD
ATOM     92   O  NAG B   6     -14.825  -4.368  40.4860  0.00  0.00     0.000 O
ATOM     94  HD  NAG B   6     -14.303  -4.363  41.1770  0.00  0.00     0.000 HD
ENDBRANCH 78 81
ENDBRANCH 65 78
ENDBRANCH 64 68
ENDBRANCH 48 64
ENDBRANCH 47 50
ENDBRANCH 34 47
ENDBRANCH 33 37
ENDBRANCH 17 33
ENDBRANCH 16 19
ENDBRANCH 1 16
TORSDOF 16
ENDMDL
MODEL 27
REMARK VINA RESULT:      -9.9     27.927     34.671
ROOT
ATOM      1  C1  BDP B   1      -0.609 -38.937  44.5720  0.00  0.00     0.000 C
ATOM      2  C2  BDP B   1      -0.520 -37.885  45.6640  0.00  0.00     0.000 C
ATOM      3  C3  BDP B   1       0.890 -37.729  46.1910  0.00  0.00     0.000 C
ATOM      4  C4  BDP B   1       1.957 -38.368  45.3100  0.00  0.00     0.000 C
ATOM      5  C5  BDP B   1       1.590 -39.782  44.8690  0.00  0.00     0.000 C
ATOM      6  O5  BDP B   1       0.181 -40.039  44.9930  0.00  0.00     0.000 O
ATOM      7   O  BDP B   1      -0.989 -36.627  45.1670  0.00  0.00     0.000 O
ATOM      9  HD  BDP B   1      -1.559 -36.151  44.7210  0.00  0.00     0.000 HD
ATOM      9   O  BDP B   1       0.992 -38.319  47.4970  0.00  0.00     0.000 O
ATOM     11  HD  BDP B   1       0.422 -37.843  47.0510  0.00  0.00     0.000 HD
ATOM     11   O  BDP B   1       2.210 -37.553  44.1600  0.00  0.00     0.000 O
ATOM     13  HD  BDP B   1       1.640 -37.077  43.7140  0.00  0.00     0.000 HD
ENDROOT
BRANCH 5 13
ATOM     13   C  BDP B   1       2.351 -40.725  45.7330  0.00  0.00     0.000 C
ATOM     14   O  BDP B   1       1.852 -41.053  46.8300  0.00  0.00     0.000 OA
ATOM     15   O  BDP B   1       3.443 -41.177  45.3260  0.00  0.00     0.000 OA
ENDBRANCH 5 13
BRANCH 1 16
ATOM     16  O3  NAG B   2      -1.050 -38.834  43.2200  0.00  0.00     0.000 O
BRANCH 16 19
ATOM     17  C1  NAG B   2      -3.539 -38.396  40.5990  0.00  0.00     0.000 C
ATOM     18  C2  NAG B   2      -2.119 -38.189  41.1280  0.00  0.00     0.000 C
ATOM     19  C3  NAG B   2      -1.724 -39.325  42.0600  0.00  0.00     0.000 C
ATOM     20  C4  NAG B   2      -2.936 -40.160  42.4810  0.00  0.00     0.000 C
ATOM     21  C5  NAG B   2      -4.238 -39.370  42.6700  0.00  0.00     0.000 C
ATOM     22  O5  NAG B   2      -4.386 -38.287  41.7450  0.00  0.00     0.000 O
ATOM     23   O  NAG B   2      -3.133 -41.196  41.5130  0.00  0.00     0.000 O
ATOM     25  HD  NAG B   2      -2.962 -40.689  40.8320  0.00  0.00     0.000 HD
ATOM     25   C  NAG B   2      -4.331 -38.813  44.0970  0.00  0.00     0.000 C
ATOM     26   O  NAG B   2      -4.876 -39.776  45.0090  0.00  0.00     0.000 O
ATOM     28  HD  NAG B   2      -4.706 -39.269  44.3290  0.00  0.00     0.000 HD
BRANCH 18 30
ATOM     28   N  NAG B   2      -1.716 -39.139  40.0920  0.00  0.00     0.000 N
ATOM     30  HD  NAG B   2      -1.197 -39.818  39.9520  0.00  0.00     0.000 HD
ATOM     30   C  NAG B   2      -1.000 -38.829  39.0020  0.00  0.00     0.000 C
ATOM     31   C  NAG B   2      -0.723 -39.982  38.0790  0.00  0.00     0.000 C
ATOM     32   O  NAG B   2      -0.595 -37.715  38.7660  0.00  0.00     0.000 OA
ENDBRANCH 18 30
BRANCH 17 33
ATOM     33  O4  BDP B   3      -4.773 -37.909  40.0290  0.00  0.00     0.000 O
BRANCH 33 37
ATOM     34  C1  BDP B   3      -7.999 -35.149  39.5630  0.00  0.00     0.000 C
ATOM     35  C2  BDP B   3      -6.798 -34.686  40.3780  0.00  0.00     0.000 C
ATOM     36  C3  BDP B   3      -5.545 -35.525  40.1510  0.00  0.00     0.000 C
ATOM     37  C4  BDP B   3      -5.913 -37.016  40.1970  0.00  0.00     0.000 C
ATOM     38  C5  BDP B   3      -7.010 -37.250  39.1410  0.00  0.00     0.000 C
ATOM     39  O5  BDP B   3      -8.166 -36.570  39.6290  0.00  0.00     0.000 O
ATOM     40   O  BDP B   3      -6.596 -33.311  40.0450  0.00  0.00     0.000 O
ATOM     42  HD  BDP B   3      -7.237 -33.237  40.6230  0.00  0.00     0.000 HD
ATOM     42   O  BDP B   3      -4.624 -35.173  41.1820  0.00  0.00     0.000 O
ATOM     44  HD  BDP B   3      -5.265 -35.099  41.7600  0.00  0.00     0.000 HD
BRANCH 38 44
ATOM     44   C  BDP B   3      -7.334 -38.690  38.8940  0.00  0.00     0.000 C
ATOM     45   O  BDP B   3      -7.973 -39.305  39.7750  0.00  0.00     0.000 OA
ATOM     46   O  BDP B   3      -6.964 -39.233  37.8300  0.00  0.00     0.000 OA
ENDBRANCH 38 44
BRANCH 34 47
ATOM     47  O3  NAG B   4      -9.218 -35.033  40.2940  0.00  0.00     0.000 O
BRANCH 47 50
ATOM     48  C1  NAG B   4     -12.178 -33.308  38.7410  0.00  0.00     0.000 C
ATOM     49  C2  NAG B   4     -10.813 -33.427  39.3950  0.00  0.00     0.000 C
ATOM     50  C3  NAG B   4     -10.483 -34.899  39.6130  0.00  0.00     0.000 C
ATOM     51  C4  NAG B   4     -11.567 -35.603  40.4140  0.00  0.00     0.000 C
ATOM     52  C5  NAG B   4     -12.926 -35.389  39.7470  0.00  0.00     0.000 C
ATOM     53  O5  NAG B   4     -13.166 -33.992  39.5380  0.00  0.00     0.000 O
ATOM     54   O  NAG B   4     -11.257 -36.997  40.4930  0.00  0.00     0.000 O
ATOM     56  HD  NAG B   4     -11.873 -36.760  41.0530  0.00  0.00     0.000 HD
ATOM     56   C  NAG B   4     -14.054 -35.975  40.5890  0.00  0.00     0.000 C
ATOM     57   O  NAG B   4     -14.063 -35.332  41.8710  0.00  0.00     0.000 O
ATOM     59  HD  NAG B   4     -14.679 -35.095  42.4310  0.00  0.00     0.000 HD
BRANCH 49 61
ATOM     59   N  NAG B   4     -10.364 -32.260  38.6340  0.00  0.00     0.000 N
ATOM     61  HD  NAG B   4     -10.612 -32.454  39.4410  0.00  0.00     0.000 HD
ATOM     61   O  NAG B   4      -9.002 -31.408  40.2230  0.00  0.00     0.000 OA
ATOM     62   C  NAG B   4      -9.446 -31.396  39.0840  0.00  0.00     0.000 C
ATOM     63   C  NAG B   4      -8.958 -30.394  38.0860  0.00  0.00     0.000 C
ENDBRANCH 49 61
BRANCH 48 64
ATOM     64  O4  BDP B   5     -12.753 -32.344  37.8640  0.00  0.00     0.000 O
BRANCH 64 68
ATOM     65  C1  BDP B   5     -15.328 -30.633  35.0690  0.00  0.00     0.000 C
ATOM     66  C2  BDP B   5     -15.006 -29.780  36.2890  0.00  0.00     0.000 C
ATOM     67  C3  BDP B   5     -13.761 -30.323  36.9790  0.00  0.00     0.000 C
ATOM     68  C4  BDP B   5     -13.957 -31.793  37.3340  0.00  0.00     0.000 C
ATOM     69  C5  BDP B   5     -14.383 -32.622  36.1290  0.00  0.00     0.000 C
ATOM     70  O5  BDP B   5     -15.494 -32.005  35.4570  0.00  0.00     0.000 O
ATOM     71   O  BDP B   5     -14.836 -28.411  35.8890  0.00  0.00     0.000 O
ATOM     73  HD  BDP B   5     -14.724 -27.606  35.5910  0.00  0.00     0.000 HD
ATOM     73   O  BDP B   5     -13.485 -29.582  38.1740  0.00  0.00     0.000 O
ATOM     75  HD  BDP B   5     -13.373 -28.776  37.8760  0.00  0.00     0.000 HD
BRANCH 69 75
ATOM     75   C  BDP B   5     -14.785 -33.991  36.6160  0.00  0.00     0.000 C
ATOM     76   O  BDP B   5     -14.210 -34.991  36.1390  0.00  0.00     0.000 OA
ATOM     77   O  BDP B   5     -15.676 -34.087  37.4800  0.00  0.00     0.000 OA
ENDBRANCH 69 75
BRANCH 65 78
ATOM     78  O3  NAG B   6     -16.626 -30.868  34.5170  0.00  0.00     0.000 O
BRANCH 78 81
ATOM     79  C1  NAG B   6     -18.610 -30.061  31.3940  0.00  0.00     0.000 C
ATOM     80  C2  NAG B   6     -18.006 -29.841  32.7910  0.00  0.00     0.000 C
ATOM     81  C3  NAG B   6     -17.076 -30.989  33.1500  0.00  0.00     0.000 C
ATOM     82  C4  NAG B   6     -17.772 -32.338  32.9460  0.00  0.00     0.000 C
ATOM     83  C5  NAG B   6     -18.307 -32.422  31.5210  0.00  0.00     0.000 C
ATOM     84  O5  NAG B   6     -19.239 -31.354  31.3450  0.00  0.00     0.000 O
BRANCH 80 87
ATOM     85   N  NAG B   6     -18.269 -28.685  33.6430  0.00  0.00     0.000 N
ATOM     87  HD  NAG B   6     -18.077 -28.211  34.3420  0.00  0.00     0.000 HD
ATOM     87   C  NAG B   6     -17.419 -27.663  33.8030  0.00  0.00     0.000 C
ATOM     88   C  NAG B   6     -17.893 -26.558  34.6930  0.00  0.00     0.000 C
ATOM     89   O  NAG B   6     -16.326 -27.611  33.2520  0.00  0.00     0.000 OA
ENDBRANCH 80 87
ATOM     90   O  NAG B   6     -18.215 -34.481  30.2550  0.00  0.00     0.000 O
ATOM     92  HD  NAG B   6     -18.206 -33.615  30.2180  0.00  0.00     0.000 HD
ATOM     92   O  NAG B   6     -18.215 -34.481  30.2550  0.00  0.00     0.000 O
ATOM     94  HD  NAG B   6     -18.206 -33.615  30.2180  0.00  0.00     0.000 HD
ENDBRANCH 78 81
ENDBRANCH 65 78
ENDBRANCH 64 68
ENDBRANCH 48 64
ENDBRANCH 47 50
ENDBRANCH 34 47
ENDBRANCH 33 37
ENDBRANCH 17 33
ENDBRANCH 16 19
ENDBRANCH 1 16
TORSDOF 16
ENDMDL
MODEL 28
REMARK VINA RESULT:      -9.9     31.049     35.001
ROOT
ATOM      1  C1  BDP B   1       5.389   3.852  52.6750  0.00  0.00     0.000 C
ATOM      2  C2  BDP B   1       5.071   4.439  51.3120  0.00  0.00     0.000 C
ATOM      3  C3  BDP B   1       5.175   5.949  51.3030  0.00  0.00     0.000 C
ATOM      4  C4  BDP B   1       5.900   6.529  52.5120  0.00  0.00     0.000 C
ATOM      5  C5  BDP B   1       5.425   5.926  53.8310  0.00  0.00     0.000 C
ATOM      6  O5  BDP B   1       4.747   4.673  53.6400  0.00  0.00     0.000 O
ATOM      7   O  BDP B   1       5.955   3.890  50.3280  0.00  0.00     0.000 O
ATOM      9  HD  BDP B   1       6.371   3.221  49.9700  0.00  0.00     0.000 HD
ATOM      9   O  BDP B   1       3.862   6.530  51.2620  0.00  0.00     0.000 O
ATOM     11  HD  BDP B   1       4.279   5.861  50.9040  0.00  0.00     0.000 HD
ATOM     11   O  BDP B   1       7.316   6.348  52.3800  0.00  0.00     0.000 O
ATOM     13  HD  BDP B   1       7.732   5.679  52.0220  0.00  0.00     0.000 HD
ENDROOT
BRANCH 5 13
ATOM     13   C  BDP B   1       4.499   6.909  54.4560  0.00  0.00     0.000 C
ATOM     14   O  BDP B   1       3.858   6.554  55.4680  0.00  0.00     0.000 OA
ATOM     15   O  BDP B   1       4.411   8.057  53.9700  0.00  0.00     0.000 OA
ENDBRANCH 5 13
BRANCH 1 16
ATOM     16  O3  NAG B   2       6.386   2.912  53.0710  0.00  0.00     0.000 O
BRANCH 16 19
ATOM     17  C1  NAG B   2       6.079   0.546  55.8210  0.00  0.00     0.000 C
ATOM     18  C2  NAG B   2       5.670   1.017  54.4250  0.00  0.00     0.000 C
ATOM     19  C3  NAG B   2       6.827   1.730  53.7400  0.00  0.00     0.000 C
ATOM     20  C4  NAG B   2       7.941   2.082  54.7300  0.00  0.00     0.000 C
ATOM     21  C5  NAG B   2       7.465   2.471  56.1360  0.00  0.00     0.000 C
ATOM     22  O5  NAG B   2       6.310   1.742  56.5680  0.00  0.00     0.000 O
ATOM     23   O  NAG B   2       8.843   0.973  54.8120  0.00  0.00     0.000 O
ATOM     25  HD  NAG B   2       8.218   0.374  54.8020  0.00  0.00     0.000 HD
ATOM     25   C  NAG B   2       7.152   3.972  56.2050  0.00  0.00     0.000 C
ATOM     26   O  NAG B   2       8.328   4.748  56.4750  0.00  0.00     0.000 O
ATOM     28  HD  NAG B   2       7.703   4.149  56.4650  0.00  0.00     0.000 HD
BRANCH 18 30
ATOM     28   N  NAG B   2       5.425   0.053  53.3530  0.00  0.00     0.000 N
ATOM     30  HD  NAG B   2       4.787  -0.366  52.9440  0.00  0.00     0.000 HD
ATOM     30   C  NAG B   2       5.755  -1.246  53.3990  0.00  0.00     0.000 C
ATOM     31   C  NAG B   2       5.408  -2.030  52.1650  0.00  0.00     0.000 C
ATOM     32   O  NAG B   2       6.286  -1.765  54.3530  0.00  0.00     0.000 OA
ENDBRANCH 18 30
BRANCH 17 33
ATOM     33  O4  BDP B   3       5.771   0.135  57.1710  0.00  0.00     0.000 O
BRANCH 33 37
ATOM     34  C1  BDP B   3       5.137  -2.639  60.3560  0.00  0.00     0.000 C
ATOM     35  C2  BDP B   3       5.889  -3.145  59.1300  0.00  0.00     0.000 C
ATOM     36  C3  BDP B   3       6.441  -2.030  58.2490  0.00  0.00     0.000 C
ATOM     37  C4  BDP B   3       5.357  -0.962  58.0360  0.00  0.00     0.000 C
ATOM     38  C5  BDP B   3       4.909  -0.481  59.4300  0.00  0.00     0.000 C
ATOM     39  O5  BDP B   3       4.225  -1.587  60.0190  0.00  0.00     0.000 O
ATOM     40   O  BDP B   3       6.919  -4.006  59.6210  0.00  0.00     0.000 O
ATOM     42  HD  BDP B   3       6.242  -4.545  59.6440  0.00  0.00     0.000 HD
ATOM     42   O  BDP B   3       6.836  -2.637  57.0200  0.00  0.00     0.000 O
ATOM     44  HD  BDP B   3       6.159  -3.176  57.0430  0.00  0.00     0.000 HD
BRANCH 38 44
ATOM     44   C  BDP B   3       4.013   0.718  59.4120  0.00  0.00     0.000 C
ATOM     45   O  BDP B   3       2.787   0.530  59.2540  0.00  0.00     0.000 OA
ATOM     46   O  BDP B   3       4.504   1.859  59.5530  0.00  0.00     0.000 OA
ENDBRANCH 38 44
BRANCH 34 47
ATOM     47  O3  NAG B   4       4.000  -3.446  60.6550  0.00  0.00     0.000 O
BRANCH 47 50
ATOM     48  C1  NAG B   4       3.429  -4.260  64.2820  0.00  0.00     0.000 C
ATOM     49  C2  NAG B   4       4.142  -4.270  62.9410  0.00  0.00     0.000 C
ATOM     50  C3  NAG B   4       3.376  -3.397  61.9540  0.00  0.00     0.000 C
ATOM     51  C4  NAG B   4       1.923  -3.829  61.8360  0.00  0.00     0.000 C
ATOM     52  C5  NAG B   4       1.278  -3.868  63.2220  0.00  0.00     0.000 C
ATOM     53  O5  NAG B   4       2.059  -4.674  64.1130  0.00  0.00     0.000 O
ATOM     54   O  NAG B   4       1.232  -2.911  60.9840  0.00  0.00     0.000 O
ATOM     56  HD  NAG B   4       0.783  -3.638  61.1250  0.00  0.00     0.000 HD
ATOM     56   C  NAG B   4      -0.142  -4.416  63.1570  0.00  0.00     0.000 C
ATOM     57   O  NAG B   4      -0.105  -5.748  62.6270  0.00  0.00     0.000 O
ATOM     59  HD  NAG B   4      -0.555  -6.475  62.7690  0.00  0.00     0.000 HD
BRANCH 49 61
ATOM     59   N  NAG B   4       5.490  -4.145  63.4970  0.00  0.00     0.000 N
ATOM     61  HD  NAG B   4       4.956  -4.768  63.2210  0.00  0.00     0.000 HD
ATOM     61   O  NAG B   4       6.487  -5.642  62.1310  0.00  0.00     0.000 OA
ATOM     62   C  NAG B   4       6.555  -4.783  62.9990  0.00  0.00     0.000 C
ATOM     63   C  NAG B   4       7.879  -4.368  63.5580  0.00  0.00     0.000 C
ENDBRANCH 49 61
BRANCH 48 64
ATOM     64  O4  BDP B   5       3.884  -4.405  65.6240  0.00  0.00     0.000 O
BRANCH 64 68
ATOM     65  C1  BDP B   5       4.748  -5.579  69.5290  0.00  0.00     0.000 C
ATOM     66  C2  BDP B   5       5.335  -6.449  68.4260  0.00  0.00     0.000 C
ATOM     67  C3  BDP B   5       5.313  -5.688  67.1060  0.00  0.00     0.000 C
ATOM     68  C4  BDP B   5       3.894  -5.227  66.7900  0.00  0.00     0.000 C
ATOM     69  C5  BDP B   5       3.274  -4.446  67.9410  0.00  0.00     0.000 C
ATOM     70  O5  BDP B   5       3.417  -5.167  69.1770  0.00  0.00     0.000 O
ATOM     71   O  BDP B   5       6.666  -6.850  68.7850  0.00  0.00     0.000 O
ATOM     73  HD  BDP B   5       7.470  -7.046  69.0410  0.00  0.00     0.000 HD
ATOM     73   O  BDP B   5       5.789  -6.517  66.0400  0.00  0.00     0.000 O
ATOM     75  HD  BDP B   5       6.593  -6.713  66.2950  0.00  0.00     0.000 HD
BRANCH 69 75
ATOM     75   C  BDP B   5       1.810  -4.246  67.6430  0.00  0.00     0.000 C
ATOM     76   O  BDP B   5       1.248  -3.214  68.0610  0.00  0.00     0.000 OA
ATOM     77   O  BDP B   5       1.204  -5.112  66.9840  0.00  0.00     0.000 OA
ENDBRANCH 69 75
BRANCH 65 78
ATOM     78  O3  NAG B   6       4.055  -6.037  70.6930  0.00  0.00     0.000 O
BRANCH 78 81
ATOM     79  C1  NAG B   6       4.411  -5.529  74.4280  0.00  0.00     0.000 C
ATOM     80  C2  NAG B   6       4.749  -6.067  73.0290  0.00  0.00     0.000 C
ATOM     81  C3  NAG B   6       3.848  -5.426  71.9860  0.00  0.00     0.000 C
ATOM     82  C4  NAG B   6       2.375  -5.543  72.3900  0.00  0.00     0.000 C
ATOM     83  C5  NAG B   6       2.186  -4.962  73.7870  0.00  0.00     0.000 C
ATOM     84  O5  NAG B   6       3.007  -5.713  74.6830  0.00  0.00     0.000 O
BRANCH 80 87
ATOM     85   N  NAG B   6       5.768  -7.044  72.6530  0.00  0.00     0.000 N
ATOM     87  HD  NAG B   6       6.268  -7.408  72.0470  0.00  0.00     0.000 HD
ATOM     87   C  NAG B   6       6.991  -6.721  72.2160  0.00  0.00     0.000 C
ATOM     88   C  NAG B   6       7.898  -7.871  71.9170  0.00  0.00     0.000 C
ATOM     89   O  NAG B   6       7.367  -5.562  72.0780  0.00  0.00     0.000 OA
ENDBRANCH 80 87
ATOM     90   O  NAG B   6       0.224  -3.672  74.3640  0.00  0.00     0.000 O
ATOM     92  HD  NAG B   6       1.067  -3.799  74.5130  0.00  0.00     0.000 HD
ATOM     92   O  NAG B   6       0.224  -3.672  74.3640  0.00  0.00     0.000 O
ATOM     94  HD  NAG B   6       1.067  -3.799  74.5130  0.00  0.00     0.000 HD
ENDBRANCH 78 81
ENDBRANCH 65 78
ENDBRANCH 64 68
ENDBRANCH 48 64
ENDBRANCH 47 50
ENDBRANCH 34 47
ENDBRANCH 33 37
ENDBRANCH 17 33
ENDBRANCH 16 19
ENDBRANCH 1 16
TORSDOF 16
ENDMDL
MODEL 29
REMARK VINA RESULT:      -9.7     28.262     31.750
ROOT
ATOM      1  C1  BDP B   1     -21.468 -30.283  30.7240  0.00  0.00     0.000 C
ATOM      2  C2  BDP B   1     -22.526 -31.365  30.6040  0.00  0.00     0.000 C
ATOM      3  C3  BDP B   1     -22.953 -31.588  29.1690  0.00  0.00     0.000 C
ATOM      4  C4  BDP B   1     -22.016 -30.967  28.1380  0.00  0.00     0.000 C
ATOM      5  C5  BDP B   1     -21.634 -29.530  28.4780  0.00  0.00     0.000 C
ATOM      6  O5  BDP B   1     -21.860 -29.222  29.8650  0.00  0.00     0.000 O
ATOM      7   O  BDP B   1     -22.032 -32.591  31.1540  0.00  0.00     0.000 O
ATOM      9  HD  BDP B   1     -21.615 -33.033  31.7710  0.00  0.00     0.000 HD
ATOM      9   O  BDP B   1     -24.262 -31.037  28.9560  0.00  0.00     0.000 O
ATOM     11  HD  BDP B   1     -23.845 -31.479  29.5730  0.00  0.00     0.000 HD
ATOM     11   O  BDP B   1     -20.832 -31.761  27.9960  0.00  0.00     0.000 O
ATOM     13  HD  BDP B   1     -20.415 -32.204  28.6130  0.00  0.00     0.000 HD
ENDROOT
BRANCH 5 13
ATOM     13   C  BDP B   1     -22.466 -28.638  27.6240  0.00  0.00     0.000 C
ATOM     14   O  BDP B   1     -23.610 -28.339  28.0240  0.00  0.00     0.000 OA
ATOM     15   O  BDP B   1     -21.988 -28.199  26.5570  0.00  0.00     0.000 OA
ENDBRANCH 5 13
BRANCH 1 16
ATOM     16  O3  NAG B   2     -20.146 -30.333  31.2580  0.00  0.00     0.000 O
BRANCH 16 19
ATOM     17  C1  NAG B   2     -16.721 -30.685  32.4420  0.00  0.00     0.000 C
ATOM     18  C2  NAG B   2     -17.864 -29.807  31.9310  0.00  0.00     0.000 C
ATOM     19  C3  NAG B   2     -19.210 -30.392  32.3350  0.00  0.00     0.000 C
ATOM     20  C4  NAG B   2     -19.076 -31.837  32.8250  0.00  0.00     0.000 C
ATOM     21  C5  NAG B   2     -18.010 -32.673  32.1040  0.00  0.00     0.000 C
ATOM     22  O5  NAG B   2     -16.850 -31.919  31.7320  0.00  0.00     0.000 O
ATOM     23   O  NAG B   2     -18.809 -31.817  34.2310  0.00  0.00     0.000 O
ATOM     25  HD  NAG B   2     -18.263 -31.146  34.1890  0.00  0.00     0.000 HD
ATOM     25   C  NAG B   2     -18.595 -33.326  30.8440  0.00  0.00     0.000 C
ATOM     26   O  NAG B   2     -19.251 -34.566  31.1440  0.00  0.00     0.000 O
ATOM     28  HD  NAG B   2     -18.705 -33.895  31.1020  0.00  0.00     0.000 HD
BRANCH 18 30
ATOM     28   N  NAG B   2     -18.248 -29.025  33.1050  0.00  0.00     0.000 N
ATOM     30  HD  NAG B   2     -18.828 -28.443  33.3790  0.00  0.00     0.000 HD
ATOM     30   C  NAG B   2     -17.533 -28.015  33.6220  0.00  0.00     0.000 C
ATOM     31   C  NAG B   2     -18.134 -27.373  34.8400  0.00  0.00     0.000 C
ATOM     32   O  NAG B   2     -16.486 -27.632  33.1530  0.00  0.00     0.000 OA
ENDBRANCH 18 30
BRANCH 17 33
ATOM     33  O4  BDP B   3     -15.359 -31.162  32.3950  0.00  0.00     0.000 O
BRANCH 33 37
ATOM     34  C1  BDP B   3     -12.041 -31.154  35.0850  0.00  0.00     0.000 C
ATOM     35  C2  BDP B   3     -12.300 -29.877  34.2930  0.00  0.00     0.000 C
ATOM     36  C3  BDP B   3     -13.701 -29.801  33.6980  0.00  0.00     0.000 C
ATOM     37  C4  BDP B   3     -14.048 -31.142  33.0330  0.00  0.00     0.000 C
ATOM     38  C5  BDP B   3     -13.893 -32.238  34.1040  0.00  0.00     0.000 C
ATOM     39  O5  BDP B   3     -12.494 -32.315  34.3790  0.00  0.00     0.000 O
ATOM     40   O  BDP B   3     -12.031 -28.793  35.1850  0.00  0.00     0.000 O
ATOM     42  HD  BDP B   3     -11.226 -28.992  34.9360  0.00  0.00     0.000 HD
ATOM     42   O  BDP B   3     -13.689 -28.729  32.7570  0.00  0.00     0.000 O
ATOM     44  HD  BDP B   3     -12.884 -28.928  32.5080  0.00  0.00     0.000 HD
BRANCH 38 44
ATOM     44   C  BDP B   3     -14.403 -33.584  33.6920  0.00  0.00     0.000 C
ATOM     45   O  BDP B   3     -15.438 -34.013  34.2480  0.00  0.00     0.000 OA
ATOM     46   O  BDP B   3     -13.791 -34.235  32.8170  0.00  0.00     0.000 OA
ENDBRANCH 38 44
BRANCH 34 47
ATOM     47  O3  NAG B   4     -10.711 -31.636  34.9010  0.00  0.00     0.000 O
BRANCH 47 50
ATOM     48  C1  NAG B   4      -9.033 -33.808  37.4720  0.00  0.00     0.000 C
ATOM     49  C2  NAG B   4      -9.555 -32.525  36.8500  0.00  0.00     0.000 C
ATOM     50  C3  NAG B   4     -10.266 -32.849  35.5420  0.00  0.00     0.000 C
ATOM     51  C4  NAG B   4      -9.366 -33.624  34.5920  0.00  0.00     0.000 C
ATOM     52  C5  NAG B   4      -8.817 -34.865  35.2950  0.00  0.00     0.000 C
ATOM     53  O5  NAG B   4      -8.190 -34.502  36.5320  0.00  0.00     0.000 O
ATOM     54   O  NAG B   4     -10.119 -33.992  33.4340  0.00  0.00     0.000 O
ATOM     56  HD  NAG B   4      -9.266 -34.091  33.3230  0.00  0.00     0.000 HD
ATOM     56   C  NAG B   4      -7.811 -35.600  34.4160  0.00  0.00     0.000 C
ATOM     57   O  NAG B   4      -6.721 -34.718  34.1150  0.00  0.00     0.000 O
ATOM     59  HD  NAG B   4      -5.868 -34.818  34.0050  0.00  0.00     0.000 HD
BRANCH 49 61
ATOM     59   N  NAG B   4     -10.281 -31.880  37.9450  0.00  0.00     0.000 N
ATOM     61  HD  NAG B   4      -9.476 -31.906  37.6260  0.00  0.00     0.000 HD
ATOM     61   O  NAG B   4      -9.329 -29.842  37.7400  0.00  0.00     0.000 OA
ATOM     62   C  NAG B   4     -10.160 -30.582  38.2470  0.00  0.00     0.000 C
ATOM     63   C  NAG B   4     -11.136 -30.058  39.2520  0.00  0.00     0.000 C
ENDBRANCH 49 61
BRANCH 48 64
ATOM     64  O4  BDP B   5      -8.798 -34.208  38.8200  0.00  0.00     0.000 O
BRANCH 64 68
ATOM     65  C1  BDP B   5      -9.978 -37.536  41.0340  0.00  0.00     0.000 C
ATOM     66  C2  BDP B   5     -11.063 -36.506  40.7480  0.00  0.00     0.000 C
ATOM     67  C3  BDP B   5     -10.622 -35.601  39.6050  0.00  0.00     0.000 C
ATOM     68  C4  BDP B   5      -9.281 -34.955  39.9350  0.00  0.00     0.000 C
ATOM     69  C5  BDP B   5      -8.227 -35.984  40.3230  0.00  0.00     0.000 C
ATOM     70  O5  BDP B   5      -8.737 -36.876  41.3300  0.00  0.00     0.000 O
ATOM     71   O  BDP B   5     -12.296 -37.177  40.4480  0.00  0.00     0.000 O
ATOM     73  HD  BDP B   5     -13.008 -37.631  40.2540  0.00  0.00     0.000 HD
ATOM     73   O  BDP B   5     -11.595 -34.576  39.3710  0.00  0.00     0.000 O
ATOM     75  HD  BDP B   5     -12.307 -35.030  39.1780  0.00  0.00     0.000 HD
BRANCH 69 75
ATOM     75   C  BDP B   5      -7.025 -35.251  40.8610  0.00  0.00     0.000 C
ATOM     76   O  BDP B   5      -5.935 -35.854  40.9280  0.00  0.00     0.000 OA
ATOM     77   O  BDP B   5      -7.152 -34.066  41.2200  0.00  0.00     0.000 OA
ENDBRANCH 69 75
BRANCH 65 78
ATOM     78  O3  NAG B   6      -9.695 -38.142  42.2980  0.00  0.00     0.000 O
BRANCH 78 81
ATOM     79  C1  NAG B   6      -8.364 -41.613  43.0190  0.00  0.00     0.000 C
ATOM     80  C2  NAG B   6      -9.317 -40.544  42.4600  0.00  0.00     0.000 C
ATOM     81  C3  NAG B   6      -8.739 -39.156  42.6800  0.00  0.00     0.000 C
ATOM     82  C4  NAG B   6      -8.328 -38.961  44.1430  0.00  0.00     0.000 C
ATOM     83  C5  NAG B   6      -7.378 -40.079  44.5550  0.00  0.00     0.000 C
ATOM     84  O5  NAG B   6      -8.072 -41.317  44.3960  0.00  0.00     0.000 O
BRANCH 80 87
ATOM     85   N  NAG B   6     -10.606 -40.714  41.7960  0.00  0.00     0.000 N
ATOM     87  HD  NAG B   6     -11.231 -40.402  41.2830  0.00  0.00     0.000 HD
ATOM     87   C  NAG B   6     -10.762 -40.773  40.4670  0.00  0.00     0.000 C
ATOM     88   C  NAG B   6     -12.163 -40.986  39.9870  0.00  0.00     0.000 C
ATOM     89   O  NAG B   6      -9.829 -40.676  39.6800  0.00  0.00     0.000 OA
ENDBRANCH 80 87
ATOM     90   O  NAG B   6      -5.483 -39.661  45.9990  0.00  0.00     0.000 O
ATOM     92  HD  NAG B   6      -5.800 -40.145  45.3550  0.00  0.00     0.000 HD
ATOM     92   O  NAG B   6      -5.483 -39.661  45.9990  0.00  0.00     0.000 O
ATOM     94  HD  NAG B   6      -5.800 -40.145  45.3550  0.00  0.00     0.000 HD
ENDBRANCH 78 81
ENDBRANCH 65 78
ENDBRANCH 64 68
ENDBRANCH 48 64
ENDBRANCH 47 50
ENDBRANCH 34 47
ENDBRANCH 33 37
ENDBRANCH 17 33
ENDBRANCH 16 19
ENDBRANCH 1 16
TORSDOF 16
ENDMDL
MODEL 30
REMARK VINA RESULT:      -9.7      6.097      8.035
ROOT
ATOM      1  C1  BDP B   1       1.008  -3.712  24.6260  0.00  0.00     0.000 C
ATOM      2  C2  BDP B   1       0.076  -3.340  23.4870  0.00  0.00     0.000 C
ATOM      3  C3  BDP B   1      -0.921  -4.439  23.1840  0.00  0.00     0.000 C
ATOM      4  C4  BDP B   1      -1.024  -5.501  24.2730  0.00  0.00     0.000 C
ATOM      5  C5  BDP B   1       0.339  -5.987  24.7560  0.00  0.00     0.000 C
ATOM      6  O5  BDP B   1       1.391  -5.065  24.4240  0.00  0.00     0.000 O
ATOM      7   O  BDP B   1      -0.622  -2.131  23.8040  0.00  0.00     0.000 O
ATOM      9  HD  BDP B   1      -0.639  -1.323  24.1140  0.00  0.00     0.000 HD
ATOM      9   O  BDP B   1      -0.564  -5.102  21.9610  0.00  0.00     0.000 O
ATOM     11  HD  BDP B   1      -0.580  -4.293  22.2710  0.00  0.00     0.000 HD
ATOM     11   O  BDP B   1      -1.782  -5.006  25.3840  0.00  0.00     0.000 O
ATOM     13  HD  BDP B   1      -1.799  -4.197  25.6940  0.00  0.00     0.000 HD
ENDROOT
BRANCH 5 13
ATOM     13   C  BDP B   1       0.596  -7.299  24.1010  0.00  0.00     0.000 C
ATOM     14   O  BDP B   1      -0.385  -8.000  23.7810  0.00  0.00     0.000 OA
ATOM     15   O  BDP B   1       1.776  -7.642  23.8700  0.00  0.00     0.000 OA
ENDBRANCH 5 13
BRANCH 1 16
ATOM     16  O3  NAG B   2       1.244  -3.070  25.8780  0.00  0.00     0.000 O
BRANCH 16 19
ATOM     17  C1  NAG B   2       1.920  -2.150  29.3350  0.00  0.00     0.000 C
ATOM     18  C2  NAG B   2       1.980  -1.829  27.8410  0.00  0.00     0.000 C
ATOM     19  C3  NAG B   2       0.818  -2.480  27.1070  0.00  0.00     0.000 C
ATOM     20  C4  NAG B   2       0.120  -3.535  27.9700  0.00  0.00     0.000 C
ATOM     21  C5  NAG B   2       1.046  -4.335  28.8970  0.00  0.00     0.000 C
ATOM     22  O5  NAG B   2       2.130  -3.562  29.4240  0.00  0.00     0.000 O
ATOM     23   O  NAG B   2      -0.898  -2.889  28.7420  0.00  0.00     0.000 O
ATOM     25  HD  NAG B   2      -0.418  -2.191  28.9200  0.00  0.00     0.000 HD
ATOM     25   C  NAG B   2       1.624  -5.553  28.1630  0.00  0.00     0.000 C
ATOM     26   O  NAG B   2       0.733  -6.677  28.2150  0.00  0.00     0.000 O
ATOM     28  HD  NAG B   2       1.213  -5.978  28.3930  0.00  0.00     0.000 HD
BRANCH 18 30
ATOM     28   N  NAG B   2       1.168  -0.774  28.4450  0.00  0.00     0.000 N
ATOM     30  HD  NAG B   2       0.352  -0.492  28.5080  0.00  0.00     0.000 HD
ATOM     30   C  NAG B   2       1.204   0.519  28.0940  0.00  0.00     0.000 C
ATOM     31   C  NAG B   2       0.279   1.411  28.8720  0.00  0.00     0.000 C
ATOM     32   O  NAG B   2       1.914   0.951  27.2160  0.00  0.00     0.000 OA
ENDBRANCH 18 30
BRANCH 17 33
ATOM     33  O4  BDP B   3       2.530  -2.294  30.6360  0.00  0.00     0.000 O
BRANCH 33 37
ATOM     34  C1  BDP B   3       6.546  -2.799  32.0000  0.00  0.00     0.000 C
ATOM     35  C2  BDP B   3       5.482  -3.697  32.6190  0.00  0.00     0.000 C
ATOM     36  C3  BDP B   3       4.192  -3.764  31.8090  0.00  0.00     0.000 C
ATOM     37  C4  BDP B   3       3.779  -2.345  31.3870  0.00  0.00     0.000 C
ATOM     38  C5  BDP B   3       4.962  -1.736  30.6110  0.00  0.00     0.000 C
ATOM     39  O5  BDP B   3       5.998  -1.546  31.5750  0.00  0.00     0.000 O
ATOM     40   O  BDP B   3       6.087  -4.982  32.7800  0.00  0.00     0.000 O
ATOM     42  HD  BDP B   3       6.399  -4.575  33.4780  0.00  0.00     0.000 HD
ATOM     42   O  BDP B   3       3.213  -4.374  32.6470  0.00  0.00     0.000 O
ATOM     44  HD  BDP B   3       3.525  -3.968  33.3450  0.00  0.00     0.000 HD
BRANCH 38 44
ATOM     44   C  BDP B   3       4.655  -0.437  29.9340  0.00  0.00     0.000 C
ATOM     45   O  BDP B   3       4.100   0.458  30.6090  0.00  0.00     0.000 OA
ATOM     46   O  BDP B   3       4.956  -0.281  28.7300  0.00  0.00     0.000 OA
ENDBRANCH 38 44
BRANCH 34 47
ATOM     47  O3  NAG B   4       7.276  -2.076  32.9890  0.00  0.00     0.000 O
BRANCH 47 50
ATOM     48  C1  NAG B   4      10.977  -2.474  33.5300  0.00  0.00     0.000 C
ATOM     49  C2  NAG B   4       9.500  -2.808  33.6550  0.00  0.00     0.000 C
ATOM     50  C3  NAG B   4       8.686  -1.817  32.8300  0.00  0.00     0.000 C
ATOM     51  C4  NAG B   4       8.986  -0.380  33.2260  0.00  0.00     0.000 C
ATOM     52  C5  NAG B   4      10.492  -0.125  33.1480  0.00  0.00     0.000 C
ATOM     53  O5  NAG B   4      11.205  -1.104  33.9130  0.00  0.00     0.000 O
ATOM     54   O  NAG B   4       8.279   0.501  32.3490  0.00  0.00     0.000 O
ATOM     56  HD  NAG B   4       8.588   0.905  33.0500  0.00  0.00     0.000 HD
ATOM     56   C  NAG B   4      10.844   1.268  33.6570  0.00  0.00     0.000 C
ATOM     57   O  NAG B   4      10.425   1.387  35.0230  0.00  0.00     0.000 O
ATOM     59  HD  NAG B   4      10.734   1.790  35.7240  0.00  0.00     0.000 HD
BRANCH 49 61
ATOM     59   N  NAG B   4       9.674  -4.256  33.5340  0.00  0.00     0.000 N
ATOM     61  HD  NAG B   4       9.593  -3.661  34.1580  0.00  0.00     0.000 HD
ATOM     61   O  NAG B   4       8.208  -4.841  35.1490  0.00  0.00     0.000 OA
ATOM     62   C  NAG B   4       8.963  -5.145  34.2370  0.00  0.00     0.000 C
ATOM     63   C  NAG B   4       9.125  -6.574  33.8250  0.00  0.00     0.000 C
ENDBRANCH 49 61
BRANCH 48 64
ATOM     64  O4  BDP B   5      12.159  -3.267  33.5940  0.00  0.00     0.000 O
BRANCH 64 68
ATOM     65  C1  BDP B   5      15.724  -4.831  35.0830  0.00  0.00     0.000 C
ATOM     66  C2  BDP B   5      15.153  -3.638  35.8370  0.00  0.00     0.000 C
ATOM     67  C3  BDP B   5      13.686  -3.453  35.4690  0.00  0.00     0.000 C
ATOM     68  C4  BDP B   5      13.538  -3.311  33.9590  0.00  0.00     0.000 C
ATOM     69  C5  BDP B   5      14.203  -4.456  33.2050  0.00  0.00     0.000 C
ATOM     70  O5  BDP B   5      15.551  -4.650  33.6680  0.00  0.00     0.000 O
ATOM     71   O  BDP B   5      15.326  -3.832  37.2490  0.00  0.00     0.000 O
ATOM     73  HD  BDP B   5      15.437  -4.008  38.0890  0.00  0.00     0.000 HD
ATOM     73   O  BDP B   5      13.150  -2.289  36.1080  0.00  0.00     0.000 O
ATOM     75  HD  BDP B   5      13.261  -2.465  36.9490  0.00  0.00     0.000 HD
BRANCH 69 75
ATOM     75   C  BDP B   5      14.219  -4.111  31.7380  0.00  0.00     0.000 C
ATOM     76   O  BDP B   5      14.961  -3.187  31.3470  0.00  0.00     0.000 OA
ATOM     77   O  BDP B   5      13.497  -4.758  30.9580  0.00  0.00     0.000 OA
ENDBRANCH 69 75
BRANCH 65 78
ATOM     78  O3  NAG B   6      17.081  -5.002  34.6650  0.00  0.00     0.000 O
BRANCH 78 81
ATOM     79  C1  NAG B   6      19.950  -7.381  35.3330  0.00  0.00     0.000 C
ATOM     80  C2  NAG B   6      18.987  -6.209  35.5850  0.00  0.00     0.000 C
ATOM     81  C3  NAG B   6      17.897  -6.185  34.5260  0.00  0.00     0.000 C
ATOM     82  C4  NAG B   6      18.502  -6.240  33.1190  0.00  0.00     0.000 C
ATOM     83  C5  NAG B   6      19.420  -7.453  33.0090  0.00  0.00     0.000 C
ATOM     84  O5  NAG B   6      20.451  -7.304  33.9860  0.00  0.00     0.000 O
BRANCH 80 87
ATOM     85   N  NAG B   6      18.597  -6.346  36.9860  0.00  0.00     0.000 N
ATOM     87  HD  NAG B   6      18.767  -6.221  37.8250  0.00  0.00     0.000 HD
ATOM     87   C  NAG B   6      18.323  -5.312  37.7910  0.00  0.00     0.000 C
ATOM     88   C  NAG B   6      17.907  -5.667  39.1830  0.00  0.00     0.000 C
ATOM     89   O  NAG B   6      18.389  -4.145  37.4260  0.00  0.00     0.000 OA
ENDBRANCH 80 87
ATOM     90   O  NAG B   6      19.521  -8.783  30.9920  0.00  0.00     0.000 O
ATOM     92  HD  NAG B   6      19.598  -8.782  31.8550  0.00  0.00     0.000 HD
ATOM     92   O  NAG B   6      19.521  -8.783  30.9920  0.00  0.00     0.000 O
ATOM     94  HD  NAG B   6      19.598  -8.782  31.8550  0.00  0.00     0.000 HD
ENDBRANCH 78 81
ENDBRANCH 65 78
ENDBRANCH 64 68
ENDBRANCH 48 64
ENDBRANCH 47 50
ENDBRANCH 34 47
ENDBRANCH 33 37
ENDBRANCH 17 33
ENDBRANCH 16 19
ENDBRANCH 1 16
TORSDOF 16
ENDMDL
MODEL 31
REMARK VINA RESULT:      -9.7     13.289     16.683
ROOT
ATOM      1  C1  BDP B   1      18.059  -3.883  35.8580  0.00  0.00     0.000 C
ATOM      2  C2  BDP B   1      16.663  -3.839  35.2610  0.00  0.00     0.000 C
ATOM      3  C3  BDP B   1      16.683  -3.476  33.7920  0.00  0.00     0.000 C
ATOM      4  C4  BDP B   1      18.060  -3.579  33.1450  0.00  0.00     0.000 C
ATOM      5  C5  BDP B   1      19.156  -2.927  33.9820  0.00  0.00     0.000 C
ATOM      6  O5  BDP B   1      18.761  -2.756  35.3540  0.00  0.00     0.000 O
ATOM      7   O  BDP B   1      16.020  -5.107  35.4350  0.00  0.00     0.000 O
ATOM      9  HD  BDP B   1      15.818  -5.796  35.9180  0.00  0.00     0.000 HD
ATOM      9   O  BDP B   1      16.217  -2.129  33.6140  0.00  0.00     0.000 O
ATOM     11  HD  BDP B   1      16.016  -2.819  34.0970  0.00  0.00     0.000 HD
ATOM     11   O  BDP B   1      18.393  -4.951  32.8950  0.00  0.00     0.000 O
ATOM     13  HD  BDP B   1      18.191  -5.640  33.3790  0.00  0.00     0.000 HD
ENDROOT
BRANCH 5 13
ATOM     13   C  BDP B   1      19.444  -1.600  33.3730  0.00  0.00     0.000 C
ATOM     14   O  BDP B   1      18.895  -0.593  33.8670  0.00  0.00     0.000 OA
ATOM     15   O  BDP B   1      20.241  -1.532  32.4120  0.00  0.00     0.000 OA
ENDBRANCH 5 13
BRANCH 1 16
ATOM     16  O3  NAG B   2      18.759  -4.945  36.5030  0.00  0.00     0.000 O
BRANCH 16 19
ATOM     17  C1  NAG B   2      18.930  -8.580  36.6210  0.00  0.00     0.000 C
ATOM     18  C2  NAG B   2      18.779  -7.284  35.8230  0.00  0.00     0.000 C
ATOM     19  C3  NAG B   2      19.530  -6.148  36.5010  0.00  0.00     0.000 C
ATOM     20  C4  NAG B   2      19.929  -6.508  37.9350  0.00  0.00     0.000 C
ATOM     21  C5  NAG B   2      18.921  -7.382  38.6920  0.00  0.00     0.000 C
ATOM     22  O5  NAG B   2      18.257  -8.338  37.8580  0.00  0.00     0.000 O
ATOM     23   O  NAG B   2      21.205  -7.156  37.9010  0.00  0.00     0.000 O
ATOM     25  HD  NAG B   2      21.027  -7.623  37.1940  0.00  0.00     0.000 HD
ATOM     25   C  NAG B   2      17.859  -6.511  39.3800  0.00  0.00     0.000 C
ATOM     26   O  NAG B   2      18.302  -6.048  40.6630  0.00  0.00     0.000 O
ATOM     28  HD  NAG B   2      18.125  -6.515  39.9560  0.00  0.00     0.000 HD
BRANCH 18 30
ATOM     28   N  NAG B   2      19.108  -7.793  34.4910  0.00  0.00     0.000 N
ATOM     30  HD  NAG B   2      19.081  -8.511  34.0080  0.00  0.00     0.000 HD
ATOM     30   C  NAG B   2      20.351  -7.958  34.0180  0.00  0.00     0.000 C
ATOM     31   C  NAG B   2      20.427  -8.486  32.6130  0.00  0.00     0.000 C
ATOM     32   O  NAG B   2      21.346  -7.713  34.6590  0.00  0.00     0.000 OA
ENDBRANCH 18 30
BRANCH 17 33
ATOM     33  O4  BDP B   3      18.494  -9.903  37.0020  0.00  0.00     0.000 O
BRANCH 33 37
ATOM     34  C1  BDP B   3      18.597 -13.893  35.4820  0.00  0.00     0.000 C
ATOM     35  C2  BDP B   3      17.847 -12.853  34.6590  0.00  0.00     0.000 C
ATOM     36  C3  BDP B   3      18.202 -11.415  35.0210  0.00  0.00     0.000 C
ATOM     37  C4  BDP B   3      18.203 -11.257  36.5490  0.00  0.00     0.000 C
ATOM     38  C5  BDP B   3      19.190 -12.297  37.1160  0.00  0.00     0.000 C
ATOM     39  O5  BDP B   3      18.589 -13.569  36.8780  0.00  0.00     0.000 O
ATOM     40   O  BDP B   3      18.125 -13.151  33.2900  0.00  0.00     0.000 O
ATOM     42  HD  BDP B   3      17.501 -13.729  33.4500  0.00  0.00     0.000 HD
ATOM     42   O  BDP B   3      17.222 -10.583  34.4030  0.00  0.00     0.000 O
ATOM     44  HD  BDP B   3      16.598 -11.162  34.5630  0.00  0.00     0.000 HD
BRANCH 38 44
ATOM     44   C  BDP B   3      19.484 -12.140  38.5750  0.00  0.00     0.000 C
ATOM     45   O  BDP B   3      20.679 -12.010  38.9210  0.00  0.00     0.000 OA
ATOM     46   O  BDP B   3      18.543 -12.143  39.3990  0.00  0.00     0.000 OA
ENDBRANCH 38 44
BRANCH 34 47
ATOM     47  O3  NAG B   4      17.777 -15.016  35.8000  0.00  0.00     0.000 O
BRANCH 47 50
ATOM     48  C1  NAG B   4      18.168 -18.535  34.5310  0.00  0.00     0.000 C
ATOM     49  C2  NAG B   4      17.663 -17.104  34.5520  0.00  0.00     0.000 C
ATOM     50  C3  NAG B   4      18.296 -16.360  35.7230  0.00  0.00     0.000 C
ATOM     51  C4  NAG B   4      18.048 -17.076  37.0410  0.00  0.00     0.000 C
ATOM     52  C5  NAG B   4      18.512 -18.529  36.9370  0.00  0.00     0.000 C
ATOM     53  O5  NAG B   4      17.911 -19.165  35.8020  0.00  0.00     0.000 O
ATOM     54   O  NAG B   4      18.753 -16.394  38.0810  0.00  0.00     0.000 O
ATOM     56  HD  NAG B   4      18.170 -16.956  38.3870  0.00  0.00     0.000 HD
ATOM     56   C  NAG B   4      18.165 -19.312  38.1970  0.00  0.00     0.000 C
ATOM     57   O  NAG B   4      16.744 -19.294  38.3830  0.00  0.00     0.000 O
ATOM     59  HD  NAG B   4      16.160 -19.856  38.6890  0.00  0.00     0.000 HD
BRANCH 49 61
ATOM     59   N  NAG B   4      17.844 -16.730  33.1490  0.00  0.00     0.000 N
ATOM     61  HD  NAG B   4      17.231 -17.071  33.6570  0.00  0.00     0.000 HD
ATOM     61   O  NAG B   4      15.809 -15.797  32.8500  0.00  0.00     0.000 OA
ATOM     62   C  NAG B   4      16.935 -16.047  32.4440  0.00  0.00     0.000 C
ATOM     63   C  NAG B   4      17.383 -15.572  31.0980  0.00  0.00     0.000 C
ENDBRANCH 49 61
BRANCH 48 64
ATOM     64  O4  BDP B   5      18.371 -19.477  33.4820  0.00  0.00     0.000 O
BRANCH 64 68
ATOM     65  C1  BDP B   5      19.382 -22.698  31.0370  0.00  0.00     0.000 C
ATOM     66  C2  BDP B   5      18.443 -23.008  32.1950  0.00  0.00     0.000 C
ATOM     67  C3  BDP B   5      17.831 -21.716  32.7190  0.00  0.00     0.000 C
ATOM     68  C4  BDP B   5      18.932 -20.736  33.1110  0.00  0.00     0.000 C
ATOM     69  C5  BDP B   5      19.929 -20.510  31.9820  0.00  0.00     0.000 C
ATOM     70  O5  BDP B   5      20.392 -21.766  31.4570  0.00  0.00     0.000 O
ATOM     71   O  BDP B   5      17.435 -23.935  31.7620  0.00  0.00     0.000 O
ATOM     73  HD  BDP B   5      16.839 -24.477  31.4440  0.00  0.00     0.000 HD
ATOM     73   O  BDP B   5      17.004 -21.977  33.8590  0.00  0.00     0.000 O
ATOM     75  HD  BDP B   5      16.408 -22.520  33.5410  0.00  0.00     0.000 HD
BRANCH 69 75
ATOM     75   C  BDP B   5      21.098 -19.732  32.5310  0.00  0.00     0.000 C
ATOM     76   O  BDP B   5      22.043 -20.358  33.0510  0.00  0.00     0.000 OA
ATOM     77   O  BDP B   5      21.089 -18.490  32.4470  0.00  0.00     0.000 OA
ENDBRANCH 69 75
BRANCH 65 78
ATOM     78  O3  NAG B   6      20.545 -23.442  30.6640  0.00  0.00     0.000 O
BRANCH 78 81
ATOM     79  C1  NAG B   6      21.809 -25.436  27.7050  0.00  0.00     0.000 C
ATOM     80  C2  NAG B   6      21.021 -25.150  28.9930  0.00  0.00     0.000 C
ATOM     81  C3  NAG B   6      21.153 -23.685  29.3770  0.00  0.00     0.000 C
ATOM     82  C4  NAG B   6      22.625 -23.259  29.4050  0.00  0.00     0.000 C
ATOM     83  C5  NAG B   6      23.273 -23.590  28.0660  0.00  0.00     0.000 C
ATOM     84  O5  NAG B   6      23.170 -25.001  27.8720  0.00  0.00     0.000 O
BRANCH 80 87
ATOM     85   N  NAG B   6      19.664 -25.632  28.7520  0.00  0.00     0.000 N
ATOM     87  HD  NAG B   6      19.102 -26.289  28.6910  0.00  0.00     0.000 HD
ATOM     87   C  NAG B   6      18.904 -26.225  29.6810  0.00  0.00     0.000 C
ATOM     88   C  NAG B   6      17.528 -26.614  29.2420  0.00  0.00     0.000 C
ATOM     89   O  NAG B   6      19.287 -26.432  30.8260  0.00  0.00     0.000 OA
ENDBRANCH 80 87
ATOM     90   O  NAG B   6      24.883 -22.105  27.0390  0.00  0.00     0.000 O
ATOM     92  HD  NAG B   6      24.263 -22.694  26.9030  0.00  0.00     0.000 HD
ATOM     92   O  NAG B   6      24.883 -22.105  27.0390  0.00  0.00     0.000 O
ATOM     94  HD  NAG B   6      24.263 -22.694  26.9030  0.00  0.00     0.000 HD
ENDBRANCH 78 81
ENDBRANCH 65 78
ENDBRANCH 64 68
ENDBRANCH 48 64
ENDBRANCH 47 50
ENDBRANCH 34 47
ENDBRANCH 33 37
ENDBRANCH 17 33
ENDBRANCH 16 19
ENDBRANCH 1 16
TORSDOF 16
ENDMDL
MODEL 32
REMARK VINA RESULT:      -9.7     26.435     30.318
ROOT
ATOM      1  C1  BDP B   1       3.238   9.408  47.0530  0.00  0.00     0.000 C
ATOM      2  C2  BDP B   1       3.075   9.873  45.6170  0.00  0.00     0.000 C
ATOM      3  C3  BDP B   1       1.862  10.762  45.4410  0.00  0.00     0.000 C
ATOM      4  C4  BDP B   1       1.281  11.287  46.7480  0.00  0.00     0.000 C
ATOM      5  C5  BDP B   1       1.129  10.198  47.8060  0.00  0.00     0.000 C
ATOM      6  O5  BDP B   1       1.946   9.050  47.5230  0.00  0.00     0.000 O
ATOM      7   O  BDP B   1       4.250  10.573  45.1960  0.00  0.00     0.000 O
ATOM      9  HD  BDP B   1       5.111  10.653  45.1500  0.00  0.00     0.000 HD
ATOM      9   O  BDP B   1       0.823  10.043  44.7590  0.00  0.00     0.000 O
ATOM     11  HD  BDP B   1       1.684  10.123  44.7120  0.00  0.00     0.000 HD
ATOM     11   O  BDP B   1       2.090  12.352  47.2630  0.00  0.00     0.000 O
ATOM     13  HD  BDP B   1       2.951  12.432  47.2160  0.00  0.00     0.000 HD
ENDROOT
BRANCH 5 13
ATOM     13   C  BDP B   1      -0.305   9.801  47.8280  0.00  0.00     0.000 C
ATOM     14   O  BDP B   1      -0.632   8.741  47.2560  0.00  0.00     0.000 OA
ATOM     15   O  BDP B   1      -1.126  10.522  48.4350  0.00  0.00     0.000 OA
ENDBRANCH 5 13
BRANCH 1 16
ATOM     16  O3  NAG B   2       4.320   9.580  47.9670  0.00  0.00     0.000 O
BRANCH 16 19
ATOM     17  C1  NAG B   2       5.032   7.555  50.9070  0.00  0.00     0.000 C
ATOM     18  C2  NAG B   2       4.909   7.692  49.3890  0.00  0.00     0.000 C
ATOM     19  C3  NAG B   2       5.242   9.111  48.9510  0.00  0.00     0.000 C
ATOM     20  C4  NAG B   2       5.269  10.079  50.1370  0.00  0.00     0.000 C
ATOM     21  C5  NAG B   2       4.241   9.789  51.2390  0.00  0.00     0.000 C
ATOM     22  O5  NAG B   2       4.005   8.391  51.4440  0.00  0.00     0.000 O
ATOM     23   O  NAG B   2       6.588  10.080  50.6930  0.00  0.00     0.000 O
ATOM     25  HD  NAG B   2       6.697   9.224  50.6150  0.00  0.00     0.000 HD
ATOM     25   C  NAG B   2       2.902  10.471  50.9220  0.00  0.00     0.000 C
ATOM     26   O  NAG B   2       2.881  11.833  51.3700  0.00  0.00     0.000 O
ATOM     28  HD  NAG B   2       2.990  10.978  51.2930  0.00  0.00     0.000 HD
BRANCH 18 30
ATOM     28   N  NAG B   2       5.681   6.582  48.8340  0.00  0.00     0.000 N
ATOM     30  HD  NAG B   2       5.842   5.738  48.9460  0.00  0.00     0.000 HD
ATOM     30   C  NAG B   2       7.016   6.471  48.8900  0.00  0.00     0.000 C
ATOM     31   C  NAG B   2       7.576   5.240  48.2360  0.00  0.00     0.000 C
ATOM     32   O  NAG B   2       7.730   7.286  49.4270  0.00  0.00     0.000 OA
ENDBRANCH 18 30
BRANCH 17 33
ATOM     33  O4  BDP B   3       4.724   6.906  52.1600  0.00  0.00     0.000 O
BRANCH 33 37
ATOM     34  C1  BDP B   3       5.285   3.868  55.1090  0.00  0.00     0.000 C
ATOM     35  C2  BDP B   3       5.121   5.299  55.6060  0.00  0.00     0.000 C
ATOM     36  C3  BDP B   3       4.514   6.239  54.5700  0.00  0.00     0.000 C
ATOM     37  C4  BDP B   3       5.206   6.024  53.2150  0.00  0.00     0.000 C
ATOM     38  C5  BDP B   3       5.056   4.533  52.8570  0.00  0.00     0.000 C
ATOM     39  O5  BDP B   3       5.863   3.827  53.7990  0.00  0.00     0.000 O
ATOM     40   O  BDP B   3       4.331   5.221  56.7940  0.00  0.00     0.000 O
ATOM     42  HD  BDP B   3       5.109   5.015  57.1120  0.00  0.00     0.000 HD
ATOM     42   O  BDP B   3       4.705   7.566  55.0590  0.00  0.00     0.000 O
ATOM     44  HD  BDP B   3       5.483   7.360  55.3770  0.00  0.00     0.000 HD
BRANCH 38 44
ATOM     44   C  BDP B   3       5.482   4.186  51.4640  0.00  0.00     0.000 C
ATOM     45   O  BDP B   3       6.703   4.029  51.2470  0.00  0.00     0.000 OA
ATOM     46   O  BDP B   3       4.620   4.065  50.5670  0.00  0.00     0.000 OA
ENDBRANCH 38 44
BRANCH 34 47
ATOM     47  O3  NAG B   4       6.487   3.270  55.5920  0.00  0.00     0.000 O
BRANCH 47 50
ATOM     48  C1  NAG B   4       6.359  -0.370  56.5310  0.00  0.00     0.000 C
ATOM     49  C2  NAG B   4       6.053   1.114  56.6360  0.00  0.00     0.000 C
ATOM     50  C3  NAG B   4       6.709   1.850  55.4730  0.00  0.00     0.000 C
ATOM     51  C4  NAG B   4       8.203   1.574  55.4080  0.00  0.00     0.000 C
ATOM     52  C5  NAG B   4       8.451   0.065  55.3750  0.00  0.00     0.000 C
ATOM     53  O5  NAG B   4       7.784  -0.575  56.4700  0.00  0.00     0.000 O
ATOM     54   O  NAG B   4       8.742   2.199  54.2410  0.00  0.00     0.000 O
ATOM     56  HD  NAG B   4       9.356   1.947  54.7970  0.00  0.00     0.000 HD
ATOM     56   C  NAG B   4       9.941  -0.252  55.4360  0.00  0.00     0.000 C
ATOM     57   O  NAG B   4      10.483   0.278  56.6530  0.00  0.00     0.000 O
ATOM     59  HD  NAG B   4      11.096   0.026  57.2090  0.00  0.00     0.000 HD
BRANCH 49 61
ATOM     59   N  NAG B   4       4.607   1.098  56.8570  0.00  0.00     0.000 N
ATOM     61  HD  NAG B   4       5.336   1.087  57.3240  0.00  0.00     0.000 HD
ATOM     61   O  NAG B   4       4.581   2.541  58.5950  0.00  0.00     0.000 OA
ATOM     62   C  NAG B   4       3.991   1.865  57.7650  0.00  0.00     0.000 C
ATOM     63   C  NAG B   4       2.496   1.872  57.6990  0.00  0.00     0.000 C
ENDBRANCH 49 61
BRANCH 48 64
ATOM     64  O4  BDP B   5       5.653  -1.537  56.9420  0.00  0.00     0.000 O
BRANCH 64 68
ATOM     65  C1  BDP B   5       4.737  -2.750  60.8230  0.00  0.00     0.000 C
ATOM     66  C2  BDP B   5       6.077  -3.222  60.2760  0.00  0.00     0.000 C
ATOM     67  C3  BDP B   5       6.464  -2.377  59.0680  0.00  0.00     0.000 C
ATOM     68  C4  BDP B   5       5.358  -2.425  58.0190  0.00  0.00     0.000 C
ATOM     69  C5  BDP B   5       4.000  -2.053  58.5990  0.00  0.00     0.000 C
ATOM     70  O5  BDP B   5       3.736  -2.807  59.7950  0.00  0.00     0.000 O
ATOM     71   O  BDP B   5       7.071  -3.154  61.3100  0.00  0.00     0.000 O
ATOM     73  HD  BDP B   5       7.634  -3.075  61.9630  0.00  0.00     0.000 HD
ATOM     73   O  BDP B   5       7.685  -2.855  58.4910  0.00  0.00     0.000 O
ATOM     75  HD  BDP B   5       8.248  -2.775  59.1440  0.00  0.00     0.000 HD
BRANCH 69 75
ATOM     75   C  BDP B   5       2.945  -2.361  57.5670  0.00  0.00     0.000 C
ATOM     76   O  BDP B   5       2.511  -1.431  56.8570  0.00  0.00     0.000 OA
ATOM     77   O  BDP B   5       2.539  -3.532  57.4500  0.00  0.00     0.000 OA
ENDBRANCH 69 75
BRANCH 65 78
ATOM     78  O3  NAG B   6       3.766  -3.553  61.4980  0.00  0.00     0.000 O
BRANCH 78 81
ATOM     79  C1  NAG B   6       1.081  -2.171  63.7820  0.00  0.00     0.000 C
ATOM     80  C2  NAG B   6       2.489  -2.355  63.1930  0.00  0.00     0.000 C
ATOM     81  C3  NAG B   6       2.433  -3.251  61.9660  0.00  0.00     0.000 C
ATOM     82  C4  NAG B   6       1.680  -4.550  62.2730  0.00  0.00     0.000 C
ATOM     83  C5  NAG B   6       0.303  -4.216  62.8360  0.00  0.00     0.000 C
ATOM     84  O5  NAG B   6       0.496  -3.461  64.0330  0.00  0.00     0.000 O
BRANCH 80 87
ATOM     85   N  NAG B   6       3.771  -1.814  63.6350  0.00  0.00     0.000 N
ATOM     87  HD  NAG B   6       4.591  -1.597  63.4620  0.00  0.00     0.000 HD
ATOM     87   C  NAG B   6       4.299  -0.672  63.1780  0.00  0.00     0.000 C
ATOM     88   C  NAG B   6       5.607  -0.273  63.7840  0.00  0.00     0.000 C
ATOM     89   O  NAG B   6       3.755   0.024  62.3290  0.00  0.00     0.000 OA
ENDBRANCH 80 87
ATOM     90   O  NAG B   6      -1.653  -5.510  62.2450  0.00  0.00     0.000 O
ATOM     92  HD  NAG B   6      -1.351  -4.732  62.4760  0.00  0.00     0.000 HD
ATOM     92   O  NAG B   6      -1.653  -5.510  62.2450  0.00  0.00     0.000 O
ATOM     94  HD  NAG B   6      -1.351  -4.732  62.4760  0.00  0.00     0.000 HD
ENDBRANCH 78 81
ENDBRANCH 65 78
ENDBRANCH 64 68
ENDBRANCH 48 64
ENDBRANCH 47 50
ENDBRANCH 34 47
ENDBRANCH 33 37
ENDBRANCH 17 33
ENDBRANCH 16 19
ENDBRANCH 1 16
TORSDOF 16
ENDMDL
MODEL 33
REMARK VINA RESULT:      -9.7      8.596     18.247
ROOT
ATOM      1  C1  BDP B   1      14.540  -4.193  33.8470  0.00  0.00     0.000 C
ATOM      2  C2  BDP B   1      15.321  -3.968  35.1300  0.00  0.00     0.000 C
ATOM      3  C3  BDP B   1      16.078  -2.657  35.1130  0.00  0.00     0.000 C
ATOM      4  C4  BDP B   1      15.636  -1.698  34.0140  0.00  0.00     0.000 C
ATOM      5  C5  BDP B   1      15.501  -2.378  32.6550  0.00  0.00     0.000 C
ATOM      6  O5  BDP B   1      15.385  -3.806  32.7740  0.00  0.00     0.000 O
ATOM      7   O  BDP B   1      14.433  -3.995  36.2520  0.00  0.00     0.000 O
ATOM      9  HD  BDP B   1      13.770  -4.343  36.6880  0.00  0.00     0.000 HD
ATOM      9   O  BDP B   1      17.482  -2.905  34.9360  0.00  0.00     0.000 O
ATOM     11  HD  BDP B   1      16.820  -3.252  35.3720  0.00  0.00     0.000 HD
ATOM     11   O  BDP B   1      14.396  -1.072  34.3660  0.00  0.00     0.000 O
ATOM     13  HD  BDP B   1      13.734  -1.419  34.8020  0.00  0.00     0.000 HD
ENDROOT
BRANCH 5 13
ATOM     13   C  BDP B   1      16.717  -2.037  31.8680  0.00  0.00     0.000 C
ATOM     14   O  BDP B   1      17.464  -1.134  32.3000  0.00  0.00     0.000 OA
ATOM     15   O  BDP B   1      16.965  -2.676  30.8230  0.00  0.00     0.000 OA
ENDBRANCH 5 13
BRANCH 1 16
ATOM     16  O3  NAG B   2      13.144  -4.395  33.6360  0.00  0.00     0.000 O
BRANCH 16 19
ATOM     17  C1  NAG B   2       9.551  -4.711  33.1380  0.00  0.00     0.000 C
ATOM     18  C2  NAG B   2      10.969  -4.651  32.5680  0.00  0.00     0.000 C
ATOM     19  C3  NAG B   2      11.971  -5.209  33.5680  0.00  0.00     0.000 C
ATOM     20  C4  NAG B   2      11.360  -5.352  34.9650  0.00  0.00     0.000 C
ATOM     21  C5  NAG B   2      10.350  -4.262  35.3490  0.00  0.00     0.000 C
ATOM     22  O5  NAG B   2       9.554  -3.810  34.2470  0.00  0.00     0.000 O
ATOM     23   O  NAG B   2      10.744  -6.640  35.0610  0.00  0.00     0.000 O
ATOM     25  HD  NAG B   2      10.413  -6.619  34.2610  0.00  0.00     0.000 HD
ATOM     25   C  NAG B   2      11.068  -3.052  35.9640  0.00  0.00     0.000 C
ATOM     26   O  NAG B   2      11.294  -3.227  37.3700  0.00  0.00     0.000 O
ATOM     28  HD  NAG B   2      10.962  -3.206  36.5700  0.00  0.00     0.000 HD
BRANCH 18 30
ATOM     28   N  NAG B   2      10.245  -5.805  32.0360  0.00  0.00     0.000 N
ATOM     30  HD  NAG B   2      10.013  -6.616  32.2330  0.00  0.00     0.000 HD
ATOM     30   C  NAG B   2      10.655  -6.560  31.0070  0.00  0.00     0.000 C
ATOM     31   C  NAG B   2       9.729  -7.685  30.6410  0.00  0.00     0.000 C
ATOM     32   O  NAG B   2      11.689  -6.369  30.4100  0.00  0.00     0.000 OA
ENDBRANCH 18 30
BRANCH 17 33
ATOM     33  O4  BDP B   3       8.176  -4.274  33.1890  0.00  0.00     0.000 O
BRANCH 33 37
ATOM     34  C1  BDP B   3       4.830  -1.646  32.8150  0.00  0.00     0.000 C
ATOM     35  C2  BDP B   3       5.875  -1.606  31.7060  0.00  0.00     0.000 C
ATOM     36  C3  BDP B   3       6.785  -2.829  31.6810  0.00  0.00     0.000 C
ATOM     37  C4  BDP B   3       7.263  -3.140  33.1070  0.00  0.00     0.000 C
ATOM     38  C5  BDP B   3       6.007  -3.326  33.9810  0.00  0.00     0.000 C
ATOM     39  O5  BDP B   3       5.404  -2.035  34.0680  0.00  0.00     0.000 O
ATOM     40   O  BDP B   3       5.153  -1.444  30.4830  0.00  0.00     0.000 O
ATOM     42  HD  BDP B   3       5.167  -0.625  30.7640  0.00  0.00     0.000 HD
ATOM     42   O  BDP B   3       7.873  -2.512  30.8140  0.00  0.00     0.000 O
ATOM     44  HD  BDP B   3       7.887  -1.693  31.0950  0.00  0.00     0.000 HD
BRANCH 38 44
ATOM     44   C  BDP B   3       6.281  -3.851  35.3550  0.00  0.00     0.000 C
ATOM     45   O  BDP B   3       5.889  -5.007  35.6280  0.00  0.00     0.000 OA
ATOM     46   O  BDP B   3       6.884  -3.134  36.1830  0.00  0.00     0.000 OA
ENDBRANCH 38 44
BRANCH 34 47
ATOM     47  O3  NAG B   4       4.609  -0.357  33.3850  0.00  0.00     0.000 O
BRANCH 47 50
ATOM     48  C1  NAG B   4       1.161   1.018  33.9940  0.00  0.00     0.000 C
ATOM     49  C2  NAG B   4       2.402   0.655  33.1980  0.00  0.00     0.000 C
ATOM     50  C3  NAG B   4       3.394  -0.063  34.1060  0.00  0.00     0.000 C
ATOM     51  C4  NAG B   4       3.723   0.762  35.3390  0.00  0.00     0.000 C
ATOM     52  C5  NAG B   4       2.433   1.156  36.0590  0.00  0.00     0.000 C
ATOM     53  O5  NAG B   4       1.529   1.796  35.1500  0.00  0.00     0.000 O
ATOM     54   O  NAG B   4       4.568  -0.004  36.2010  0.00  0.00     0.000 O
ATOM     56  HD  NAG B   4       4.545   0.834  36.4160  0.00  0.00     0.000 HD
ATOM     56   C  NAG B   4       2.715   2.089  37.2310  0.00  0.00     0.000 C
ATOM     57   O  NAG B   4       3.351   3.277  36.7400  0.00  0.00     0.000 O
ATOM     59  HD  NAG B   4       3.328   4.116  36.9550  0.00  0.00     0.000 HD
BRANCH 49 61
ATOM     59   N  NAG B   4       2.579   1.954  32.5470  0.00  0.00     0.000 N
ATOM     61  HD  NAG B   4       2.955   1.174  32.5530  0.00  0.00     0.000 HD
ATOM     61   O  NAG B   4       3.043   1.162  30.4830  0.00  0.00     0.000 OA
ATOM     62   C  NAG B   4       2.811   2.096  31.2360  0.00  0.00     0.000 C
ATOM     63   C  NAG B   4       2.749   3.498  30.7170  0.00  0.00     0.000 C
ENDBRANCH 49 61
BRANCH 48 64
ATOM     64  O4  BDP B   5      -0.208   1.181  33.6350  0.00  0.00     0.000 O
BRANCH 64 68
ATOM     65  C1  BDP B   5      -3.169  -1.733  33.9650  0.00  0.00     0.000 C
ATOM     66  C2  BDP B   5      -2.587  -1.529  32.5730  0.00  0.00     0.000 C
ATOM     67  C3  BDP B   5      -1.264  -0.781  32.6750  0.00  0.00     0.000 C
ATOM     68  C4  BDP B   5      -1.462   0.534  33.4210  0.00  0.00     0.000 C
ATOM     69  C5  BDP B   5      -2.142   0.334  34.7690  0.00  0.00     0.000 C
ATOM     70  O5  BDP B   5      -3.327  -0.467  34.6240  0.00  0.00     0.000 O
ATOM     71   O  BDP B   5      -2.428  -2.801  31.9250  0.00  0.00     0.000 O
ATOM     73  HD  BDP B   5      -2.334  -3.594  31.5900  0.00  0.00     0.000 HD
ATOM     73   O  BDP B   5      -0.736  -0.510  31.3710  0.00  0.00     0.000 O
ATOM     75  HD  BDP B   5      -0.643  -1.303  31.0360  0.00  0.00     0.000 HD
BRANCH 69 75
ATOM     75   C  BDP B   5      -2.513   1.688  35.3180  0.00  0.00     0.000 C
ATOM     76   O  BDP B   5      -3.719   1.953  35.4960  0.00  0.00     0.000 OA
ATOM     77   O  BDP B   5      -1.608   2.501  35.5820  0.00  0.00     0.000 OA
ENDBRANCH 69 75
BRANCH 65 78
ATOM     78  O3  NAG B   6      -4.557  -1.824  34.2990  0.00  0.00     0.000 O
BRANCH 78 81
ATOM     79  C1  NAG B   6      -7.022  -4.377  35.6180  0.00  0.00     0.000 C
ATOM     80  C2  NAG B   6      -6.162  -3.635  34.5820  0.00  0.00     0.000 C
ATOM     81  C3  NAG B   6      -5.255  -2.630  35.2730  0.00  0.00     0.000 C
ATOM     82  C4  NAG B   6      -6.058  -1.730  36.2180  0.00  0.00     0.000 C
ATOM     83  C5  NAG B   6      -6.848  -2.596  37.1930  0.00  0.00     0.000 C
ATOM     84  O5  NAG B   6      -7.728  -3.418  36.4250  0.00  0.00     0.000 O
BRANCH 80 87
ATOM     85   N  NAG B   6      -6.191  -3.872  33.1410  0.00  0.00     0.000 N
ATOM     87  HD  NAG B   6      -5.843  -3.757  32.3570  0.00  0.00     0.000 HD
ATOM     87   C  NAG B   6      -5.268  -4.580  32.4790  0.00  0.00     0.000 C
ATOM     88   C  NAG B   6      -5.499  -4.735  31.0100  0.00  0.00     0.000 C
ATOM     89   O  NAG B   6      -4.297  -5.089  33.0270  0.00  0.00     0.000 OA
ENDBRANCH 80 87
ATOM     90   O  NAG B   6      -7.115  -1.966  39.5120  0.00  0.00     0.000 O
ATOM     92  HD  NAG B   6      -7.059  -2.622  38.9500  0.00  0.00     0.000 HD
ATOM     92   O  NAG B   6      -7.115  -1.966  39.5120  0.00  0.00     0.000 O
ATOM     94  HD  NAG B   6      -7.059  -2.622  38.9500  0.00  0.00     0.000 HD
ENDBRANCH 78 81
ENDBRANCH 65 78
ENDBRANCH 64 68
ENDBRANCH 48 64
ENDBRANCH 47 50
ENDBRANCH 34 47
ENDBRANCH 33 37
ENDBRANCH 17 33
ENDBRANCH 16 19
ENDBRANCH 1 16
TORSDOF 16
ENDMDL
MODEL 34
REMARK VINA RESULT:      -9.7     13.052     17.798
ROOT
ATOM      1  C1  BDP B   1      26.484  -9.213  26.3460  0.00  0.00     0.000 C
ATOM      2  C2  BDP B   1      27.935  -8.793  26.1920  0.00  0.00     0.000 C
ATOM      3  C3  BDP B   1      28.122  -7.795  25.0690  0.00  0.00     0.000 C
ATOM      4  C4  BDP B   1      26.826  -7.161  24.5770  0.00  0.00     0.000 C
ATOM      5  C5  BDP B   1      25.718  -8.185  24.3470  0.00  0.00     0.000 C
ATOM      6  O5  BDP B   1      25.971  -9.421  25.0390  0.00  0.00     0.000 O
ATOM      7   O  BDP B   1      28.412  -8.231  27.4190  0.00  0.00     0.000 O
ATOM      9  HD  BDP B   1      28.482  -8.240  28.2820  0.00  0.00     0.000 HD
ATOM      9   O  BDP B   1      28.749  -8.434  23.9450  0.00  0.00     0.000 O
ATOM     11  HD  BDP B   1      28.818  -8.442  24.8080  0.00  0.00     0.000 HD
ATOM     11   O  BDP B   1      26.376  -6.163  25.5010  0.00  0.00     0.000 O
ATOM     13  HD  BDP B   1      26.445  -6.171  26.3640  0.00  0.00     0.000 HD
ENDROOT
BRANCH 5 13
ATOM     13   C  BDP B   1      25.647  -8.436  22.8820  0.00  0.00     0.000 C
ATOM     14   O  BDP B   1      24.520  -8.506  22.3500  0.00  0.00     0.000 OA
ATOM     15   O  BDP B   1      26.709  -8.541  22.2300  0.00  0.00     0.000 OA
ENDBRANCH 5 13
BRANCH 1 16
ATOM     16  O3  NAG B   2      25.604  -9.112  27.4640  0.00  0.00     0.000 O
BRANCH 16 19
ATOM     17  C1  NAG B   2      23.751  -8.490  30.5360  0.00  0.00     0.000 C
ATOM     18  C2  NAG B   2      24.785  -8.051  29.4990  0.00  0.00     0.000 C
ATOM     19  C3  NAG B   2      24.441  -8.614  28.1280  0.00  0.00     0.000 C
ATOM     20  C4  NAG B   2      23.385  -9.719  28.2170  0.00  0.00     0.000 C
ATOM     21  C5  NAG B   2      23.479 -10.612  29.4620  0.00  0.00     0.000 C
ATOM     22  O5  NAG B   2      23.900  -9.908  30.6370  0.00  0.00     0.000 O
ATOM     23   O  NAG B   2      22.089  -9.115  28.1510  0.00  0.00     0.000 O
ATOM     25  HD  NAG B   2      22.298  -8.444  28.6570  0.00  0.00     0.000 HD
ATOM     25   C  NAG B   2      24.445 -11.780  29.2180  0.00  0.00     0.000 C
ATOM     26   O  NAG B   2      23.793 -12.883  28.5740  0.00  0.00     0.000 O
ATOM     28  HD  NAG B   2      24.003 -12.212  29.0800  0.00  0.00     0.000 HD
BRANCH 18 30
ATOM     28   N  NAG B   2      24.760  -6.639  29.8780  0.00  0.00     0.000 N
ATOM     30  HD  NAG B   2      24.544  -6.110  30.5280  0.00  0.00     0.000 HD
ATOM     30   C  NAG B   2      23.953  -5.714  29.3390  0.00  0.00     0.000 C
ATOM     31   C  NAG B   2      24.125  -4.327  29.8910  0.00  0.00     0.000 C
ATOM     32   O  NAG B   2      23.138  -5.959  28.4800  0.00  0.00     0.000 OA
ENDBRANCH 18 30
BRANCH 17 33
ATOM     33  O4  BDP B   3      23.336  -8.752  31.8940  0.00  0.00     0.000 O
BRANCH 33 37
ATOM     34  C1  BDP B   3      20.271 -11.091  33.7320  0.00  0.00     0.000 C
ATOM     35  C2  BDP B   3      19.879  -9.712  33.2140  0.00  0.00     0.000 C
ATOM     36  C3  BDP B   3      20.876  -9.127  32.2200  0.00  0.00     0.000 C
ATOM     37  C4  BDP B   3      22.304  -9.314  32.7560  0.00  0.00     0.000 C
ATOM     38  C5  BDP B   3      22.502 -10.820  33.0130  0.00  0.00     0.000 C
ATOM     39  O5  BDP B   3      21.651 -11.139  34.1130  0.00  0.00     0.000 O
ATOM     40   O  BDP B   3      18.573  -9.852  32.6510  0.00  0.00     0.000 O
ATOM     42  HD  BDP B   3      18.373  -9.786  33.4910  0.00  0.00     0.000 HD
ATOM     42   O  BDP B   3      20.543  -7.748  32.0680  0.00  0.00     0.000 O
ATOM     44  HD  BDP B   3      20.343  -7.682  32.9080  0.00  0.00     0.000 HD
BRANCH 38 44
ATOM     44   C  BDP B   3      23.911 -11.214  33.3310  0.00  0.00     0.000 C
ATOM     45   O  BDP B   3      24.565 -10.475  34.1000  0.00  0.00     0.000 OA
ATOM     46   O  BDP B   3      24.391 -12.253  32.8280  0.00  0.00     0.000 OA
ENDBRANCH 38 44
BRANCH 34 47
ATOM     47  O3  NAG B   4      19.946 -11.255  35.1110  0.00  0.00     0.000 O
BRANCH 47 50
ATOM     48  C1  NAG B   4      18.792 -14.789  35.6790  0.00  0.00     0.000 C
ATOM     49  C2  NAG B   4      18.879 -13.440  34.9890  0.00  0.00     0.000 C
ATOM     50  C3  NAG B   4      19.898 -12.566  35.7110  0.00  0.00     0.000 C
ATOM     51  C4  NAG B   4      19.573 -12.435  37.1910  0.00  0.00     0.000 C
ATOM     52  C5  NAG B   4      19.429 -13.823  37.8150  0.00  0.00     0.000 C
ATOM     53  O5  NAG B   4      18.485 -14.608  37.0750  0.00  0.00     0.000 O
ATOM     54   O  NAG B   4      20.617 -11.698  37.8330  0.00  0.00     0.000 O
ATOM     56  HD  NAG B   4      19.909 -11.773  38.3260  0.00  0.00     0.000 HD
ATOM     56   C  NAG B   4      18.981 -13.732  39.2690  0.00  0.00     0.000 C
ATOM     57   O  NAG B   4      17.712 -13.066  39.3270  0.00  0.00     0.000 O
ATOM     59  HD  NAG B   4      17.005 -13.141  39.8200  0.00  0.00     0.000 HD
BRANCH 49 61
ATOM     59   N  NAG B   4      17.458 -13.610  34.6810  0.00  0.00     0.000 N
ATOM     61  HD  NAG B   4      18.058 -12.986  34.6560  0.00  0.00     0.000 HD
ATOM     61   O  NAG B   4      17.455 -12.440  32.7490  0.00  0.00     0.000 OA
ATOM     62   C  NAG B   4      16.888 -13.160  33.5570  0.00  0.00     0.000 C
ATOM     63   C  NAG B   4      15.482 -13.613  33.3190  0.00  0.00     0.000 C
ENDBRANCH 49 61
BRANCH 48 64
ATOM     64  O4  BDP B   5      18.478 -16.099  35.2140  0.00  0.00     0.000 O
BRANCH 64 68
ATOM     65  C1  BDP B   5      18.703 -20.150  34.2600  0.00  0.00     0.000 C
ATOM     66  C2  BDP B   5      19.877 -19.584  35.0490  0.00  0.00     0.000 C
ATOM     67  C3  BDP B   5      19.476 -18.259  35.6840  0.00  0.00     0.000 C
ATOM     68  C4  BDP B   5      18.976 -17.294  34.6150  0.00  0.00     0.000 C
ATOM     69  C5  BDP B   5      17.873 -17.905  33.7600  0.00  0.00     0.000 C
ATOM     70  O5  BDP B   5      18.268 -19.200  33.2750  0.00  0.00     0.000 O
ATOM     71   O  BDP B   5      20.300 -20.538  36.0350  0.00  0.00     0.000 O
ATOM     73  HD  BDP B   5      20.501 -21.140  36.6240  0.00  0.00     0.000 HD
ATOM     73   O  BDP B   5      20.590 -17.671  36.3670  0.00  0.00     0.000 O
ATOM     75  HD  BDP B   5      20.791 -18.273  36.9560  0.00  0.00     0.000 HD
BRANCH 69 75
ATOM     75   C  BDP B   5      17.615 -16.987  32.5930  0.00  0.00     0.000 C
ATOM     76   O  BDP B   5      18.577 -16.641  31.8780  0.00  0.00     0.000 OA
ATOM     77   O  BDP B   5      16.451 -16.604  32.3720  0.00  0.00     0.000 OA
ENDBRANCH 69 75
BRANCH 65 78
ATOM     78  O3  NAG B   6      18.783 -20.979  33.0980  0.00  0.00     0.000 O
BRANCH 78 81
ATOM     79  C1  NAG B   6      17.642 -24.303  31.6890  0.00  0.00     0.000 C
ATOM     80  C2  NAG B   6      18.562 -23.307  32.4120  0.00  0.00     0.000 C
ATOM     81  C3  NAG B   6      17.871 -21.961  32.5590  0.00  0.00     0.000 C
ATOM     82  C4  NAG B   6      17.321 -21.480  31.2120  0.00  0.00     0.000 C
ATOM     83  C5  NAG B   6      16.419 -22.557  30.6200  0.00  0.00     0.000 C
ATOM     84  O5  NAG B   6      17.210 -23.733  30.4410  0.00  0.00     0.000 O
BRANCH 80 87
ATOM     85   N  NAG B   6      18.942 -23.865  33.7070  0.00  0.00     0.000 N
ATOM     87  HD  NAG B   6      19.378 -24.452  34.1700  0.00  0.00     0.000 HD
ATOM     87   C  NAG B   6      20.189 -23.848  34.1940  0.00  0.00     0.000 C
ATOM     88   C  NAG B   6      20.362 -24.441  35.5560  0.00  0.00     0.000 C
ATOM     89   O  NAG B   6      21.138 -23.368  33.5850  0.00  0.00     0.000 OA
ENDBRANCH 80 87
ATOM     90   O  NAG B   6      14.381 -21.995  29.4460  0.00  0.00     0.000 O
ATOM     92  HD  NAG B   6      14.786 -22.582  29.9380  0.00  0.00     0.000 HD
ATOM     92   O  NAG B   6      14.381 -21.995  29.4460  0.00  0.00     0.000 O
ATOM     94  HD  NAG B   6      14.786 -22.582  29.9380  0.00  0.00     0.000 HD
ENDBRANCH 78 81
ENDBRANCH 65 78
ENDBRANCH 64 68
ENDBRANCH 48 64
ENDBRANCH 47 50
ENDBRANCH 34 47
ENDBRANCH 33 37
ENDBRANCH 17 33
ENDBRANCH 16 19
ENDBRANCH 1 16
TORSDOF 16
ENDMDL
MODEL 35
REMARK VINA RESULT:      -9.7     11.780     18.670
ROOT
ATOM      1  C1  BDP B   1      -1.854  -8.149  25.2090  0.00  0.00     0.000 C
ATOM      2  C2  BDP B   1      -0.605  -9.009  25.1400  0.00  0.00     0.000 C
ATOM      3  C3  BDP B   1      -0.766 -10.173  24.1870  0.00  0.00     0.000 C
ATOM      4  C4  BDP B   1      -1.964 -10.050  23.2520  0.00  0.00     0.000 C
ATOM      5  C5  BDP B   1      -3.239  -9.634  23.9790  0.00  0.00     0.000 C
ATOM      6  O5  BDP B   1      -2.964  -9.033  25.2560  0.00  0.00     0.000 O
ATOM      7   O  BDP B   1       0.514  -8.210  24.7390  0.00  0.00     0.000 O
ATOM      9  HD  BDP B   1       0.986  -7.486  24.7860  0.00  0.00     0.000 HD
ATOM      9   O  BDP B   1      -0.915 -11.395  24.9260  0.00  0.00     0.000 O
ATOM     11  HD  BDP B   1      -0.443 -10.671  24.9730  0.00  0.00     0.000 HD
ATOM     11   O  BDP B   1      -1.682  -9.120  22.1990  0.00  0.00     0.000 O
ATOM     13  HD  BDP B   1      -1.211  -8.395  22.2460  0.00  0.00     0.000 HD
ENDROOT
BRANCH 5 13
ATOM     13   C  BDP B   1      -4.059 -10.862  24.1670  0.00  0.00     0.000 C
ATOM     14   O  BDP B   1      -5.300 -10.738  24.2350  0.00  0.00     0.000 OA
ATOM     15   O  BDP B   1      -3.488 -11.972  24.2260  0.00  0.00     0.000 OA
ENDBRANCH 5 13
BRANCH 1 16
ATOM     16  O3  NAG B   2      -2.042  -6.763  24.9310  0.00  0.00     0.000 O
BRANCH 16 19
ATOM     17  C1  NAG B   2      -0.491  -4.070  26.8290  0.00  0.00     0.000 C
ATOM     18  C2  NAG B   2      -0.514  -4.989  25.6070  0.00  0.00     0.000 C
ATOM     19  C3  NAG B   2      -1.943  -5.375  25.2550  0.00  0.00     0.000 C
ATOM     20  C4  NAG B   2      -2.917  -5.038  26.3870  0.00  0.00     0.000 C
ATOM     21  C5  NAG B   2      -2.354  -5.212  27.8050  0.00  0.00     0.000 C
ATOM     22  O5  NAG B   2      -0.966  -4.874  27.9110  0.00  0.00     0.000 O
ATOM     23   O  NAG B   2      -3.374  -3.693  26.2090  0.00  0.00     0.000 O
ATOM     25  HD  NAG B   2      -2.599  -3.386  25.9740  0.00  0.00     0.000 HD
ATOM     25   C  NAG B   2      -2.545  -6.656  28.2890  0.00  0.00     0.000 C
ATOM     26   O  NAG B   2      -3.843  -6.856  28.8660  0.00  0.00     0.000 O
ATOM     28  HD  NAG B   2      -3.068  -6.549  28.6310  0.00  0.00     0.000 HD
BRANCH 18 30
ATOM     28   N  NAG B   2      -0.750  -4.239  24.3740  0.00  0.00     0.000 N
ATOM     30  HD  NAG B   2      -0.699  -4.307  23.5120  0.00  0.00     0.000 HD
ATOM     30   C  NAG B   2      -0.031  -3.182  23.9690  0.00  0.00     0.000 C
ATOM     31   C  NAG B   2      -0.478  -2.575  22.6690  0.00  0.00     0.000 C
ATOM     32   O  NAG B   2       0.912  -2.742  24.5850  0.00  0.00     0.000 OA
ENDBRANCH 18 30
BRANCH 17 33
ATOM     33  O4  BDP B   3       0.169  -3.479  27.9700  0.00  0.00     0.000 O
BRANCH 33 37
ATOM     34  C1  BDP B   3       0.949   0.562  29.1090  0.00  0.00     0.000 C
ATOM     35  C2  BDP B   3       2.154  -0.321  28.8060  0.00  0.00     0.000 C
ATOM     36  C3  BDP B   3       1.806  -1.578  28.0160  0.00  0.00     0.000 C
ATOM     37  C4  BDP B   3       0.564  -2.242  28.6310  0.00  0.00     0.000 C
ATOM     38  C5  BDP B   3      -0.561  -1.189  28.6400  0.00  0.00     0.000 C
ATOM     39  O5  BDP B   3      -0.160  -0.205  29.5930  0.00  0.00     0.000 O
ATOM     40   O  BDP B   3       3.094   0.507  28.1180  0.00  0.00     0.000 O
ATOM     42  HD  BDP B   3       3.251   0.741  28.9370  0.00  0.00     0.000 HD
ATOM     42   O  BDP B   3       2.948  -2.430  28.0770  0.00  0.00     0.000 O
ATOM     44  HD  BDP B   3       3.106  -2.196  28.8950  0.00  0.00     0.000 HD
BRANCH 38 44
ATOM     44   C  BDP B   3      -1.909  -1.728  29.0040  0.00  0.00     0.000 C
ATOM     45   O  BDP B   3      -2.018  -2.355  30.0800  0.00  0.00     0.000 OA
ATOM     46   O  BDP B   3      -2.877  -1.541  28.2350  0.00  0.00     0.000 OA
ENDBRANCH 38 44
BRANCH 34 47
ATOM     47  O3  NAG B   4       1.031   1.149  30.4070  0.00  0.00     0.000 O
BRANCH 47 50
ATOM     48  C1  NAG B   4      -0.508   4.578  30.2760  0.00  0.00     0.000 C
ATOM     49  C2  NAG B   4       0.353   3.413  29.8220  0.00  0.00     0.000 C
ATOM     50  C3  NAG B   4       0.170   2.243  30.7820  0.00  0.00     0.000 C
ATOM     51  C4  NAG B   4       0.460   2.648  32.2190  0.00  0.00     0.000 C
ATOM     52  C5  NAG B   4      -0.383   3.866  32.5950  0.00  0.00     0.000 C
ATOM     53  O5  NAG B   4      -0.195   4.918  31.6410  0.00  0.00     0.000 O
ATOM     54   O  NAG B   4       0.167   1.545  33.0810  0.00  0.00     0.000 O
ATOM     56  HD  NAG B   4       0.628   2.164  33.4750  0.00  0.00     0.000 HD
ATOM     56   C  NAG B   4      -0.028   4.377  33.9870  0.00  0.00     0.000 C
ATOM     57   O  NAG B   4       1.357   4.749  34.0090  0.00  0.00     0.000 O
ATOM     59  HD  NAG B   4       1.817   5.368  34.4030  0.00  0.00     0.000 HD
BRANCH 49 61
ATOM     59   N  NAG B   4       0.027   3.459  28.3960  0.00  0.00     0.000 N
ATOM     61  HD  NAG B   4       0.630   3.769  28.9350  0.00  0.00     0.000 HD
ATOM     61   O  NAG B   4       2.135   3.207  27.6260  0.00  0.00     0.000 OA
ATOM     62   C  NAG B   4       0.932   3.280  27.4270  0.00  0.00     0.000 C
ATOM     63   C  NAG B   4       0.379   3.147  26.0430  0.00  0.00     0.000 C
ENDBRANCH 49 61
BRANCH 48 64
ATOM     64  O4  BDP B   5      -1.145   5.643  29.5770  0.00  0.00     0.000 O
BRANCH 64 68
ATOM     65  C1  BDP B   5      -0.392   9.717  30.0370  0.00  0.00     0.000 C
ATOM     66  C2  BDP B   5      -1.858   9.318  29.9260  0.00  0.00     0.000 C
ATOM     67  C3  BDP B   5      -2.004   7.826  30.1950  0.00  0.00     0.000 C
ATOM     68  C4  BDP B   5      -1.113   7.031  29.2470  0.00  0.00     0.000 C
ATOM     69  C5  BDP B   5       0.334   7.506  29.2860  0.00  0.00     0.000 C
ATOM     70  O5  BDP B   5       0.402   8.935  29.1310  0.00  0.00     0.000 O
ATOM     71   O  BDP B   5      -2.641  10.101  30.8390  0.00  0.00     0.000 O
ATOM     73  HD  BDP B   5      -3.063  10.585  31.4210  0.00  0.00     0.000 HD
ATOM     73   O  BDP B   5      -3.365   7.414  30.0200  0.00  0.00     0.000 O
ATOM     75  HD  BDP B   5      -3.787   7.898  30.6010  0.00  0.00     0.000 HD
BRANCH 69 75
ATOM     75   C  BDP B   5       1.081   6.842  28.1570  0.00  0.00     0.000 C
ATOM     76   O  BDP B   5       0.481   6.630  27.0840  0.00  0.00     0.000 OA
ATOM     77   O  BDP B   5       2.273   6.526  28.3270  0.00  0.00     0.000 OA
ENDBRANCH 69 75
BRANCH 65 78
ATOM     78  O3  NAG B   6       0.254  10.778  29.3290  0.00  0.00     0.000 O
BRANCH 78 81
ATOM     79  C1  NAG B   6       3.260  13.036  29.7750  0.00  0.00     0.000 C
ATOM     80  C2  NAG B   6       1.824  12.526  29.9740  0.00  0.00     0.000 C
ATOM     81  C3  NAG B   6       1.638  11.189  29.2760  0.00  0.00     0.000 C
ATOM     82  C4  NAG B   6       2.106  11.264  27.8190  0.00  0.00     0.000 C
ATOM     83  C5  NAG B   6       3.543  11.770  27.7740  0.00  0.00     0.000 C
ATOM     84  O5  NAG B   6       3.563  13.069  28.3690  0.00  0.00     0.000 O
BRANCH 80 87
ATOM     85   N  NAG B   6       0.721  13.143  30.7060  0.00  0.00     0.000 N
ATOM     87  HD  NAG B   6      -0.045  13.073  31.1050  0.00  0.00     0.000 HD
ATOM     87   C  NAG B   6       0.418  12.865  31.9800  0.00  0.00     0.000 C
ATOM     88   C  NAG B   6      -0.729  13.632  32.5570  0.00  0.00     0.000 C
ATOM     89   O  NAG B   6       1.039  12.049  32.6510  0.00  0.00     0.000 OA
ENDBRANCH 80 87
ATOM     90   O  NAG B   6       5.150  10.875  26.2040  0.00  0.00     0.000 O
ATOM     92  HD  NAG B   6       5.032  11.229  26.9860  0.00  0.00     0.000 HD
ATOM     92   O  NAG B   6       5.150  10.875  26.2040  0.00  0.00     0.000 O
ATOM     94  HD  NAG B   6       5.032  11.229  26.9860  0.00  0.00     0.000 HD
ENDBRANCH 78 81
ENDBRANCH 65 78
ENDBRANCH 64 68
ENDBRANCH 48 64
ENDBRANCH 47 50
ENDBRANCH 34 47
ENDBRANCH 33 37
ENDBRANCH 17 33
ENDBRANCH 16 19
ENDBRANCH 1 16
TORSDOF 16
ENDMDL
MODEL 36
REMARK VINA RESULT:      -9.7     22.422     30.383
ROOT
ATOM      1  C1  BDP B   1      -2.075 -26.029   2.2880  0.00  0.00     0.000 C
ATOM      2  C2  BDP B   1      -0.719 -26.001   1.6070  0.00  0.00     0.000 C
ATOM      3  C3  BDP B   1      -0.039 -24.655   1.7470  0.00  0.00     0.000 C
ATOM      4  C4  BDP B   1      -0.659 -23.753   2.8070  0.00  0.00     0.000 C
ATOM      5  C5  BDP B   1      -2.181 -23.696   2.7170  0.00  0.00     0.000 C
ATOM      6  O5  BDP B   1      -2.722 -24.804   1.9770  0.00  0.00     0.000 O
ATOM      7   O  BDP B   1       0.121 -27.024   2.1520  0.00  0.00     0.000 O
ATOM      9  HD  BDP B   1       0.250 -27.834   2.4270  0.00  0.00     0.000 HD
ATOM      9   O  BDP B   1      -0.082 -23.952   0.4950  0.00  0.00     0.000 O
ATOM     11  HD  BDP B   1       0.046 -24.763   0.7710  0.00  0.00     0.000 HD
ATOM     11   O  BDP B   1      -0.268 -24.180   4.1180  0.00  0.00     0.000 O
ATOM     13  HD  BDP B   1      -0.140 -24.991   4.3930  0.00  0.00     0.000 HD
ENDROOT
BRANCH 5 13
ATOM     13   C  BDP B   1      -2.535 -22.419   2.0390  0.00  0.00     0.000 C
ATOM     14   O  BDP B   1      -2.725 -22.439   0.8050  0.00  0.00     0.000 OA
ATOM     15   O  BDP B   1      -2.656 -21.380   2.7240  0.00  0.00     0.000 OA
ENDBRANCH 5 13
BRANCH 1 16
ATOM     16  O3  NAG B   2      -2.572 -26.867   3.3300  0.00  0.00     0.000 O
BRANCH 16 19
ATOM     17  C1  NAG B   2      -4.393 -28.210   6.1820  0.00  0.00     0.000 C
ATOM     18  C2  NAG B   2      -3.656 -28.423   4.8590  0.00  0.00     0.000 C
ATOM     19  C3  NAG B   2      -2.581 -27.364   4.6690  0.00  0.00     0.000 C
ATOM     20  C4  NAG B   2      -2.751 -26.200   5.6500  0.00  0.00     0.000 C
ATOM     21  C5  NAG B   2      -4.205 -25.833   5.9800  0.00  0.00     0.000 C
ATOM     22  O5  NAG B   2      -5.080 -26.966   6.0320  0.00  0.00     0.000 O
ATOM     23   O  NAG B   2      -2.046 -26.515   6.8550  0.00  0.00     0.000 O
ATOM     25  HD  NAG B   2      -2.288 -27.346   6.8630  0.00  0.00     0.000 HD
ATOM     25   C  NAG B   2      -4.757 -24.834   4.9520  0.00  0.00     0.000 C
ATOM     26   O  NAG B   2      -4.421 -23.482   5.2930  0.00  0.00     0.000 O
ATOM     28  HD  NAG B   2      -4.664 -24.313   5.3010  0.00  0.00     0.000 HD
BRANCH 18 30
ATOM     28   N  NAG B   2      -2.967 -29.701   4.6820  0.00  0.00     0.000 N
ATOM     30  HD  NAG B   2      -3.113 -30.538   4.5150  0.00  0.00     0.000 HD
ATOM     30   C  NAG B   2      -2.344 -30.379   5.6560  0.00  0.00     0.000 C
ATOM     31   C  NAG B   2      -1.700 -31.664   5.2190  0.00  0.00     0.000 C
ATOM     32   O  NAG B   2      -2.298 -30.004   6.8040  0.00  0.00     0.000 OA
ENDBRANCH 18 30
BRANCH 17 33
ATOM     33  O4  BDP B   3      -5.537 -28.378   7.0480  0.00  0.00     0.000 O
BRANCH 33 37
ATOM     34  C1  BDP B   3      -6.519 -28.266  11.2030  0.00  0.00     0.000 C
ATOM     35  C2  BDP B   3      -5.459 -29.269  10.7650  0.00  0.00     0.000 C
ATOM     36  C3  BDP B   3      -4.865 -28.970   9.3920  0.00  0.00     0.000 C
ATOM     37  C4  BDP B   3      -5.997 -28.643   8.4060  0.00  0.00     0.000 C
ATOM     38  C5  BDP B   3      -6.797 -27.467   9.0000  0.00  0.00     0.000 C
ATOM     39  O5  BDP B   3      -7.454 -27.993  10.1530  0.00  0.00     0.000 O
ATOM     40   O  BDP B   3      -4.467 -29.277  11.7930  0.00  0.00     0.000 O
ATOM     42  HD  BDP B   3      -5.061 -29.797  12.1480  0.00  0.00     0.000 HD
ATOM     42   O  BDP B   3      -4.137 -30.132   8.9990  0.00  0.00     0.000 O
ATOM     44  HD  BDP B   3      -4.732 -30.651   9.3540  0.00  0.00     0.000 HD
BRANCH 38 44
ATOM     44   C  BDP B   3      -7.805 -26.871   8.0680  0.00  0.00     0.000 C
ATOM     45   O  BDP B   3      -8.352 -27.628   7.2360  0.00  0.00     0.000 OA
ATOM     46   O  BDP B   3      -8.071 -25.652   8.1430  0.00  0.00     0.000 OA
ENDBRANCH 38 44
BRANCH 34 47
ATOM     47  O3  NAG B   4      -7.588 -28.893  11.9090  0.00  0.00     0.000 O
BRANCH 47 50
ATOM     48  C1  NAG B   4      -9.826 -26.485  13.7370  0.00  0.00     0.000 C
ATOM     49  C2  NAG B   4      -8.530 -27.186  13.3680  0.00  0.00     0.000 C
ATOM     50  C3  NAG B   4      -8.792 -28.167  12.2300  0.00  0.00     0.000 C
ATOM     51  C4  NAG B   4      -9.898 -29.149  12.5820  0.00  0.00     0.000 C
ATOM     52  C5  NAG B   4     -11.152 -28.387  13.0130  0.00  0.00     0.000 C
ATOM     53  O5  NAG B   4     -10.838 -27.459  14.0590  0.00  0.00     0.000 O
ATOM     54   O  NAG B   4     -10.172 -29.969  11.4430  0.00  0.00     0.000 O
ATOM     56  HD  NAG B   4     -10.523 -30.282  12.1710  0.00  0.00     0.000 HD
ATOM     56   C  NAG B   4     -12.241 -29.339  13.4920  0.00  0.00     0.000 C
ATOM     57   O  NAG B   4     -11.749 -30.087  14.6120  0.00  0.00     0.000 O
ATOM     59  HD  NAG B   4     -12.099 -30.400  15.3400  0.00  0.00     0.000 HD
BRANCH 49 61
ATOM     59   N  NAG B   4      -8.107 -27.512  14.7300  0.00  0.00     0.000 N
ATOM     61  HD  NAG B   4      -7.816 -27.604  13.9200  0.00  0.00     0.000 HD
ATOM     61   O  NAG B   4      -5.936 -26.938  14.4850  0.00  0.00     0.000 OA
ATOM     62   C  NAG B   4      -6.870 -27.291  15.1910  0.00  0.00     0.000 C
ATOM     63   C  NAG B   4      -6.683 -27.486  16.6620  0.00  0.00     0.000 C
ENDBRANCH 49 61
BRANCH 48 64
ATOM     64  O4  BDP B   5     -10.112 -25.197  14.2760  0.00  0.00     0.000 O
BRANCH 64 68
ATOM     65  C1  BDP B   5     -11.229 -21.254  15.0310  0.00  0.00     0.000 C
ATOM     66  C2  BDP B   5     -12.364 -22.223  14.7310  0.00  0.00     0.000 C
ATOM     67  C3  BDP B   5     -11.875 -23.655  14.9040  0.00  0.00     0.000 C
ATOM     68  C4  BDP B   5     -10.654 -23.902  14.0250  0.00  0.00     0.000 C
ATOM     69  C5  BDP B   5      -9.562 -22.865  14.2550  0.00  0.00     0.000 C
ATOM     70  O5  BDP B   5     -10.104 -21.535  14.1840  0.00  0.00     0.000 O
ATOM     71   O  BDP B   5     -13.481 -21.937  15.5880  0.00  0.00     0.000 O
ATOM     73  HD  BDP B   5     -14.116 -21.735  16.1410  0.00  0.00     0.000 HD
ATOM     73   O  BDP B   5     -12.906 -24.585  14.5520  0.00  0.00     0.000 O
ATOM     75  HD  BDP B   5     -13.541 -24.383  15.1050  0.00  0.00     0.000 HD
BRANCH 69 75
ATOM     75   C  BDP B   5      -8.511 -23.039  13.1880  0.00  0.00     0.000 C
ATOM     76   O  BDP B   5      -8.863 -23.012  11.9910  0.00  0.00     0.000 OA
ATOM     77   O  BDP B   5      -7.325 -23.199  13.5290  0.00  0.00     0.000 OA
ENDBRANCH 69 75
BRANCH 65 78
ATOM     78  O3  NAG B   6     -11.047 -19.956  14.4590  0.00  0.00     0.000 O
BRANCH 78 81
ATOM     79  C1  NAG B   6      -9.762 -16.395  14.5150  0.00  0.00     0.000 C
ATOM     80  C2  NAG B   6     -10.450 -17.648  13.9520  0.00  0.00     0.000 C
ATOM     81  C3  NAG B   6     -10.543 -18.725  15.0210  0.00  0.00     0.000 C
ATOM     82  C4  NAG B   6      -9.176 -18.968  15.6710  0.00  0.00     0.000 C
ATOM     83  C5  NAG B   6      -8.622 -17.648  16.1930  0.00  0.00     0.000 C
ATOM     84  O5  NAG B   6      -8.490 -16.763  15.0800  0.00  0.00     0.000 O
BRANCH 80 87
ATOM     85   N  NAG B   6     -11.107 -18.168  12.7560  0.00  0.00     0.000 N
ATOM     87  HD  NAG B   6     -11.778 -18.573  12.3860  0.00  0.00     0.000 HD
ATOM     87   C  NAG B   6     -12.257 -17.690  12.2650  0.00  0.00     0.000 C
ATOM     88   C  NAG B   6     -12.747 -18.339  11.0100  0.00  0.00     0.000 C
ATOM     89   O  NAG B   6     -12.876 -16.771  12.7890  0.00  0.00     0.000 OA
ENDBRANCH 80 87
ATOM     90   O  NAG B   6      -7.419 -17.522  18.2880  0.00  0.00     0.000 O
ATOM     92  HD  NAG B   6      -7.934 -17.104  17.7310  0.00  0.00     0.000 HD
ATOM     92   O  NAG B   6      -7.419 -17.522  18.2880  0.00  0.00     0.000 O
ATOM     94  HD  NAG B   6      -7.934 -17.104  17.7310  0.00  0.00     0.000 HD
ENDBRANCH 78 81
ENDBRANCH 65 78
ENDBRANCH 64 68
ENDBRANCH 48 64
ENDBRANCH 47 50
ENDBRANCH 34 47
ENDBRANCH 33 37
ENDBRANCH 17 33
ENDBRANCH 16 19
ENDBRANCH 1 16
TORSDOF 16
ENDMDL
MODEL 37
REMARK VINA RESULT:      -9.6     12.908     20.016
ROOT
ATOM      1  C1  BDP B   1      -1.418  -4.033  25.8070  0.00  0.00     0.000 C
ATOM      2  C2  BDP B   1      -0.372  -3.667  24.7700  0.00  0.00     0.000 C
ATOM      3  C3  BDP B   1      -0.989  -3.070  23.5230  0.00  0.00     0.000 C
ATOM      4  C4  BDP B   1      -2.441  -2.636  23.6960  0.00  0.00     0.000 C
ATOM      5  C5  BDP B   1      -3.294  -3.693  24.3920  0.00  0.00     0.000 C
ATOM      6  O5  BDP B   1      -2.494  -4.646  25.1120  0.00  0.00     0.000 O
ATOM      7   O  BDP B   1       0.568  -2.743  25.3300  0.00  0.00     0.000 O
ATOM      9  HD  BDP B   1       1.081  -2.480  25.9760  0.00  0.00     0.000 HD
ATOM      9   O  BDP B   1      -0.943  -4.022  22.4490  0.00  0.00     0.000 O
ATOM     11  HD  BDP B   1      -0.430  -3.758  23.0950  0.00  0.00     0.000 HD
ATOM     11   O  BDP B   1      -2.512  -1.403  24.4210  0.00  0.00     0.000 O
ATOM     13  HD  BDP B   1      -1.998  -1.140  25.0670  0.00  0.00     0.000 HD
ENDROOT
BRANCH 5 13
ATOM     13   C  BDP B   1      -4.078  -4.391  23.3370  0.00  0.00     0.000 C
ATOM     14   O  BDP B   1      -4.901  -3.725  22.6750  0.00  0.00     0.000 OA
ATOM     15   O  BDP B   1      -3.871  -5.606  23.1300  0.00  0.00     0.000 OA
ENDBRANCH 5 13
BRANCH 1 16
ATOM     16  O3  NAG B   2      -1.579  -3.596  27.1550  0.00  0.00     0.000 O
BRANCH 16 19
ATOM     17  C1  NAG B   2      -2.402  -2.574  30.5510  0.00  0.00     0.000 C
ATOM     18  C2  NAG B   2      -2.673  -3.449  29.3270  0.00  0.00     0.000 C
ATOM     19  C3  NAG B   2      -1.384  -3.717  28.5650  0.00  0.00     0.000 C
ATOM     20  C4  NAG B   2      -0.256  -2.784  29.0130  0.00  0.00     0.000 C
ATOM     21  C5  NAG B   2      -0.697  -1.362  29.3890  0.00  0.00     0.000 C
ATOM     22  O5  NAG B   2      -1.980  -1.314  30.0250  0.00  0.00     0.000 O
ATOM     23   O  NAG B   2       0.424  -3.389  30.1170  0.00  0.00     0.000 O
ATOM     25  HD  NAG B   2      -0.300  -3.678  30.4950  0.00  0.00     0.000 HD
ATOM     25   C  NAG B   2      -0.732  -0.460  28.1480  0.00  0.00     0.000 C
ATOM     26   O  NAG B   2       0.558   0.101  27.8630  0.00  0.00     0.000 O
ATOM     28  HD  NAG B   2      -0.166  -0.188  28.2400  0.00  0.00     0.000 HD
BRANCH 18 30
ATOM     28   N  NAG B   2      -2.709  -4.236  30.5590  0.00  0.00     0.000 N
ATOM     30  HD  NAG B   2      -2.199  -4.546  31.1860  0.00  0.00     0.000 HD
ATOM     30   C  NAG B   2      -2.972  -5.549  30.6250  0.00  0.00     0.000 C
ATOM     31   C  NAG B   2      -2.960  -6.128  32.0110  0.00  0.00     0.000 C
ATOM     32   O  NAG B   2      -3.198  -6.232  29.6530  0.00  0.00     0.000 OA
ENDBRANCH 18 30
BRANCH 17 33
ATOM     33  O4  BDP B   3      -2.822  -1.650  31.5790  0.00  0.00     0.000 O
BRANCH 33 37
ATOM     34  C1  BDP B   3      -3.852  -0.420  35.5370  0.00  0.00     0.000 C
ATOM     35  C2  BDP B   3      -2.634   0.236  34.8980  0.00  0.00     0.000 C
ATOM     36  C3  BDP B   3      -2.578   0.076  33.3830  0.00  0.00     0.000 C
ATOM     37  C4  BDP B   3      -2.888  -1.381  33.0100  0.00  0.00     0.000 C
ATOM     38  C5  BDP B   3      -4.262  -1.726  33.6150  0.00  0.00     0.000 C
ATOM     39  O5  BDP B   3      -4.068  -1.742  35.0290  0.00  0.00     0.000 O
ATOM     40   O  BDP B   3      -2.663   1.608  35.2980  0.00  0.00     0.000 O
ATOM     42  HD  BDP B   3      -2.316   1.248  36.0050  0.00  0.00     0.000 HD
ATOM     42   O  BDP B   3      -1.265   0.460  32.9790  0.00  0.00     0.000 O
ATOM     44  HD  BDP B   3      -0.918   0.101  33.6860  0.00  0.00     0.000 HD
BRANCH 38 44
ATOM     44   C  BDP B   3      -4.824  -3.039  33.1660  0.00  0.00     0.000 C
ATOM     45   O  BDP B   3      -4.737  -4.011  33.9480  0.00  0.00     0.000 OA
ATOM     46   O  BDP B   3      -5.358  -3.130  32.0390  0.00  0.00     0.000 OA
ENDBRANCH 38 44
BRANCH 34 47
ATOM     47  O3  NAG B   4      -3.539  -1.019  36.7930  0.00  0.00     0.000 O
BRANCH 47 50
ATOM     48  C1  NAG B   4      -4.922  -0.598  40.2660  0.00  0.00     0.000 C
ATOM     49  C2  NAG B   4      -3.910  -0.485  39.1400  0.00  0.00     0.000 C
ATOM     50  C3  NAG B   4      -4.510  -1.056  37.8600  0.00  0.00     0.000 C
ATOM     51  C4  NAG B   4      -4.992  -2.484  38.0570  0.00  0.00     0.000 C
ATOM     52  C5  NAG B   4      -5.952  -2.548  39.2460  0.00  0.00     0.000 C
ATOM     53  O5  NAG B   4      -5.347  -1.968  40.4080  0.00  0.00     0.000 O
ATOM     54   O  NAG B   4      -5.640  -2.926  36.8610  0.00  0.00     0.000 O
ATOM     56  HD  NAG B   4      -5.461  -3.577  37.4040  0.00  0.00     0.000 HD
ATOM     56   C  NAG B   4      -6.359  -3.985  39.5520  0.00  0.00     0.000 C
ATOM     57   O  NAG B   4      -5.186  -4.747  39.8640  0.00  0.00     0.000 O
ATOM     59  HD  NAG B   4      -5.007  -5.398  40.4070  0.00  0.00     0.000 HD
BRANCH 49 61
ATOM     59   N  NAG B   4      -3.487   0.916  39.1370  0.00  0.00     0.000 N
ATOM     61  HD  NAG B   4      -3.271   0.173  39.5260  0.00  0.00     0.000 HD
ATOM     61   O  NAG B   4      -1.262   0.528  39.1610  0.00  0.00     0.000 OA
ATOM     62   C  NAG B   4      -2.206   1.299  39.0740  0.00  0.00     0.000 C
ATOM     63   C  NAG B   4      -1.978   2.763  38.8660  0.00  0.00     0.000 C
ENDBRANCH 49 61
BRANCH 48 64
ATOM     64  O4  BDP B   5      -5.159   0.175  41.4390  0.00  0.00     0.000 O
BRANCH 64 68
ATOM     65  C1  BDP B   5      -5.949   1.501  45.3100  0.00  0.00     0.000 C
ATOM     66  C2  BDP B   5      -4.497   1.588  44.8580  0.00  0.00     0.000 C
ATOM     67  C3  BDP B   5      -4.426   1.491  43.3400  0.00  0.00     0.000 C
ATOM     68  C4  BDP B   5      -5.107   0.212  42.8640  0.00  0.00     0.000 C
ATOM     69  C5  BDP B   5      -6.524   0.080  43.4060  0.00  0.00     0.000 C
ATOM     70  O5  BDP B   5      -6.543   0.285  44.8290  0.00  0.00     0.000 O
ATOM     71   O  BDP B   5      -3.916   2.810  45.3390  0.00  0.00     0.000 O
ATOM     73  HD  BDP B   5      -3.621   3.568  45.6360  0.00  0.00     0.000 HD
ATOM     73   O  BDP B   5      -3.063   1.493  42.8990  0.00  0.00     0.000 O
ATOM     75  HD  BDP B   5      -2.769   2.251  43.1960  0.00  0.00     0.000 HD
BRANCH 69 75
ATOM     75   C  BDP B   5      -7.024  -1.307  43.0910  0.00  0.00     0.000 C
ATOM     76   O  BDP B   5      -6.342  -2.287  43.4520  0.00  0.00     0.000 OA
ATOM     77   O  BDP B   5      -8.104  -1.436  42.4840  0.00  0.00     0.000 OA
ENDBRANCH 69 75
BRANCH 65 78
ATOM     78  O3  NAG B   6      -6.421   0.974  46.5530  0.00  0.00     0.000 O
BRANCH 78 81
ATOM     79  C1  NAG B   6      -8.947   1.748  49.2650  0.00  0.00     0.000 C
ATOM     80  C2  NAG B   6      -7.611   1.810  48.5080  0.00  0.00     0.000 C
ATOM     81  C3  NAG B   6      -7.712   1.050  47.1960  0.00  0.00     0.000 C
ATOM     82  C4  NAG B   6      -8.268  -0.360  47.4230  0.00  0.00     0.000 C
ATOM     83  C5  NAG B   6      -9.594  -0.268  48.1680  0.00  0.00     0.000 C
ATOM     84  O5  NAG B   6      -9.344   0.374  49.4190  0.00  0.00     0.000 O
BRANCH 80 87
ATOM     85   N  NAG B   6      -7.143   3.119  48.0620  0.00  0.00     0.000 N
ATOM     87  HD  NAG B   6      -6.966   3.949  48.2330  0.00  0.00     0.000 HD
ATOM     87   C  NAG B   6      -6.022   3.704  48.5010  0.00  0.00     0.000 C
ATOM     88   C  NAG B   6      -5.701   5.032  47.8920  0.00  0.00     0.000 C
ATOM     89   O  NAG B   6      -5.285   3.194  49.3360  0.00  0.00     0.000 OA
ENDBRANCH 80 87
ATOM     90   O  NAG B   6     -11.445  -1.732  47.6400  0.00  0.00     0.000 O
ATOM     92  HD  NAG B   6     -11.210  -0.950  47.9290  0.00  0.00     0.000 HD
ATOM     92   O  NAG B   6     -11.445  -1.732  47.6400  0.00  0.00     0.000 O
ATOM     94  HD  NAG B   6     -11.210  -0.950  47.9290  0.00  0.00     0.000 HD
ENDBRANCH 78 81
ENDBRANCH 65 78
ENDBRANCH 64 68
ENDBRANCH 48 64
ENDBRANCH 47 50
ENDBRANCH 34 47
ENDBRANCH 33 37
ENDBRANCH 17 33
ENDBRANCH 16 19
ENDBRANCH 1 16
TORSDOF 16
ENDMDL
MODEL 38
REMARK VINA RESULT:      -9.6     10.105     18.774
ROOT
ATOM      1  C1  BDP B   1       1.849  -8.786  29.4780  0.00  0.00     0.000 C
ATOM      2  C2  BDP B   1       2.526  -9.170  28.1740  0.00  0.00     0.000 C
ATOM      3  C3  BDP B   1       3.063 -10.586  28.2070  0.00  0.00     0.000 C
ATOM      4  C4  BDP B   1       2.522 -11.430  29.3550  0.00  0.00     0.000 C
ATOM      5  C5  BDP B   1       2.558 -10.698  30.6940  0.00  0.00     0.000 C
ATOM      6  O5  BDP B   1       2.668  -9.274  30.5300  0.00  0.00     0.000 O
ATOM      7   O  BDP B   1       1.605  -9.030  27.0880  0.00  0.00     0.000 O
ATOM      9  HD  BDP B   1       0.988  -8.592  26.6660  0.00  0.00     0.000 HD
ATOM      9   O  BDP B   1       4.495 -10.564  28.3190  0.00  0.00     0.000 O
ATOM     11  HD  BDP B   1       3.878 -10.126  27.8980  0.00  0.00     0.000 HD
ATOM     11   O  BDP B   1       1.183 -11.856  29.0730  0.00  0.00     0.000 O
ATOM     13  HD  BDP B   1       0.566 -11.417  28.6520  0.00  0.00     0.000 HD
ENDROOT
BRANCH 5 13
ATOM     13   C  BDP B   1       3.738 -11.211  31.4430  0.00  0.00     0.000 C
ATOM     14   O  BDP B   1       4.785 -11.447  30.8050  0.00  0.00     0.000 OA
ATOM     15   O  BDP B   1       3.653 -11.362  32.6810  0.00  0.00     0.000 OA
ENDBRANCH 5 13
BRANCH 1 16
ATOM     16  O3  NAG B   2       0.515  -8.354  29.7370  0.00  0.00     0.000 O
BRANCH 16 19
ATOM     17  C1  NAG B   2      -1.685  -5.454  29.6800  0.00  0.00     0.000 C
ATOM     18  C2  NAG B   2      -0.545  -6.266  29.0650  0.00  0.00     0.000 C
ATOM     19  C3  NAG B   2      -0.722  -7.747  29.3620  0.00  0.00     0.000 C
ATOM     20  C4  NAG B   2      -1.767  -7.986  30.4550  0.00  0.00     0.000 C
ATOM     21  C5  NAG B   2      -1.804  -6.925  31.5640  0.00  0.00     0.000 C
ATOM     22  O5  NAG B   2      -1.530  -5.600  31.0940  0.00  0.00     0.000 O
ATOM     23   O  NAG B   2      -3.055  -8.088  29.8390  0.00  0.00     0.000 O
ATOM     25  HD  NAG B   2      -2.914  -7.446  29.2750  0.00  0.00     0.000 HD
ATOM     25   C  NAG B   2      -0.801  -7.269  32.6750  0.00  0.00     0.000 C
ATOM     26   O  NAG B   2      -1.361  -8.177  33.6340  0.00  0.00     0.000 O
ATOM     28  HD  NAG B   2      -1.219  -7.535  33.0700  0.00  0.00     0.000 HD
BRANCH 18 30
ATOM     28   N  NAG B   2      -1.472  -5.794  28.0380  0.00  0.00     0.000 N
ATOM     30  HD  NAG B   2      -2.289  -5.882  27.7620  0.00  0.00     0.000 HD
ATOM     30   C  NAG B   2      -1.385  -6.084  26.7320  0.00  0.00     0.000 C
ATOM     31   C  NAG B   2      -2.454  -5.469  25.8750  0.00  0.00     0.000 C
ATOM     32   O  NAG B   2      -0.522  -6.790  26.2630  0.00  0.00     0.000 OA
ENDBRANCH 18 30
BRANCH 17 33
ATOM     33  O4  BDP B   3      -2.249  -4.224  30.1860  0.00  0.00     0.000 O
BRANCH 33 37
ATOM     34  C1  BDP B   3      -5.358  -2.530  32.5740  0.00  0.00     0.000 C
ATOM     35  C2  BDP B   3      -5.715  -3.744  31.7250  0.00  0.00     0.000 C
ATOM     36  C3  BDP B   3      -4.501  -4.534  31.2480  0.00  0.00     0.000 C
ATOM     37  C4  BDP B   3      -3.440  -3.564  30.7060  0.00  0.00     0.000 C
ATOM     38  C5  BDP B   3      -3.119  -2.561  31.8300  0.00  0.00     0.000 C
ATOM     39  O5  BDP B   3      -4.296  -1.768  31.9880  0.00  0.00     0.000 O
ATOM     40   O  BDP B   3      -6.601  -4.538  32.5160  0.00  0.00     0.000 O
ATOM     42  HD  BDP B   3      -7.154  -3.945  32.2130  0.00  0.00     0.000 HD
ATOM     42   O  BDP B   3      -4.966  -5.430  30.2410  0.00  0.00     0.000 O
ATOM     44  HD  BDP B   3      -5.519  -4.837  29.9370  0.00  0.00     0.000 HD
BRANCH 38 44
ATOM     44   C  BDP B   3      -1.945  -1.675  31.5530  0.00  0.00     0.000 C
ATOM     45   O  BDP B   3      -0.879  -1.908  32.1640  0.00  0.00     0.000 OA
ATOM     46   O  BDP B   3      -2.057  -0.739  30.7320  0.00  0.00     0.000 OA
ENDBRANCH 38 44
BRANCH 34 47
ATOM     47  O3  NAG B   4      -6.217  -1.422  32.3090  0.00  0.00     0.000 O
BRANCH 47 50
ATOM     48  C1  NAG B   4      -6.991   0.358  35.5310  0.00  0.00     0.000 C
ATOM     49  C2  NAG B   4      -6.822  -0.822  34.5900  0.00  0.00     0.000 C
ATOM     50  C3  NAG B   4      -6.320  -0.324  33.2390  0.00  0.00     0.000 C
ATOM     51  C4  NAG B   4      -7.235   0.745  32.6620  0.00  0.00     0.000 C
ATOM     52  C5  NAG B   4      -7.424   1.871  33.6800  0.00  0.00     0.000 C
ATOM     53  O5  NAG B   4      -7.863   1.340  34.9370  0.00  0.00     0.000 O
ATOM     54   O  NAG B   4      -6.658   1.248  31.4540  0.00  0.00     0.000 O
ATOM     56  HD  NAG B   4      -7.487   1.480  31.5500  0.00  0.00     0.000 HD
ATOM     56   C  NAG B   4      -8.433   2.900  33.1860  0.00  0.00     0.000 C
ATOM     57   O  NAG B   4      -9.695   2.253  32.9740  0.00  0.00     0.000 O
ATOM     59  HD  NAG B   4     -10.524   2.484  33.0690  0.00  0.00     0.000 HD
BRANCH 49 61
ATOM     59   N  NAG B   4      -7.988  -1.429  35.2330  0.00  0.00     0.000 N
ATOM     61  HD  NAG B   4      -7.482  -1.564  34.5430  0.00  0.00     0.000 HD
ATOM     61   O  NAG B   4      -7.335  -3.579  35.0080  0.00  0.00     0.000 OA
ATOM     62   C  NAG B   4      -8.109  -2.743  35.4510  0.00  0.00     0.000 C
ATOM     63   C  NAG B   4      -9.264  -3.153  36.3080  0.00  0.00     0.000 C
ENDBRANCH 49 61
BRANCH 48 64
ATOM     64  O4  BDP B   5      -6.900   0.490  36.9470  0.00  0.00     0.000 O
BRANCH 64 68
ATOM     65  C1  BDP B   5      -5.365   0.632  40.8190  0.00  0.00     0.000 C
ATOM     66  C2  BDP B   5      -4.356   0.358  39.7110  0.00  0.00     0.000 C
ATOM     67  C3  BDP B   5      -4.951   0.756  38.3670  0.00  0.00     0.000 C
ATOM     68  C4  BDP B   5      -6.272   0.028  38.1420  0.00  0.00     0.000 C
ATOM     69  C5  BDP B   5      -7.239   0.220  39.3040  0.00  0.00     0.000 C
ATOM     70  O5  BDP B   5      -6.590  -0.069  40.5540  0.00  0.00     0.000 O
ATOM     71   O  BDP B   5      -3.138   1.068  39.9820  0.00  0.00     0.000 O
ATOM     73  HD  BDP B   5      -2.434   1.532  40.1830  0.00  0.00     0.000 HD
ATOM     73   O  BDP B   5      -4.048   0.435  37.3020  0.00  0.00     0.000 O
ATOM     75  HD  BDP B   5      -3.345   0.898  37.5030  0.00  0.00     0.000 HD
BRANCH 69 75
ATOM     75   C  BDP B   5      -8.403  -0.718  39.1110  0.00  0.00     0.000 C
ATOM     76   O  BDP B   5      -8.271  -1.913  39.4450  0.00  0.00     0.000 OA
ATOM     77   O  BDP B   5      -9.462  -0.275  38.6300  0.00  0.00     0.000 OA
ENDBRANCH 69 75
BRANCH 65 78
ATOM     78  O3  NAG B   6      -5.486  -0.083  42.0510  0.00  0.00     0.000 O
BRANCH 78 81
ATOM     79  C1  NAG B   6      -5.560   0.704  45.7540  0.00  0.00     0.000 C
ATOM     80  C2  NAG B   6      -4.949   0.460  44.3650  0.00  0.00     0.000 C
ATOM     81  C3  NAG B   6      -6.047   0.297  43.3270  0.00  0.00     0.000 C
ATOM     82  C4  NAG B   6      -7.075  -0.745  43.7780  0.00  0.00     0.000 C
ATOM     83  C5  NAG B   6      -7.604  -0.371  45.1580  0.00  0.00     0.000 C
ATOM     84  O5  NAG B   6      -6.493  -0.349  46.0560  0.00  0.00     0.000 O
BRANCH 80 87
ATOM     85   N  NAG B   6      -3.938   1.509  44.2620  0.00  0.00     0.000 N
ATOM     87  HD  NAG B   6      -3.130   1.786  44.4040  0.00  0.00     0.000 HD
ATOM     87   C  NAG B   6      -2.834   1.414  43.5110  0.00  0.00     0.000 C
ATOM     88   C  NAG B   6      -1.941   2.614  43.5150  0.00  0.00     0.000 C
ATOM     89   O  NAG B   6      -2.562   0.422  42.8450  0.00  0.00     0.000 OA
ENDBRANCH 80 87
ATOM     90   O  NAG B   6      -9.930  -0.673  45.7460  0.00  0.00     0.000 O
ATOM     92  HD  NAG B   6      -9.213  -0.205  45.8750  0.00  0.00     0.000 HD
ATOM     92   O  NAG B   6      -9.930  -0.673  45.7460  0.00  0.00     0.000 O
ATOM     94  HD  NAG B   6      -9.213  -0.205  45.8750  0.00  0.00     0.000 HD
ENDBRANCH 78 81
ENDBRANCH 65 78
ENDBRANCH 64 68
ENDBRANCH 48 64
ENDBRANCH 47 50
ENDBRANCH 34 47
ENDBRANCH 33 37
ENDBRANCH 17 33
ENDBRANCH 16 19
ENDBRANCH 1 16
TORSDOF 16
ENDMDL
MODEL 39
REMARK VINA RESULT:      -9.6     25.887     30.240
ROOT
ATOM      1  C1  BDP B   1       0.926  -1.687  61.6820  0.00  0.00     0.000 C
ATOM      2  C2  BDP B   1       0.949  -1.136  63.0970  0.00  0.00     0.000 C
ATOM      3  C3  BDP B   1       1.535  -2.124  64.0830  0.00  0.00     0.000 C
ATOM      4  C4  BDP B   1       2.288  -3.279  63.4330  0.00  0.00     0.000 C
ATOM      5  C5  BDP B   1       1.518  -3.908  62.2760  0.00  0.00     0.000 C
ATOM      6  O5  BDP B   1       0.493  -3.036  61.7690  0.00  0.00     0.000 O
ATOM      7   O  BDP B   1       1.700   0.082  63.1330  0.00  0.00     0.000 O
ATOM      9  HD  BDP B   1       1.910   0.855  62.8030  0.00  0.00     0.000 HD
ATOM      9   O  BDP B   1       0.491  -2.685  64.8940  0.00  0.00     0.000 O
ATOM     11  HD  BDP B   1       0.702  -1.912  64.5640  0.00  0.00     0.000 HD
ATOM     11   O  BDP B   1       3.575  -2.844  62.9770  0.00  0.00     0.000 O
ATOM     13  HD  BDP B   1       3.785  -2.072  62.6470  0.00  0.00     0.000 HD
ENDROOT
BRANCH 5 13
ATOM     13   C  BDP B   1       0.901  -5.163  62.7870  0.00  0.00     0.000 C
ATOM     14   O  BDP B   1       1.572  -6.215  62.7300  0.00  0.00     0.000 OA
ATOM     15   O  BDP B   1      -0.247  -5.121  63.2780  0.00  0.00     0.000 OA
ENDBRANCH 5 13
BRANCH 1 16
ATOM     16  O3  NAG B   2       1.523  -1.192  60.4850  0.00  0.00     0.000 O
BRANCH 16 19
ATOM     17  C1  NAG B   2       4.544   0.054  58.8800  0.00  0.00     0.000 C
ATOM     18  C2  NAG B   2       3.864  -0.868  59.8920  0.00  0.00     0.000 C
ATOM     19  C3  NAG B   2       2.469  -1.249  59.4170  0.00  0.00     0.000 C
ATOM     20  C4  NAG B   2       2.000  -0.359  58.2630  0.00  0.00     0.000 C
ATOM     21  C5  NAG B   2       2.462   1.103  58.3390  0.00  0.00     0.000 C
ATOM     22  O5  NAG B   2       3.773   1.258  58.8930  0.00  0.00     0.000 O
ATOM     23   O  NAG B   2       2.438  -0.942  57.0310  0.00  0.00     0.000 O
ATOM     25  HD  NAG B   2       3.217  -1.169  57.3350  0.00  0.00     0.000 HD
ATOM     25   C  NAG B   2       1.477   1.939  59.1700  0.00  0.00     0.000 C
ATOM     26   O  NAG B   2       0.379   2.410  58.3760  0.00  0.00     0.000 O
ATOM     28  HD  NAG B   2       1.158   2.183  58.6790  0.00  0.00     0.000 HD
BRANCH 18 30
ATOM     28   N  NAG B   2       4.796  -1.619  59.0520  0.00  0.00     0.000 N
ATOM     30  HD  NAG B   2       4.865  -1.993  58.2740  0.00  0.00     0.000 HD
ATOM     30   C  NAG B   2       5.200  -2.876  59.2870  0.00  0.00     0.000 C
ATOM     31   C  NAG B   2       6.172  -3.425  58.2810  0.00  0.00     0.000 C
ATOM     32   O  NAG B   2       4.819  -3.533  60.2270  0.00  0.00     0.000 OA
ENDBRANCH 18 30
BRANCH 17 33
ATOM     33  O4  BDP B   3       5.521   1.054  58.5190  0.00  0.00     0.000 O
BRANCH 33 37
ATOM     34  C1  BDP B   3       7.431   3.875  55.9430  0.00  0.00     0.000 C
ATOM     35  C2  BDP B   3       6.835   4.408  57.2400  0.00  0.00     0.000 C
ATOM     36  C3  BDP B   3       6.561   3.325  58.2770  0.00  0.00     0.000 C
ATOM     37  C4  BDP B   3       5.864   2.134  57.6020  0.00  0.00     0.000 C
ATOM     38  C5  BDP B   3       6.771   1.667  56.4480  0.00  0.00     0.000 C
ATOM     39  O5  BDP B   3       6.733   2.714  55.4790  0.00  0.00     0.000 O
ATOM     40   O  BDP B   3       7.746   5.399  57.7210  0.00  0.00     0.000 O
ATOM     42  HD  BDP B   3       7.314   5.861  57.1290  0.00  0.00     0.000 HD
ATOM     42   O  BDP B   3       5.743   3.918  59.2840  0.00  0.00     0.000 O
ATOM     44  HD  BDP B   3       5.311   4.379  58.6920  0.00  0.00     0.000 HD
BRANCH 38 44
ATOM     44   C  BDP B   3       6.353   0.376  55.8160  0.00  0.00     0.000 C
ATOM     45   O  BDP B   3       6.964  -0.664  56.1500  0.00  0.00     0.000 OA
ATOM     46   O  BDP B   3       5.421   0.368  54.9830  0.00  0.00     0.000 OA
ENDBRANCH 38 44
BRANCH 34 47
ATOM     47  O3  NAG B   4       6.925   4.562  54.8010  0.00  0.00     0.000 O
BRANCH 47 50
ATOM     48  C1  NAG B   4       8.983   3.943  51.7140  0.00  0.00     0.000 C
ATOM     49  C2  NAG B   4       8.700   4.361  53.1460  0.00  0.00     0.000 C
ATOM     50  C3  NAG B   4       7.231   4.109  53.4660  0.00  0.00     0.000 C
ATOM     51  C4  NAG B   4       6.315   4.805  52.4710  0.00  0.00     0.000 C
ATOM     52  C5  NAG B   4       6.693   4.400  51.0460  0.00  0.00     0.000 C
ATOM     53  O5  NAG B   4       8.089   4.628  50.8160  0.00  0.00     0.000 O
ATOM     54   O  NAG B   4       4.960   4.445  52.7560  0.00  0.00     0.000 O
ATOM     56  HD  NAG B   4       5.020   5.122  52.2180  0.00  0.00     0.000 HD
ATOM     56   C  NAG B   4       5.878   5.173  50.0160  0.00  0.00     0.000 C
ATOM     57   O  NAG B   4       6.128   6.576  50.1800  0.00  0.00     0.000 O
ATOM     59  HD  NAG B   4       6.188   7.252  49.6420  0.00  0.00     0.000 HD
BRANCH 49 61
ATOM     59   N  NAG B   4       9.445   5.617  53.0580  0.00  0.00     0.000 N
ATOM     61  HD  NAG B   4       8.977   5.179  53.6400  0.00  0.00     0.000 HD
ATOM     61   O  NAG B   4      10.421   5.498  55.0910  0.00  0.00     0.000 OA
ATOM     62   C  NAG B   4      10.294   6.039  54.0020  0.00  0.00     0.000 C
ATOM     63   C  NAG B   4      11.122   7.232  53.6420  0.00  0.00     0.000 C
ENDBRANCH 49 61
BRANCH 48 64
ATOM     64  O4  BDP B   5      10.150   3.454  51.0600  0.00  0.00     0.000 O
BRANCH 64 68
ATOM     65  C1  BDP B   5      13.507   1.239  49.9640  0.00  0.00     0.000 C
ATOM     66  C2  BDP B   5      12.342   1.213  48.9840  0.00  0.00     0.000 C
ATOM     67  C3  BDP B   5      11.395   2.369  49.2830  0.00  0.00     0.000 C
ATOM     68  C4  BDP B   5      10.934   2.306  50.7350  0.00  0.00     0.000 C
ATOM     69  C5  BDP B   5      12.104   2.226  51.7070  0.00  0.00     0.000 C
ATOM     70  O5  BDP B   5      13.017   1.186  51.3140  0.00  0.00     0.000 O
ATOM     71   O  BDP B   5      12.843   1.272  47.6390  0.00  0.00     0.000 O
ATOM     73  HD  BDP B   5      13.196   1.330  46.8510  0.00  0.00     0.000 HD
ATOM     73   O  BDP B   5      10.252   2.318  48.4210  0.00  0.00     0.000 O
ATOM     75  HD  BDP B   5      10.605   2.375  47.6330  0.00  0.00     0.000 HD
BRANCH 69 75
ATOM     75   C  BDP B   5      11.559   1.924  53.0800  0.00  0.00     0.000 C
ATOM     76   O  BDP B   5      11.800   2.722  54.0090  0.00  0.00     0.000 OA
ATOM     77   O  BDP B   5      10.883   0.893  53.2470  0.00  0.00     0.000 OA
ENDBRANCH 69 75
BRANCH 65 78
ATOM     78  O3  NAG B   6      14.249   0.109  50.4300  0.00  0.00     0.000 O
BRANCH 78 81
ATOM     79  C1  NAG B   6      17.862  -1.023  50.4310  0.00  0.00     0.000 C
ATOM     80  C2  NAG B   6      16.459  -0.749  49.8660  0.00  0.00     0.000 C
ATOM     81  C3  NAG B   6      15.612  -0.016  50.8930  0.00  0.00     0.000 C
ATOM     82  C4  NAG B   6      15.641  -0.742  52.2420  0.00  0.00     0.000 C
ATOM     83  C5  NAG B   6      17.087  -0.933  52.6840  0.00  0.00     0.000 C
ATOM     84  O5  NAG B   6      17.744  -1.716  51.6860  0.00  0.00     0.000 O
BRANCH 80 87
ATOM     85   N  NAG B   6      16.680  -0.085  48.5840  0.00  0.00     0.000 N
ATOM     87  HD  NAG B   6      16.879  -0.130  47.7420  0.00  0.00     0.000 HD
ATOM     87   C  NAG B   6      15.903  -0.257  47.5080  0.00  0.00     0.000 C
ATOM     88   C  NAG B   6      16.279   0.542  46.3010  0.00  0.00     0.000 C
ATOM     89   O  NAG B   6      14.933  -1.006  47.4970  0.00  0.00     0.000 OA
ENDBRANCH 80 87
ATOM     90   O  NAG B   6      17.745  -0.698  54.9990  0.00  0.00     0.000 O
ATOM     92  HD  NAG B   6      17.990  -0.617  54.1730  0.00  0.00     0.000 HD
ATOM     92   O  NAG B   6      17.745  -0.698  54.9990  0.00  0.00     0.000 O
ATOM     94  HD  NAG B   6      17.990  -0.617  54.1730  0.00  0.00     0.000 HD
ENDBRANCH 78 81
ENDBRANCH 65 78
ENDBRANCH 64 68
ENDBRANCH 48 64
ENDBRANCH 47 50
ENDBRANCH 34 47
ENDBRANCH 33 37
ENDBRANCH 17 33
ENDBRANCH 16 19
ENDBRANCH 1 16
TORSDOF 16
ENDMDL
MODEL 40
REMARK VINA RESULT:      -9.6      9.213     18.453
ROOT
ATOM      1  C1  BDP B   1       1.810  -9.143  29.1250  0.00  0.00     0.000 C
ATOM      2  C2  BDP B   1       2.278  -9.693  27.7890  0.00  0.00     0.000 C
ATOM      3  C3  BDP B   1       2.734 -11.132  27.8940  0.00  0.00     0.000 C
ATOM      4  C4  BDP B   1       2.309 -11.827  29.1830  0.00  0.00     0.000 C
ATOM      5  C5  BDP B   1       2.571 -10.979  30.4240  0.00  0.00     0.000 C
ATOM      6  O5  BDP B   1       2.738  -9.587  30.1040  0.00  0.00     0.000 O
ATOM      7   O  BDP B   1       1.225  -9.590  26.8250  0.00  0.00     0.000 O
ATOM      9  HD  BDP B   1       0.582  -9.151  26.4460  0.00  0.00     0.000 HD
ATOM      9   O  BDP B   1       4.166 -11.200  27.8140  0.00  0.00     0.000 O
ATOM     11  HD  BDP B   1       3.523 -10.761  27.4350  0.00  0.00     0.000 HD
ATOM     11   O  BDP B   1       0.922 -12.183  29.1250  0.00  0.00     0.000 O
ATOM     13  HD  BDP B   1       0.279 -11.744  28.7460  0.00  0.00     0.000 HD
ENDROOT
BRANCH 5 13
ATOM     13   C  BDP B   1       3.812 -11.500  31.0600  0.00  0.00     0.000 C
ATOM     14   O  BDP B   1       4.905 -11.254  30.5080  0.00  0.00     0.000 OA
ATOM     15   O  BDP B   1       3.725 -12.139  32.1300  0.00  0.00     0.000 OA
ENDBRANCH 5 13
BRANCH 1 16
ATOM     16  O3  NAG B   2       0.551  -8.596  29.5130  0.00  0.00     0.000 O
BRANCH 16 19
ATOM     17  C1  NAG B   2      -1.596  -5.660  29.6680  0.00  0.00     0.000 C
ATOM     18  C2  NAG B   2      -0.519  -6.480  28.9560  0.00  0.00     0.000 C
ATOM     19  C3  NAG B   2      -0.700  -7.963  29.2410  0.00  0.00     0.000 C
ATOM     20  C4  NAG B   2      -1.665  -8.204  30.4050  0.00  0.00     0.000 C
ATOM     21  C5  NAG B   2      -1.600  -7.162  31.5310  0.00  0.00     0.000 C
ATOM     22  O5  NAG B   2      -1.338  -5.834  31.0630  0.00  0.00     0.000 O
ATOM     23   O  NAG B   2      -2.996  -8.274  29.8850  0.00  0.00     0.000 O
ATOM     25  HD  NAG B   2      -2.886  -7.625  29.3230  0.00  0.00     0.000 HD
ATOM     25   C  NAG B   2      -0.523  -7.541  32.5570  0.00  0.00     0.000 C
ATOM     26   O  NAG B   2      -1.025  -8.457  33.5410  0.00  0.00     0.000 O
ATOM     28  HD  NAG B   2      -0.915  -7.808  32.9790  0.00  0.00     0.000 HD
BRANCH 18 30
ATOM     28   N  NAG B   2      -1.479  -5.932  27.9990  0.00  0.00     0.000 N
ATOM     30  HD  NAG B   2      -2.320  -5.944  27.7920  0.00  0.00     0.000 HD
ATOM     30   C  NAG B   2      -1.527  -6.244  26.6960  0.00  0.00     0.000 C
ATOM     31   C  NAG B   2      -2.601  -5.539  25.9160  0.00  0.00     0.000 C
ATOM     32   O  NAG B   2      -0.777  -7.034  26.1720  0.00  0.00     0.000 OA
ENDBRANCH 18 30
BRANCH 17 33
ATOM     33  O4  BDP B   3      -2.099  -4.431  30.2340  0.00  0.00     0.000 O
BRANCH 33 37
ATOM     34  C1  BDP B   3      -5.251  -2.380  32.2610  0.00  0.00     0.000 C
ATOM     35  C2  BDP B   3      -5.619  -3.650  31.5030  0.00  0.00     0.000 C
ATOM     36  C3  BDP B   3      -4.422  -4.536  31.1760  0.00  0.00     0.000 C
ATOM     37  C4  BDP B   3      -3.283  -3.671  30.6160  0.00  0.00     0.000 C
ATOM     38  C5  BDP B   3      -2.976  -2.584  31.6640  0.00  0.00     0.000 C
ATOM     39  O5  BDP B   3      -4.118  -1.727  31.6760  0.00  0.00     0.000 O
ATOM     40   O  BDP B   3      -6.590  -4.326  32.3050  0.00  0.00     0.000 O
ATOM     42  HD  BDP B   3      -7.093  -3.739  31.9160  0.00  0.00     0.000 HD
ATOM     42   O  BDP B   3      -4.873  -5.500  30.2260  0.00  0.00     0.000 O
ATOM     44  HD  BDP B   3      -5.377  -4.913  29.8370  0.00  0.00     0.000 HD
BRANCH 38 44
ATOM     44   C  BDP B   3      -1.744  -1.783  31.3830  0.00  0.00     0.000 C
ATOM     45   O  BDP B   3      -1.760  -1.010  30.4000  0.00  0.00     0.000 OA
ATOM     46   O  BDP B   3      -0.744  -1.905  32.1240  0.00  0.00     0.000 OA
ENDBRANCH 38 44
BRANCH 34 47
ATOM     47  O3  NAG B   4      -6.034  -1.263  31.8440  0.00  0.00     0.000 O
BRANCH 47 50
ATOM     48  C1  NAG B   4      -7.722   0.961  34.3630  0.00  0.00     0.000 C
ATOM     49  C2  NAG B   4      -7.507  -0.279  33.5130  0.00  0.00     0.000 C
ATOM     50  C3  NAG B   4      -6.222  -0.124  32.7080  0.00  0.00     0.000 C
ATOM     51  C4  NAG B   4      -6.232   1.148  31.8770  0.00  0.00     0.000 C
ATOM     52  C5  NAG B   4      -6.522   2.352  32.7730  0.00  0.00     0.000 C
ATOM     53  O5  NAG B   4      -7.721   2.135  33.5280  0.00  0.00     0.000 O
ATOM     54   O  NAG B   4      -4.964   1.293  31.2320  0.00  0.00     0.000 O
ATOM     56  HD  NAG B   4      -5.567   1.820  30.9030  0.00  0.00     0.000 HD
ATOM     56   C  NAG B   4      -6.664   3.630  31.9550  0.00  0.00     0.000 C
ATOM     57   O  NAG B   4      -7.746   3.474  31.0280  0.00  0.00     0.000 O
ATOM     59  HD  NAG B   4      -8.350   4.001  30.6990  0.00  0.00     0.000 HD
BRANCH 49 61
ATOM     59   N  NAG B   4      -7.696  -1.354  34.4880  0.00  0.00     0.000 N
ATOM     61  HD  NAG B   4      -8.171  -0.889  33.9330  0.00  0.00     0.000 HD
ATOM     61   O  NAG B   4      -9.104  -2.606  33.2430  0.00  0.00     0.000 OA
ATOM     62   C  NAG B   4      -8.416  -2.455  34.2420  0.00  0.00     0.000 C
ATOM     63   C  NAG B   4      -8.318  -3.535  35.2710  0.00  0.00     0.000 C
ENDBRANCH 49 61
BRANCH 48 64
ATOM     64  O4  BDP B   5      -8.364   1.179  35.6160  0.00  0.00     0.000 O
BRANCH 64 68
ATOM     65  C1  BDP B   5      -7.567  -0.899  39.1400  0.00  0.00     0.000 C
ATOM     66  C2  BDP B   5      -9.036  -0.773  38.7580  0.00  0.00     0.000 C
ATOM     67  C3  BDP B   5      -9.152  -0.393  37.2870  0.00  0.00     0.000 C
ATOM     68  C4  BDP B   5      -8.368   0.886  37.0120  0.00  0.00     0.000 C
ATOM     69  C5  BDP B   5      -6.926   0.790  37.4930  0.00  0.00     0.000 C
ATOM     70  O5  BDP B   5      -6.876   0.327  38.8540  0.00  0.00     0.000 O
ATOM     71   O  BDP B   5      -9.715  -2.005  39.0430  0.00  0.00     0.000 O
ATOM     73  HD  BDP B   5     -10.071  -2.776  39.2150  0.00  0.00     0.000 HD
ATOM     73   O  BDP B   5     -10.524  -0.193  36.9260  0.00  0.00     0.000 O
ATOM     75  HD  BDP B   5     -10.880  -0.964  37.0980  0.00  0.00     0.000 HD
BRANCH 69 75
ATOM     75   C  BDP B   5      -6.306   2.162  37.4050  0.00  0.00     0.000 C
ATOM     76   O  BDP B   5      -6.896   3.122  37.9390  0.00  0.00     0.000 OA
ATOM     77   O  BDP B   5      -5.222   2.296  36.8070  0.00  0.00     0.000 OA
ENDBRANCH 69 75
BRANCH 65 78
ATOM     78  O3  NAG B   6      -7.001  -0.652  40.4300  0.00  0.00     0.000 O
BRANCH 78 81
ATOM     79  C1  NAG B   6      -4.150  -2.485  42.1170  0.00  0.00     0.000 C
ATOM     80  C2  NAG B   6      -5.507  -2.304  41.4190  0.00  0.00     0.000 C
ATOM     81  C3  NAG B   6      -5.670  -0.868  40.9480  0.00  0.00     0.000 C
ATOM     82  C4  NAG B   6      -5.387   0.116  42.0880  0.00  0.00     0.000 C
ATOM     83  C5  NAG B   6      -4.009  -0.171  42.6740  0.00  0.00     0.000 C
ATOM     84  O5  NAG B   6      -4.020  -1.511  43.1680  0.00  0.00     0.000 O
BRANCH 80 87
ATOM     85   N  NAG B   6      -6.588  -3.252  41.1620  0.00  0.00     0.000 N
ATOM     87  HD  NAG B   6      -7.279  -3.492  40.6990  0.00  0.00     0.000 HD
ATOM     87   C  NAG B   6      -6.685  -3.994  40.0520  0.00  0.00     0.000 C
ATOM     88   C  NAG B   6      -7.850  -4.931  39.9980  0.00  0.00     0.000 C
ATOM     89   O  NAG B   6      -5.875  -3.934  39.1350  0.00  0.00     0.000 OA
ENDBRANCH 80 87
ATOM     90   O  NAG B   6      -2.536   1.614  43.3750  0.00  0.00     0.000 O
ATOM     92  HD  NAG B   6      -2.587   0.810  43.0580  0.00  0.00     0.000 HD
ATOM     92   O  NAG B   6      -2.536   1.614  43.3750  0.00  0.00     0.000 O
ATOM     94  HD  NAG B   6      -2.587   0.810  43.0580  0.00  0.00     0.000 HD
ENDBRANCH 78 81
ENDBRANCH 65 78
ENDBRANCH 64 68
ENDBRANCH 48 64
ENDBRANCH 47 50
ENDBRANCH 34 47
ENDBRANCH 33 37
ENDBRANCH 17 33
ENDBRANCH 16 19
ENDBRANCH 1 16
TORSDOF 16
ENDMDL
MODEL 41
REMARK VINA RESULT:      -9.6      5.866      8.958
ROOT
ATOM      1  C1  BDP B   1      -0.249  -4.529  25.3500  0.00  0.00     0.000 C
ATOM      2  C2  BDP B   1       0.484  -3.661  24.3420  0.00  0.00     0.000 C
ATOM      3  C3  BDP B   1      -0.453  -2.725  23.6090  0.00  0.00     0.000 C
ATOM      4  C4  BDP B   1      -1.826  -2.587  24.2560  0.00  0.00     0.000 C
ATOM      5  C5  BDP B   1      -2.435  -3.932  24.6410  0.00  0.00     0.000 C
ATOM      6  O5  BDP B   1      -1.445  -4.971  24.7250  0.00  0.00     0.000 O
ATOM      7   O  BDP B   1       1.502  -2.902  25.0030  0.00  0.00     0.000 O
ATOM      9  HD  BDP B   1       2.154  -2.837  25.5690  0.00  0.00     0.000 HD
ATOM      9   O  BDP B   1      -0.650  -3.185  22.2620  0.00  0.00     0.000 O
ATOM     11  HD  BDP B   1       0.002  -3.120  22.8290  0.00  0.00     0.000 HD
ATOM     11   O  BDP B   1      -1.752  -1.742  25.4100  0.00  0.00     0.000 O
ATOM     13  HD  BDP B   1      -1.100  -1.676  25.9770  0.00  0.00     0.000 HD
ENDROOT
BRANCH 5 13
ATOM     13   C  BDP B   1      -3.438  -4.277  23.5970  0.00  0.00     0.000 C
ATOM     14   O  BDP B   1      -3.616  -5.483  23.3270  0.00  0.00     0.000 OA
ATOM     15   O  BDP B   1      -4.084  -3.360  23.0470  0.00  0.00     0.000 OA
ENDBRANCH 5 13
BRANCH 1 16
ATOM     16  O3  NAG B   2      -0.076  -4.660  26.7600  0.00  0.00     0.000 O
BRANCH 16 19
ATOM     17  C1  NAG B   2       0.604  -5.498  30.2370  0.00  0.00     0.000 C
ATOM     18  C2  NAG B   2       0.442  -4.454  29.1320  0.00  0.00     0.000 C
ATOM     19  C3  NAG B   2      -0.546  -4.937  28.0800  0.00  0.00     0.000 C
ATOM     20  C4  NAG B   2      -0.837  -6.434  28.2210  0.00  0.00     0.000 C
ATOM     21  C5  NAG B   2       0.354  -7.290  28.6710  0.00  0.00     0.000 C
ATOM     22  O5  NAG B   2       1.214  -6.624  29.6030  0.00  0.00     0.000 O
ATOM     23   O  NAG B   2      -1.927  -6.600  29.1340  0.00  0.00     0.000 O
ATOM     25  HD  NAG B   2      -1.653  -5.989  29.6820  0.00  0.00     0.000 HD
ATOM     25   C  NAG B   2       1.190  -7.733  27.4620  0.00  0.00     0.000 C
ATOM     26   O  NAG B   2       0.664  -8.923  26.8590  0.00  0.00     0.000 O
ATOM     28  HD  NAG B   2       0.938  -8.312  27.4080  0.00  0.00     0.000 HD
BRANCH 18 30
ATOM     28   N  NAG B   2      -0.789  -3.731  29.4500  0.00  0.00     0.000 N
ATOM     30  HD  NAG B   2      -1.296  -3.088  29.1680  0.00  0.00     0.000 HD
ATOM     30   C  NAG B   2      -0.947  -2.908  30.4970  0.00  0.00     0.000 C
ATOM     31   C  NAG B   2      -2.312  -2.291  30.6150  0.00  0.00     0.000 C
ATOM     32   O  NAG B   2      -0.068  -2.663  31.2900  0.00  0.00     0.000 OA
ENDBRANCH 18 30
BRANCH 17 33
ATOM     33  O4  BDP B   3       1.339  -6.106  31.3210  0.00  0.00     0.000 O
BRANCH 33 37
ATOM     34  C1  BDP B   3       5.502  -6.656  32.1010  0.00  0.00     0.000 C
ATOM     35  C2  BDP B   3       4.614  -7.894  32.1510  0.00  0.00     0.000 C
ATOM     36  C3  BDP B   3       3.267  -7.707  31.4630  0.00  0.00     0.000 C
ATOM     37  C4  BDP B   3       2.654  -6.366  31.8950  0.00  0.00     0.000 C
ATOM     38  C5  BDP B   3       3.677  -5.265  31.5550  0.00  0.00     0.000 C
ATOM     39  O5  BDP B   3       4.775  -5.470  32.4430  0.00  0.00     0.000 O
ATOM     40   O  BDP B   3       5.375  -8.955  31.5690  0.00  0.00     0.000 O
ATOM     42  HD  BDP B   3       5.707  -8.947  32.3690  0.00  0.00     0.000 HD
ATOM     42   O  BDP B   3       2.452  -8.812  31.8510  0.00  0.00     0.000 O
ATOM     44  HD  BDP B   3       2.784  -8.804  32.6510  0.00  0.00     0.000 HD
BRANCH 38 44
ATOM     44   C  BDP B   3       3.157  -3.869  31.7050  0.00  0.00     0.000 C
ATOM     45   O  BDP B   3       2.751  -3.514  32.8340  0.00  0.00     0.000 OA
ATOM     46   O  BDP B   3       3.140  -3.105  30.7160  0.00  0.00     0.000 OA
ENDBRANCH 38 44
BRANCH 34 47
ATOM     47  O3  NAG B   4       6.239  -6.479  33.3100  0.00  0.00     0.000 O
BRANCH 47 50
ATOM     48  C1  NAG B   4       9.424  -4.559  33.8770  0.00  0.00     0.000 C
ATOM     49  C2  NAG B   4       8.549  -5.772  33.6110  0.00  0.00     0.000 C
ATOM     50  C3  NAG B   4       7.094  -5.332  33.4960  0.00  0.00     0.000 C
ATOM     51  C4  NAG B   4       6.645  -4.559  34.7260  0.00  0.00     0.000 C
ATOM     52  C5  NAG B   4       7.601  -3.394  34.9840  0.00  0.00     0.000 C
ATOM     53  O5  NAG B   4       8.954  -3.863  35.0490  0.00  0.00     0.000 O
ATOM     54   O  NAG B   4       5.314  -4.082  34.5150  0.00  0.00     0.000 O
ATOM     56  HD  NAG B   4       5.560  -4.027  35.3430  0.00  0.00     0.000 HD
ATOM     56   C  NAG B   4       7.255  -2.671  36.2810  0.00  0.00     0.000 C
ATOM     57   O  NAG B   4       7.349  -3.596  37.3720  0.00  0.00     0.000 O
ATOM     59  HD  NAG B   4       7.596  -3.541  38.2000  0.00  0.00     0.000 HD
BRANCH 49 61
ATOM     59   N  NAG B   4       9.115  -6.455  32.4470  0.00  0.00     0.000 N
ATOM     61  HD  NAG B   4       9.222  -6.438  33.3060  0.00  0.00     0.000 HD
ATOM     61   O  NAG B   4       9.249  -8.510  33.3760  0.00  0.00     0.000 OA
ATOM     62   C  NAG B   4       9.346  -7.773  32.4050  0.00  0.00     0.000 C
ATOM     63   C  NAG B   4       9.722  -8.322  31.0660  0.00  0.00     0.000 C
ENDBRANCH 49 61
BRANCH 48 64
ATOM     64  O4  BDP B   5      10.778  -4.252  33.5620  0.00  0.00     0.000 O
BRANCH 64 68
ATOM     65  C1  BDP B   5      14.759  -3.017  33.5950  0.00  0.00     0.000 C
ATOM     66  C2  BDP B   5      14.522  -4.510  33.7790  0.00  0.00     0.000 C
ATOM     67  C3  BDP B   5      13.113  -4.865  33.3230  0.00  0.00     0.000 C
ATOM     68  C4  BDP B   5      12.090  -4.019  34.0730  0.00  0.00     0.000 C
ATOM     69  C5  BDP B   5      12.393  -2.529  33.9730  0.00  0.00     0.000 C
ATOM     70  O5  BDP B   5      13.766  -2.268  34.3140  0.00  0.00     0.000 O
ATOM     71   O  BDP B   5      15.517  -5.248  33.0520  0.00  0.00     0.000 O
ATOM     73  HD  BDP B   5      16.126  -5.643  32.5810  0.00  0.00     0.000 HD
ATOM     73   O  BDP B   5      12.843  -6.252  33.5590  0.00  0.00     0.000 O
ATOM     75  HD  BDP B   5      13.452  -6.647  33.0880  0.00  0.00     0.000 HD
BRANCH 69 75
ATOM     75   C  BDP B   5      11.488  -1.797  34.9310  0.00  0.00     0.000 C
ATOM     76   O  BDP B   5      11.559  -2.065  36.1470  0.00  0.00     0.000 OA
ATOM     77   O  BDP B   5      10.700  -0.943  34.4830  0.00  0.00     0.000 OA
ENDBRANCH 69 75
BRANCH 65 78
ATOM     78  O3  NAG B   6      15.623  -2.191  34.3810  0.00  0.00     0.000 O
BRANCH 78 81
ATOM     79  C1  NAG B   6      18.822  -0.183  34.1290  0.00  0.00     0.000 C
ATOM     80  C2  NAG B   6      17.932  -1.413  34.3650  0.00  0.00     0.000 C
ATOM     81  C3  NAG B   6      16.487  -1.093  34.0180  0.00  0.00     0.000 C
ATOM     82  C4  NAG B   6      16.029   0.189  34.7230  0.00  0.00     0.000 C
ATOM     83  C5  NAG B   6      16.992   1.322  34.3900  0.00  0.00     0.000 C
ATOM     84  O5  NAG B   6      18.287   0.939  34.8530  0.00  0.00     0.000 O
BRANCH 80 87
ATOM     85   N  NAG B   6      17.999  -2.816  34.7660  0.00  0.00     0.000 N
ATOM     87  HD  NAG B   6      17.779  -3.643  34.6350  0.00  0.00     0.000 HD
ATOM     87   C  NAG B   6      18.587  -3.775  34.0410  0.00  0.00     0.000 C
ATOM     88   C  NAG B   6      18.577  -5.143  34.6450  0.00  0.00     0.000 C
ATOM     89   O  NAG B   6      19.116  -3.564  32.9560  0.00  0.00     0.000 OA
ENDBRANCH 80 87
ATOM     90   O  NAG B   6      16.206   3.576  33.9990  0.00  0.00     0.000 O
ATOM     92  HD  NAG B   6      16.811   2.985  33.8110  0.00  0.00     0.000 HD
ATOM     92   O  NAG B   6      16.206   3.576  33.9990  0.00  0.00     0.000 O
ATOM     94  HD  NAG B   6      16.811   2.985  33.8110  0.00  0.00     0.000 HD
ENDBRANCH 78 81
ENDBRANCH 65 78
ENDBRANCH 64 68
ENDBRANCH 48 64
ENDBRANCH 47 50
ENDBRANCH 34 47
ENDBRANCH 33 37
ENDBRANCH 17 33
ENDBRANCH 16 19
ENDBRANCH 1 16
TORSDOF 16
ENDMDL
MODEL 42
REMARK VINA RESULT:      -9.6     11.840     19.919
ROOT
ATOM      1  C1  BDP B   1      -0.773  -4.871  25.2970  0.00  0.00     0.000 C
ATOM      2  C2  BDP B   1       0.171  -5.687  24.4330  0.00  0.00     0.000 C
ATOM      3  C3  BDP B   1       0.543  -4.964  23.1550  0.00  0.00     0.000 C
ATOM      4  C4  BDP B   1       0.202  -3.478  23.1600  0.00  0.00     0.000 C
ATOM      5  C5  BDP B   1      -1.208  -3.198  23.6690  0.00  0.00     0.000 C
ATOM      6  O5  BDP B   1      -1.739  -4.297  24.4290  0.00  0.00     0.000 O
ATOM      7   O  BDP B   1       1.358  -6.001  25.1700  0.00  0.00     0.000 O
ATOM      9  HD  BDP B   1       1.755  -6.262  25.8940  0.00  0.00     0.000 HD
ATOM      9   O  BDP B   1      -0.134  -5.563  22.0390  0.00  0.00     0.000 O
ATOM     11  HD  BDP B   1       0.264  -5.824  22.7630  0.00  0.00     0.000 HD
ATOM     11   O  BDP B   1       1.153  -2.750  23.9460  0.00  0.00     0.000 O
ATOM     13  HD  BDP B   1       1.551  -3.011  24.6700  0.00  0.00     0.000 HD
ENDROOT
BRANCH 5 13
ATOM     13   C  BDP B   1      -2.066  -2.950  22.4780  0.00  0.00     0.000 C
ATOM     14   O  BDP B   1      -1.511  -2.844  21.3640  0.00  0.00     0.000 OA
ATOM     15   O  BDP B   1      -3.305  -2.883  22.6240  0.00  0.00     0.000 OA
ENDBRANCH 5 13
BRANCH 1 16
ATOM     16  O3  NAG B   2      -0.632  -4.401  26.6360  0.00  0.00     0.000 O
BRANCH 16 19
ATOM     17  C1  NAG B   2      -1.845  -2.909  29.7280  0.00  0.00     0.000 C
ATOM     18  C2  NAG B   2      -0.934  -3.899  29.0010  0.00  0.00     0.000 C
ATOM     19  C3  NAG B   2      -0.562  -3.371  27.6240  0.00  0.00     0.000 C
ATOM     20  C4  NAG B   2      -1.450  -2.195  27.2080  0.00  0.00     0.000 C
ATOM     21  C5  NAG B   2      -2.908  -2.282  27.6780  0.00  0.00     0.000 C
ATOM     22  O5  NAG B   2      -3.055  -2.886  28.9680  0.00  0.00     0.000 O
ATOM     23   O  NAG B   2      -0.856  -0.985  27.6890  0.00  0.00     0.000 O
ATOM     25  HD  NAG B   2      -0.624  -1.320  28.4530  0.00  0.00     0.000 HD
ATOM     25   C  NAG B   2      -3.756  -3.069  26.6680  0.00  0.00     0.000 C
ATOM     26   O  NAG B   2      -4.231  -2.230  25.6060  0.00  0.00     0.000 O
ATOM     28  HD  NAG B   2      -4.000  -2.565  26.3700  0.00  0.00     0.000 HD
BRANCH 18 30
ATOM     28   N  NAG B   2       0.182  -4.233  29.8850  0.00  0.00     0.000 N
ATOM     30  HD  NAG B   2       0.361  -4.484  30.6940  0.00  0.00     0.000 HD
ATOM     30   C  NAG B   2       1.087  -3.357  30.3440  0.00  0.00     0.000 C
ATOM     31   C  NAG B   2       2.146  -3.949  31.2300  0.00  0.00     0.000 C
ATOM     32   O  NAG B   2       1.065  -2.177  30.0810  0.00  0.00     0.000 OA
ENDBRANCH 18 30
BRANCH 17 33
ATOM     33  O4  BDP B   3      -2.835  -2.582  30.7270  0.00  0.00     0.000 O
BRANCH 33 37
ATOM     34  C1  BDP B   3      -4.393  -1.434  34.5350  0.00  0.00     0.000 C
ATOM     35  C2  BDP B   3      -3.111  -0.751  34.0710  0.00  0.00     0.000 C
ATOM     36  C3  BDP B   3      -2.856  -0.883  32.5740  0.00  0.00     0.000 C
ATOM     37  C4  BDP B   3      -3.092  -2.338  32.1410  0.00  0.00     0.000 C
ATOM     38  C5  BDP B   3      -4.528  -2.712  32.5560  0.00  0.00     0.000 C
ATOM     39  O5  BDP B   3      -4.520  -2.750  33.9830  0.00  0.00     0.000 O
ATOM     40   O  BDP B   3      -3.213   0.613  34.4840  0.00  0.00     0.000 O
ATOM     42  HD  BDP B   3      -2.957   0.246  35.2260  0.00  0.00     0.000 HD
ATOM     42   O  BDP B   3      -1.507  -0.475  32.3510  0.00  0.00     0.000 O
ATOM     44  HD  BDP B   3      -1.250  -0.842  33.0920  0.00  0.00     0.000 HD
BRANCH 38 44
ATOM     44   C  BDP B   3      -5.006  -4.024  32.0170  0.00  0.00     0.000 C
ATOM     45   O  BDP B   3      -4.648  -5.066  32.6090  0.00  0.00     0.000 OA
ATOM     46   O  BDP B   3      -5.739  -4.046  31.0040  0.00  0.00     0.000 OA
ENDBRANCH 38 44
BRANCH 34 47
ATOM     47  O3  NAG B   4      -4.238  -2.050  35.8120  0.00  0.00     0.000 O
BRANCH 47 50
ATOM     48  C1  NAG B   4      -5.983  -0.917  38.9450  0.00  0.00     0.000 C
ATOM     49  C2  NAG B   4      -4.910  -0.938  37.8710  0.00  0.00     0.000 C
ATOM     50  C3  NAG B   4      -5.278  -1.967  36.8070  0.00  0.00     0.000 C
ATOM     51  C4  NAG B   4      -5.511  -3.341  37.4150  0.00  0.00     0.000 C
ATOM     52  C5  NAG B   4      -6.547  -3.245  38.5350  0.00  0.00     0.000 C
ATOM     53  O5  NAG B   4      -6.165  -2.241  39.4840  0.00  0.00     0.000 O
ATOM     54   O  NAG B   4      -5.956  -4.233  36.3900  0.00  0.00     0.000 O
ATOM     56  HD  NAG B   4      -5.713  -4.648  37.1100  0.00  0.00     0.000 HD
ATOM     56   C  NAG B   4      -6.714  -4.580  39.2500  0.00  0.00     0.000 C
ATOM     57   O  NAG B   4      -5.455  -4.967  39.8180  0.00  0.00     0.000 O
ATOM     59  HD  NAG B   4      -5.212  -5.382  40.5380  0.00  0.00     0.000 HD
BRANCH 49 61
ATOM     59   N  NAG B   4      -4.759   0.508  37.7090  0.00  0.00     0.000 N
ATOM     61  HD  NAG B   4      -4.396  -0.137  38.1590  0.00  0.00     0.000 HD
ATOM     61   O  NAG B   4      -2.501   0.543  37.6680  0.00  0.00     0.000 OA
ATOM     62   C  NAG B   4      -3.576   1.113  37.5490  0.00  0.00     0.000 C
ATOM     63   C  NAG B   4      -3.635   2.563  37.1840  0.00  0.00     0.000 C
ENDBRANCH 49 61
BRANCH 48 64
ATOM     64  O4  BDP B   5      -6.461   0.101  39.8190  0.00  0.00     0.000 O
BRANCH 64 68
ATOM     65  C1  BDP B   5      -7.024   2.646  43.0720  0.00  0.00     0.000 C
ATOM     66  C2  BDP B   5      -6.579   3.309  41.7750  0.00  0.00     0.000 C
ATOM     67  C3  BDP B   5      -6.829   2.366  40.6050  0.00  0.00     0.000 C
ATOM     68  C4  BDP B   5      -6.128   1.034  40.8460  0.00  0.00     0.000 C
ATOM     69  C5  BDP B   5      -6.497   0.426  42.1930  0.00  0.00     0.000 C
ATOM     70  O5  BDP B   5      -6.342   1.394  43.2450  0.00  0.00     0.000 O
ATOM     71   O  BDP B   5      -7.272   4.556  41.6090  0.00  0.00     0.000 O
ATOM     73  HD  BDP B   5      -7.731   5.288  41.5490  0.00  0.00     0.000 HD
ATOM     73   O  BDP B   5      -6.346   2.940  39.3850  0.00  0.00     0.000 O
ATOM     75  HD  BDP B   5      -6.805   3.672  39.3240  0.00  0.00     0.000 HD
BRANCH 69 75
ATOM     75   C  BDP B   5      -5.586  -0.747  42.4490  0.00  0.00     0.000 C
ATOM     76   O  BDP B   5      -6.085  -1.821  42.8420  0.00  0.00     0.000 OA
ATOM     77   O  BDP B   5      -4.363  -0.614  42.2570  0.00  0.00     0.000 OA
ENDBRANCH 69 75
BRANCH 65 78
ATOM     78  O3  NAG B   6      -6.472   2.868  44.3720  0.00  0.00     0.000 O
BRANCH 78 81
ATOM     79  C1  NAG B   6      -7.676   3.991  47.7810  0.00  0.00     0.000 C
ATOM     80  C2  NAG B   6      -7.213   4.127  46.3220  0.00  0.00     0.000 C
ATOM     81  C3  NAG B   6      -7.052   2.754  45.6900  0.00  0.00     0.000 C
ATOM     82  C4  NAG B   6      -6.183   1.847  46.5680  0.00  0.00     0.000 C
ATOM     83  C5  NAG B   6      -6.766   1.796  47.9750  0.00  0.00     0.000 C
ATOM     84  O5  NAG B   6      -6.770   3.128  48.4910  0.00  0.00     0.000 O
BRANCH 80 87
ATOM     85   N  NAG B   6      -8.163   5.042  45.6950  0.00  0.00     0.000 N
ATOM     87  HD  NAG B   6      -8.445   5.849  45.5550  0.00  0.00     0.000 HD
ATOM     87   C  NAG B   6      -7.833   5.936  44.7540  0.00  0.00     0.000 C
ATOM     88   C  NAG B   6      -8.961   6.755  44.2140  0.00  0.00     0.000 C
ATOM     89   O  NAG B   6      -6.689   6.078  44.3400  0.00  0.00     0.000 OA
ENDBRANCH 80 87
ATOM     90   O  NAG B   6      -6.782  -0.251  49.2630  0.00  0.00     0.000 O
ATOM     92  HD  NAG B   6      -7.183   0.500  49.1070  0.00  0.00     0.000 HD
ATOM     92   O  NAG B   6      -6.782  -0.251  49.2630  0.00  0.00     0.000 O
ATOM     94  HD  NAG B   6      -7.183   0.500  49.1070  0.00  0.00     0.000 HD
ENDBRANCH 78 81
ENDBRANCH 65 78
ENDBRANCH 64 68
ENDBRANCH 48 64
ENDBRANCH 47 50
ENDBRANCH 34 47
ENDBRANCH 33 37
ENDBRANCH 17 33
ENDBRANCH 16 19
ENDBRANCH 1 16
TORSDOF 16
ENDMDL
MODEL 43
REMARK VINA RESULT:      -9.5     12.244     20.240
ROOT
ATOM      1  C1  BDP B   1      -0.166  -3.915  25.3050  0.00  0.00     0.000 C
ATOM      2  C2  BDP B   1       0.284  -3.096  24.1080  0.00  0.00     0.000 C
ATOM      3  C3  BDP B   1      -0.746  -3.096  22.9980  0.00  0.00     0.000 C
ATOM      4  C4  BDP B   1      -2.122  -3.593  23.4270  0.00  0.00     0.000 C
ATOM      5  C5  BDP B   1      -2.057  -4.881  24.2430  0.00  0.00     0.000 C
ATOM      6  O5  BDP B   1      -0.750  -5.106  24.7970  0.00  0.00     0.000 O
ATOM      7   O  BDP B   1       0.554  -1.750  24.5130  0.00  0.00     0.000 O
ATOM      9  HD  BDP B   1       0.897  -1.177  25.0650  0.00  0.00     0.000 HD
ATOM      9   O  BDP B   1      -0.300  -3.928  21.9160  0.00  0.00     0.000 O
ATOM     11  HD  BDP B   1       0.043  -3.355  22.4680  0.00  0.00     0.000 HD
ATOM     11   O  BDP B   1      -2.807  -2.581  24.1760  0.00  0.00     0.000 O
ATOM     13  HD  BDP B   1      -2.464  -2.008  24.7270  0.00  0.00     0.000 HD
ENDROOT
BRANCH 5 13
ATOM     13   C  BDP B   1      -2.414  -6.000  23.3280  0.00  0.00     0.000 C
ATOM     14   O  BDP B   1      -3.623  -6.232  23.1250  0.00  0.00     0.000 OA
ATOM     15   O  BDP B   1      -1.499  -6.648  22.7750  0.00  0.00     0.000 OA
ENDBRANCH 5 13
BRANCH 1 16
ATOM     16  O3  NAG B   2      -0.353  -3.539  26.6680  0.00  0.00     0.000 O
BRANCH 16 19
ATOM     17  C1  NAG B   2      -2.004  -2.975  29.8640  0.00  0.00     0.000 C
ATOM     18  C2  NAG B   2      -1.926  -3.702  28.5210  0.00  0.00     0.000 C
ATOM     19  C3  NAG B   2      -0.481  -3.825  28.0610  0.00  0.00     0.000 C
ATOM     20  C4  NAG B   2       0.449  -2.911  28.8640  0.00  0.00     0.000 C
ATOM     21  C5  NAG B   2      -0.160  -1.564  29.2800  0.00  0.00     0.000 C
ATOM     22  O5  NAG B   2      -1.555  -1.644  29.5950  0.00  0.00     0.000 O
ATOM     23   O  NAG B   2       0.894  -3.621  30.0240  0.00  0.00     0.000 O
ATOM     25  HD  NAG B   2       0.123  -3.981  30.1850  0.00  0.00     0.000 HD
ATOM     25   C  NAG B   2       0.033  -0.518  28.1730  0.00  0.00     0.000 C
ATOM     26   O  NAG B   2       1.313   0.123  28.2650  0.00  0.00     0.000 O
ATOM     28  HD  NAG B   2       0.542  -0.238  28.4260  0.00  0.00     0.000 HD
BRANCH 18 30
ATOM     28   N  NAG B   2      -1.700  -4.798  29.4620  0.00  0.00     0.000 N
ATOM     30  HD  NAG B   2      -1.121  -5.406  29.6770  0.00  0.00     0.000 HD
ATOM     30   C  NAG B   2      -2.377  -5.955  29.4710  0.00  0.00     0.000 C
ATOM     31   C  NAG B   2      -1.964  -6.921  30.5460  0.00  0.00     0.000 C
ATOM     32   O  NAG B   2      -3.250  -6.222  28.6780  0.00  0.00     0.000 OA
ENDBRANCH 18 30
BRANCH 17 33
ATOM     33  O4  BDP B   3      -2.710  -2.200  30.8570  0.00  0.00     0.000 O
BRANCH 33 37
ATOM     34  C1  BDP B   3      -4.470  -1.324  34.6490  0.00  0.00     0.000 C
ATOM     35  C2  BDP B   3      -3.155  -0.630  34.3140  0.00  0.00     0.000 C
ATOM     36  C3  BDP B   3      -2.815  -0.650  32.8280  0.00  0.00     0.000 C
ATOM     37  C4  BDP B   3      -3.044  -2.063  32.2700  0.00  0.00     0.000 C
ATOM     38  C5  BDP B   3      -4.507  -2.443  32.5720  0.00  0.00     0.000 C
ATOM     39  O5  BDP B   3      -4.581  -2.590  33.9900  0.00  0.00     0.000 O
ATOM     40   O  BDP B   3      -3.263   0.700  34.8260  0.00  0.00     0.000 O
ATOM     42  HD  BDP B   3      -3.055   0.273  35.5490  0.00  0.00     0.000 HD
ATOM     42   O  BDP B   3      -1.451  -0.249  32.7140  0.00  0.00     0.000 O
ATOM     44  HD  BDP B   3      -1.242  -0.677  33.4380  0.00  0.00     0.000 HD
BRANCH 38 44
ATOM     44   C  BDP B   3      -4.970  -3.701  31.9060  0.00  0.00     0.000 C
ATOM     45   O  BDP B   3      -5.851  -3.605  31.0230  0.00  0.00     0.000 OA
ATOM     46   O  BDP B   3      -4.474  -4.798  32.2440  0.00  0.00     0.000 OA
ENDBRANCH 38 44
BRANCH 34 47
ATOM     47  O3  NAG B   4      -4.397  -2.039  35.8810  0.00  0.00     0.000 O
BRANCH 47 50
ATOM     48  C1  NAG B   4      -6.432  -0.938  38.8460  0.00  0.00     0.000 C
ATOM     49  C2  NAG B   4      -5.304  -0.896  37.8290  0.00  0.00     0.000 C
ATOM     50  C3  NAG B   4      -5.494  -2.020  36.8170  0.00  0.00     0.000 C
ATOM     51  C4  NAG B   4      -5.604  -3.374  37.4980  0.00  0.00     0.000 C
ATOM     52  C5  NAG B   4      -6.705  -3.335  38.5580  0.00  0.00     0.000 C
ATOM     53  O5  NAG B   4      -6.492  -2.241  39.4590  0.00  0.00     0.000 O
ATOM     54   O  NAG B   4      -5.888  -4.370  36.5120  0.00  0.00     0.000 O
ATOM     56  HD  NAG B   4      -5.640  -4.711  37.2680  0.00  0.00     0.000 HD
ATOM     56   C  NAG B   4      -6.761  -4.637  39.3480  0.00  0.00     0.000 C
ATOM     57   O  NAG B   4      -5.500  -4.842  40.0000  0.00  0.00     0.000 O
ATOM     59  HD  NAG B   4      -5.252  -5.183  40.7560  0.00  0.00     0.000 HD
BRANCH 49 61
ATOM     59   N  NAG B   4      -4.301  -0.618  38.8580  0.00  0.00     0.000 N
ATOM     61  HD  NAG B   4      -4.334  -0.763  38.0050  0.00  0.00     0.000 HD
ATOM     61   O  NAG B   4      -3.070   0.841  37.6500  0.00  0.00     0.000 OA
ATOM     62   C  NAG B   4      -3.318   0.277  38.7060  0.00  0.00     0.000 C
ATOM     63   C  NAG B   4      -2.523   0.580  39.9370  0.00  0.00     0.000 C
ENDBRANCH 49 61
BRANCH 48 64
ATOM     64  O4  BDP B   5      -7.070   0.067  39.6280  0.00  0.00     0.000 O
BRANCH 64 68
ATOM     65  C1  BDP B   5      -9.441  -0.612  42.9880  0.00  0.00     0.000 C
ATOM     66  C2  BDP B   5     -10.187  -0.332  41.6900  0.00  0.00     0.000 C
ATOM     67  C3  BDP B   5      -9.250  -0.532  40.5060  0.00  0.00     0.000 C
ATOM     68  C4  BDP B   5      -8.011   0.343  40.6650  0.00  0.00     0.000 C
ATOM     69  C5  BDP B   5      -7.328   0.134  42.0100  0.00  0.00     0.000 C
ATOM     70  O5  BDP B   5      -8.282   0.231  43.0820  0.00  0.00     0.000 O
ATOM     71   O  BDP B   5     -11.341  -1.183  41.6030  0.00  0.00     0.000 O
ATOM     73  HD  BDP B   5     -12.010  -1.732  41.5920  0.00  0.00     0.000 HD
ATOM     73   O  BDP B   5      -9.910  -0.198  39.2800  0.00  0.00     0.000 O
ATOM     75  HD  BDP B   5     -10.580  -0.747  39.2680  0.00  0.00     0.000 HD
BRANCH 69 75
ATOM     75   C  BDP B   5      -6.274   1.198  42.1760  0.00  0.00     0.000 C
ATOM     76   O  BDP B   5      -6.586   2.389  41.9720  0.00  0.00     0.000 OA
ATOM     77   O  BDP B   5      -5.124   0.861  42.5160  0.00  0.00     0.000 OA
ENDBRANCH 69 75
BRANCH 65 78
ATOM     78  O3  NAG B   6      -9.699  -0.015  44.2610  0.00  0.00     0.000 O
BRANCH 78 81
ATOM     79  C1  NAG B   6     -10.888  -1.039  47.7060  0.00  0.00     0.000 C
ATOM     80  C2  NAG B   6     -10.998  -0.629  46.2290  0.00  0.00     0.000 C
ATOM     81  C3  NAG B   6      -9.616  -0.546  45.6010  0.00  0.00     0.000 C
ATOM     82  C4  NAG B   6      -8.682   0.321  46.4510  0.00  0.00     0.000 C
ATOM     83  C5  NAG B   6      -8.661  -0.207  47.8810  0.00  0.00     0.000 C
ATOM     84  O5  NAG B   6      -9.995  -0.139  48.3860  0.00  0.00     0.000 O
BRANCH 80 87
ATOM     85   N  NAG B   6     -11.874  -1.585  45.5570  0.00  0.00     0.000 N
ATOM     87  HD  NAG B   6     -12.666  -1.906  45.4200  0.00  0.00     0.000 HD
ATOM     87   C  NAG B   6     -12.819  -1.241  44.6740  0.00  0.00     0.000 C
ATOM     88   C  NAG B   6     -13.586  -2.375  44.0700  0.00  0.00     0.000 C
ATOM     89   O  NAG B   6     -13.047  -0.080  44.3560  0.00  0.00     0.000 OA
ENDBRANCH 80 87
ATOM     90   O  NAG B   6      -6.624  -0.250  49.1840  0.00  0.00     0.000 O
ATOM     92  HD  NAG B   6      -7.389  -0.628  49.0380  0.00  0.00     0.000 HD
ATOM     92   O  NAG B   6      -6.624  -0.250  49.1840  0.00  0.00     0.000 O
ATOM     94  HD  NAG B   6      -7.389  -0.628  49.0380  0.00  0.00     0.000 HD
ENDBRANCH 78 81
ENDBRANCH 65 78
ENDBRANCH 64 68
ENDBRANCH 48 64
ENDBRANCH 47 50
ENDBRANCH 34 47
ENDBRANCH 33 37
ENDBRANCH 17 33
ENDBRANCH 16 19
ENDBRANCH 1 16
TORSDOF 16
ENDMDL
MODEL 44
REMARK VINA RESULT:      -9.5     25.052     35.358
ROOT
ATOM      1  C1  BDP B   1      17.516 -32.769  61.1290  0.00  0.00     0.000 C
ATOM      2  C2  BDP B   1      17.018 -33.043  62.5370  0.00  0.00     0.000 C
ATOM      3  C3  BDP B   1      15.816 -32.194  62.8910  0.00  0.00     0.000 C
ATOM      4  C4  BDP B   1      15.150 -31.528  61.6930  0.00  0.00     0.000 C
ATOM      5  C5  BDP B   1      16.152 -30.861  60.7560  0.00  0.00     0.000 C
ATOM      6  O5  BDP B   1      17.487 -31.361  60.9460  0.00  0.00     0.000 O
ATOM      7   O  BDP B   1      16.686 -34.429  62.6740  0.00  0.00     0.000 O
ATOM      9  HD  BDP B   1      16.858 -35.267  62.5450  0.00  0.00     0.000 HD
ATOM      9   O  BDP B   1      16.201 -31.158  63.8080  0.00  0.00     0.000 O
ATOM     11  HD  BDP B   1      16.373 -31.996  63.6790  0.00  0.00     0.000 HD
ATOM     11   O  BDP B   1      14.366 -32.480  60.9630  0.00  0.00     0.000 O
ATOM     13  HD  BDP B   1      14.538 -33.319  60.8350  0.00  0.00     0.000 HD
ENDROOT
BRANCH 5 13
ATOM     13   C  BDP B   1      16.118 -29.400  61.0410  0.00  0.00     0.000 C
ATOM     14   O  BDP B   1      16.811 -28.967  61.9850  0.00  0.00     0.000 OA
ATOM     15   O  BDP B   1      15.423 -28.655  60.3170  0.00  0.00     0.000 OA
ENDBRANCH 5 13
BRANCH 1 16
ATOM     16  O3  NAG B   2      17.666 -33.643  60.0120  0.00  0.00     0.000 O
BRANCH 16 19
ATOM     17  C1  NAG B   2      18.452 -34.732  56.6280  0.00  0.00     0.000 C
ATOM     18  C2  NAG B   2      18.357 -35.022  58.1260  0.00  0.00     0.000 C
ATOM     19  C3  NAG B   2      17.250 -34.195  58.7620  0.00  0.00     0.000 C
ATOM     20  C4  NAG B   2      16.776 -33.073  57.8340  0.00  0.00     0.000 C
ATOM     21  C5  NAG B   2      17.873 -32.435  56.9690  0.00  0.00     0.000 C
ATOM     22  O5  NAG B   2      18.870 -33.368  56.5360  0.00  0.00     0.000 O
ATOM     23   O  NAG B   2      15.734 -33.585  56.9960  0.00  0.00     0.000 O
ATOM     25  HD  NAG B   2      16.120 -34.349  56.8640  0.00  0.00     0.000 HD
ATOM     25   C  NAG B   2      18.565 -31.295  57.7280  0.00  0.00     0.000 C
ATOM     26   O  NAG B   2      17.852 -30.057  57.5940  0.00  0.00     0.000 O
ATOM     28  HD  NAG B   2      18.237 -30.821  57.4620  0.00  0.00     0.000 HD
BRANCH 18 30
ATOM     28   N  NAG B   2      18.297 -36.402  57.6460  0.00  0.00     0.000 N
ATOM     30  HD  NAG B   2      18.231 -36.871  56.9200  0.00  0.00     0.000 HD
ATOM     30   C  NAG B   2      17.271 -37.241  57.8470  0.00  0.00     0.000 C
ATOM     31   C  NAG B   2      17.452 -38.613  57.2620  0.00  0.00     0.000 C
ATOM     32   O  NAG B   2      16.266 -36.934  58.4450  0.00  0.00     0.000 OA
ENDBRANCH 18 30
BRANCH 17 33
ATOM     33  O4  BDP B   3      19.170 -34.709  55.3750  0.00  0.00     0.000 O
BRANCH 33 37
ATOM     34  C1  BDP B   3      18.370 -34.510  51.1840  0.00  0.00     0.000 C
ATOM     35  C2  BDP B   3      17.796 -35.697  51.9480  0.00  0.00     0.000 C
ATOM     36  C3  BDP B   3      17.753 -35.489  53.4570  0.00  0.00     0.000 C
ATOM     37  C4  BDP B   3      19.093 -34.910  53.9330  0.00  0.00     0.000 C
ATOM     38  C5  BDP B   3      19.338 -33.612  53.1400  0.00  0.00     0.000 C
ATOM     39  O5  BDP B   3      19.572 -34.021  51.7930  0.00  0.00     0.000 O
ATOM     40   O  BDP B   3      16.499 -35.937  51.3970  0.00  0.00     0.000 O
ATOM     42  HD  BDP B   3      16.994 -36.333  50.8060  0.00  0.00     0.000 HD
ATOM     42   O  BDP B   3      17.489 -36.765  54.0390  0.00  0.00     0.000 O
ATOM     44  HD  BDP B   3      17.984 -37.161  53.4480  0.00  0.00     0.000 HD
BRANCH 38 44
ATOM     44   C  BDP B   3      20.494 -32.796  53.6290  0.00  0.00     0.000 C
ATOM     45   O  BDP B   3      20.243 -31.730  54.2340  0.00  0.00     0.000 OA
ATOM     46   O  BDP B   3      21.661 -33.193  53.4250  0.00  0.00     0.000 OA
ENDBRANCH 38 44
BRANCH 34 47
ATOM     47  O3  NAG B   4      19.170 -34.922  50.0780  0.00  0.00     0.000 O
BRANCH 47 50
ATOM     48  C1  NAG B   4      18.276 -33.744  46.6200  0.00  0.00     0.000 C
ATOM     49  C2  NAG B   4      18.140 -34.541  47.9050  0.00  0.00     0.000 C
ATOM     50  C3  NAG B   4      19.241 -34.129  48.8760  0.00  0.00     0.000 C
ATOM     51  C4  NAG B   4      20.620 -34.274  48.2520  0.00  0.00     0.000 C
ATOM     52  C5  NAG B   4      20.674 -33.509  46.9290  0.00  0.00     0.000 C
ATOM     53  O5  NAG B   4      19.598 -33.914  46.0730  0.00  0.00     0.000 O
ATOM     54   O  NAG B   4      21.599 -33.772  49.1660  0.00  0.00     0.000 O
ATOM     56  HD  NAG B   4      21.949 -34.236  48.5230  0.00  0.00     0.000 HD
ATOM     56   C  NAG B   4      22.001 -33.734  46.2140  0.00  0.00     0.000 C
ATOM     57   O  NAG B   4      22.156 -35.134  45.9450  0.00  0.00     0.000 O
ATOM     59  HD  NAG B   4      22.505 -35.598  45.3020  0.00  0.00     0.000 HD
BRANCH 49 61
ATOM     59   N  NAG B   4      17.985 -35.868  47.3080  0.00  0.00     0.000 N
ATOM     61  HD  NAG B   4      17.985 -35.505  48.0940  0.00  0.00     0.000 HD
ATOM     61   O  NAG B   4      16.277 -36.557  48.6150  0.00  0.00     0.000 OA
ATOM     62   C  NAG B   4      17.024 -36.729  47.6630  0.00  0.00     0.000 C
ATOM     63   C  NAG B   4      16.891 -37.943  46.7990  0.00  0.00     0.000 C
ENDBRANCH 49 61
BRANCH 48 64
ATOM     64  O4  BDP B   5      17.332 -33.303  45.6480  0.00  0.00     0.000 O
BRANCH 64 68
ATOM     65  C1  BDP B   5      15.043 -32.532  42.2510  0.00  0.00     0.000 C
ATOM     66  C2  BDP B   5      15.208 -33.999  42.6250  0.00  0.00     0.000 C
ATOM     67  C3  BDP B   5      15.675 -34.110  44.0710  0.00  0.00     0.000 C
ATOM     68  C4  BDP B   5      16.958 -33.312  44.2710  0.00  0.00     0.000 C
ATOM     69  C5  BDP B   5      16.818 -31.871  43.7970  0.00  0.00     0.000 C
ATOM     70  O5  BDP B   5      16.275 -31.827  42.4650  0.00  0.00     0.000 O
ATOM     71   O  BDP B   5      13.969 -34.693  42.4130  0.00  0.00     0.000 O
ATOM     73  HD  BDP B   5      13.194 -35.058  42.2870  0.00  0.00     0.000 HD
ATOM     73   O  BDP B   5      15.911 -35.479  44.4200  0.00  0.00     0.000 O
ATOM     75  HD  BDP B   5      15.136 -35.844  44.2940  0.00  0.00     0.000 HD
BRANCH 69 75
ATOM     75   C  BDP B   5      18.185 -31.235  43.8040  0.00  0.00     0.000 C
ATOM     76   O  BDP B   5      18.379 -30.237  44.5270  0.00  0.00     0.000 OA
ATOM     77   O  BDP B   5      19.082 -31.725  43.0930  0.00  0.00     0.000 OA
ENDBRANCH 69 75
BRANCH 65 78
ATOM     78  O3  NAG B   6      15.207 -31.965  40.9490  0.00  0.00     0.000 O
BRANCH 78 81
ATOM     79  C1  NAG B   6      14.052 -28.854  39.1260  0.00  0.00     0.000 C
ATOM     80  C2  NAG B   6      13.954 -30.259  39.7410  0.00  0.00     0.000 C
ATOM     81  C3  NAG B   6      15.229 -30.592  40.5000  0.00  0.00     0.000 C
ATOM     82  C4  NAG B   6      16.464 -30.347  39.6260  0.00  0.00     0.000 C
ATOM     83  C5  NAG B   6      16.435 -28.917  39.0980  0.00  0.00     0.000 C
ATOM     84  O5  NAG B   6      15.244 -28.766  38.3250  0.00  0.00     0.000 O
BRANCH 80 87
ATOM     85   N  NAG B   6      12.908 -30.456  40.7400  0.00  0.00     0.000 N
ATOM     87  HD  NAG B   6      12.075 -30.404  40.9710  0.00  0.00     0.000 HD
ATOM     87   C  NAG B   6      11.906 -31.334  40.6120  0.00  0.00     0.000 C
ATOM     88   C  NAG B   6      10.956 -31.407  41.7650  0.00  0.00     0.000 C
ATOM     89   O  NAG B   6      11.767 -32.052  39.6290  0.00  0.00     0.000 OA
ENDBRANCH 80 87
ATOM     90   O  NAG B   6      18.452 -27.596  38.9180  0.00  0.00     0.000 O
ATOM     92  HD  NAG B   6      17.596 -27.582  39.0470  0.00  0.00     0.000 HD
ATOM     92   O  NAG B   6      18.452 -27.596  38.9180  0.00  0.00     0.000 O
ATOM     94  HD  NAG B   6      17.596 -27.582  39.0470  0.00  0.00     0.000 HD
ENDBRANCH 78 81
ENDBRANCH 65 78
ENDBRANCH 64 68
ENDBRANCH 48 64
ENDBRANCH 47 50
ENDBRANCH 34 47
ENDBRANCH 33 37
ENDBRANCH 17 33
ENDBRANCH 16 19
ENDBRANCH 1 16
TORSDOF 16
ENDMDL
MODEL 45
REMARK VINA RESULT:      -9.4     28.972     31.848
ROOT
ATOM      1  C1  BDP B   1       2.132  17.695  18.4210  0.00  0.00     0.000 C
ATOM      2  C2  BDP B   1       1.508  18.357  19.6360  0.00  0.00     0.000 C
ATOM      3  C3  BDP B   1       2.433  19.374  20.2700  0.00  0.00     0.000 C
ATOM      4  C4  BDP B   1       3.610  19.777  19.3890  0.00  0.00     0.000 C
ATOM      5  C5  BDP B   1       4.311  18.579  18.7540  0.00  0.00     0.000 C
ATOM      6  O5  BDP B   1       3.482  17.405  18.7540  0.00  0.00     0.000 O
ATOM      7   O  BDP B   1       0.278  18.991  19.2670  0.00  0.00     0.000 O
ATOM      9  HD  BDP B   1      -0.479  18.993  18.8470  0.00  0.00     0.000 HD
ATOM      9   O  BDP B   1       2.966  18.853  21.4980  0.00  0.00     0.000 O
ATOM     11  HD  BDP B   1       2.209  18.855  21.0770  0.00  0.00     0.000 HD
ATOM     11   O  BDP B   1       3.181  20.684  18.3650  0.00  0.00     0.000 O
ATOM     13  HD  BDP B   1       2.424  20.686  17.9450  0.00  0.00     0.000 HD
ENDROOT
BRANCH 5 13
ATOM     13   C  BDP B   1       5.546  18.322  19.5440  0.00  0.00     0.000 C
ATOM     14   O  BDP B   1       5.555  18.653  20.7480  0.00  0.00     0.000 OA
ATOM     15   O  BDP B   1       6.517  17.765  18.9900  0.00  0.00     0.000 OA
ENDBRANCH 5 13
BRANCH 1 16
ATOM     16  O3  NAG B   2       1.693  17.643  17.0650  0.00  0.00     0.000 O
BRANCH 16 19
ATOM     17  C1  NAG B   2       2.500  15.306  14.3920  0.00  0.00     0.000 C
ATOM     18  C2  NAG B   2       1.976  15.578  15.8020  0.00  0.00     0.000 C
ATOM     19  C3  NAG B   2       1.318  16.949  15.8740  0.00  0.00     0.000 C
ATOM     20  C4  NAG B   2       1.656  17.805  14.6500  0.00  0.00     0.000 C
ATOM     21  C5  NAG B   2       3.072  17.610  14.0900  0.00  0.00     0.000 C
ATOM     22  O5  NAG B   2       3.544  16.262  14.1900  0.00  0.00     0.000 O
ATOM     23   O  NAG B   2       0.690  17.538  13.6280  0.00  0.00     0.000 O
ATOM     25  HD  NAG B   2       0.667  16.685  13.7750  0.00  0.00     0.000 HD
ATOM     25   C  NAG B   2       4.069  18.532  14.8070  0.00  0.00     0.000 C
ATOM     26   O  NAG B   2       4.101  19.840  14.2180  0.00  0.00     0.000 O
ATOM     28  HD  NAG B   2       4.078  18.987  14.3650  0.00  0.00     0.000 HD
BRANCH 18 30
ATOM     28   N  NAG B   2       0.546  15.273  15.8150  0.00  0.00     0.000 N
ATOM     30  HD  NAG B   2      -0.137  15.217  16.3450  0.00  0.00     0.000 HD
ATOM     30   C  NAG B   2       0.018  14.058  15.6020  0.00  0.00     0.000 C
ATOM     31   C  NAG B   2      -1.482  14.003  15.6560  0.00  0.00     0.000 C
ATOM     32   O  NAG B   2       0.683  13.071  15.3880  0.00  0.00     0.000 OA
ENDBRANCH 18 30
BRANCH 17 33
ATOM     33  O4  BDP B   3       3.371  14.625  13.4630  0.00  0.00     0.000 O
BRANCH 33 37
ATOM     34  C1  BDP B   3       6.875  13.752  11.1830  0.00  0.00     0.000 C
ATOM     35  C2  BDP B   3       6.966  13.578  12.6950  0.00  0.00     0.000 C
ATOM     36  C3  BDP B   3       5.608  13.491  13.3820  0.00  0.00     0.000 C
ATOM     37  C4  BDP B   3       4.688  14.596  12.8400  0.00  0.00     0.000 C
ATOM     38  C5  BDP B   3       4.616  14.422  11.3100  0.00  0.00     0.000 C
ATOM     39  O5  BDP B   3       5.917  14.753  10.8230  0.00  0.00     0.000 O
ATOM     40   O  BDP B   3       7.760  12.410  12.9160  0.00  0.00     0.000 O
ATOM     42  HD  BDP B   3       8.382  12.995  12.7700  0.00  0.00     0.000 HD
ATOM     42   O  BDP B   3       5.846  13.638  14.7810  0.00  0.00     0.000 O
ATOM     44  HD  BDP B   3       6.468  14.223  14.6350  0.00  0.00     0.000 HD
BRANCH 38 44
ATOM     44   C  BDP B   3       3.590  15.278  10.6370  0.00  0.00     0.000 C
ATOM     45   O  BDP B   3       3.887  16.469  10.3980  0.00  0.00     0.000 OA
ATOM     46   O  BDP B   3       2.478  14.790  10.3380  0.00  0.00     0.000 OA
ENDBRANCH 38 44
BRANCH 34 47
ATOM     47  O3  NAG B   4       7.886  14.626  10.6850  0.00  0.00     0.000 O
BRANCH 47 50
ATOM     48  C1  NAG B   4      10.348  13.811   7.9600  0.00  0.00     0.000 C
ATOM     49  C2  NAG B   4       9.801  13.888   9.3750  0.00  0.00     0.000 C
ATOM     50  C3  NAG B   4       8.397  14.482   9.3440  0.00  0.00     0.000 C
ATOM     51  C4  NAG B   4       8.376  15.832   8.6450  0.00  0.00     0.000 C
ATOM     52  C5  NAG B   4       9.002  15.707   7.2550  0.00  0.00     0.000 C
ATOM     53  O5  NAG B   4      10.303  15.113   7.3450  0.00  0.00     0.000 O
ATOM     54   O  NAG B   4       7.024  16.287   8.5510  0.00  0.00     0.000 O
ATOM     56  HD  NAG B   4       7.599  16.912   8.3830  0.00  0.00     0.000 HD
ATOM     56   C  NAG B   4       9.112  17.065   6.5730  0.00  0.00     0.000 C
ATOM     57   O  NAG B   4       9.934  17.925   7.3740  0.00  0.00     0.000 O
ATOM     59  HD  NAG B   4      10.509  18.550   7.2060  0.00  0.00     0.000 HD
BRANCH 49 61
ATOM     59   N  NAG B   4      10.160  12.547   9.8380  0.00  0.00     0.000 N
ATOM     61  HD  NAG B   4      10.495  13.346   9.8380  0.00  0.00     0.000 HD
ATOM     61   O  NAG B   4      11.005  13.167  11.8390  0.00  0.00     0.000 OA
ATOM     62   C  NAG B   4      10.661  12.296  11.0540  0.00  0.00     0.000 C
ATOM     63   C  NAG B   4      10.765  10.851  11.4250  0.00  0.00     0.000 C
ENDBRANCH 49 61
BRANCH 48 64
ATOM     64  O4  BDP B   5      11.273  12.934   7.3250  0.00  0.00     0.000 O
BRANCH 64 68
ATOM     65  C1  BDP B   5      13.588   9.745   5.9680  0.00  0.00     0.000 C
ATOM     66  C2  BDP B   5      12.080   9.570   5.8530  0.00  0.00     0.000 C
ATOM     67  C3  BDP B   5      11.397  10.927   5.9680  0.00  0.00     0.000 C
ATOM     68  C4  BDP B   5      11.805  11.611   7.2680  0.00  0.00     0.000 C
ATOM     69  C5  BDP B   5      13.318  11.689   7.4260  0.00  0.00     0.000 C
ATOM     70  O5  BDP B   5      13.917  10.400   7.2030  0.00  0.00     0.000 O
ATOM     71   O  BDP B   5      11.763   8.920   4.6130  0.00  0.00     0.000 O
ATOM     73  HD  BDP B   5      11.626   8.545   3.8440  0.00  0.00     0.000 HD
ATOM     73   O  BDP B   5       9.973  10.777   5.9410  0.00  0.00     0.000 O
ATOM     75  HD  BDP B   5       9.836  10.402   5.1720  0.00  0.00     0.000 HD
BRANCH 69 75
ATOM     75   C  BDP B   5      13.625  12.150   8.8280  0.00  0.00     0.000 C
ATOM     76   O  BDP B   5      13.730  13.374   9.0470  0.00  0.00     0.000 OA
ATOM     77   O  BDP B   5      13.760  11.300   9.7270  0.00  0.00     0.000 OA
ENDBRANCH 69 75
BRANCH 65 78
ATOM     78  O3  NAG B   6      14.516   8.790   6.4900  0.00  0.00     0.000 O
BRANCH 78 81
ATOM     79  C1  NAG B   6      17.627   7.064   5.1930  0.00  0.00     0.000 C
ATOM     80  C2  NAG B   6      16.128   7.378   5.3300  0.00  0.00     0.000 C
ATOM     81  C3  NAG B   6      15.922   8.583   6.2330  0.00  0.00     0.000 C
ATOM     82  C4  NAG B   6      16.676   8.409   7.5560  0.00  0.00     0.000 C
ATOM     83  C5  NAG B   6      18.144   8.118   7.2690  0.00  0.00     0.000 C
ATOM     84  O5  NAG B   6      18.204   6.914   6.5030  0.00  0.00     0.000 O
BRANCH 80 87
ATOM     85   N  NAG B   6      15.109   6.607   4.6240  0.00  0.00     0.000 N
ATOM     87  HD  NAG B   6      14.280   6.489   4.4010  0.00  0.00     0.000 HD
ATOM     87   C  NAG B   6      14.405   7.072   3.5840  0.00  0.00     0.000 C
ATOM     88   C  NAG B   6      13.432   6.111   2.9780  0.00  0.00     0.000 C
ATOM     89   O  NAG B   6      14.545   8.203   3.1340  0.00  0.00     0.000 OA
ENDBRANCH 80 87
ATOM     90   O  NAG B   6      19.909   9.050   8.6340  0.00  0.00     0.000 O
ATOM     92  HD  NAG B   6      19.683   8.776   7.8440  0.00  0.00     0.000 HD
ATOM     92   O  NAG B   6      19.909   9.050   8.6340  0.00  0.00     0.000 O
ATOM     94  HD  NAG B   6      19.683   8.776   7.8440  0.00  0.00     0.000 HD
ENDBRANCH 78 81
ENDBRANCH 65 78
ENDBRANCH 64 68
ENDBRANCH 48 64
ENDBRANCH 47 50
ENDBRANCH 34 47
ENDBRANCH 33 37
ENDBRANCH 17 33
ENDBRANCH 16 19
ENDBRANCH 1 16
TORSDOF 16
ENDMDL
MODEL 46
REMARK VINA RESULT:      -9.3     33.597     37.767
ROOT
ATOM      1  C1  BDP B   1       4.382  -0.557  57.2690  0.00  0.00     0.000 C
ATOM      2  C2  BDP B   1       2.964  -1.075  57.1080  0.00  0.00     0.000 C
ATOM      3  C3  BDP B   1       2.912  -2.353  56.2970  0.00  0.00     0.000 C
ATOM      4  C4  BDP B   1       4.265  -3.032  56.1210  0.00  0.00     0.000 C
ATOM      5  C5  BDP B   1       5.367  -2.058  55.7150  0.00  0.00     0.000 C
ATOM      6  O5  BDP B   1       5.019  -0.694  56.0070  0.00  0.00     0.000 O
ATOM      7   O  BDP B   1       2.378  -1.299  58.3960  0.00  0.00     0.000 O
ATOM      9  HD  BDP B   1       2.223  -1.056  59.2120  0.00  0.00     0.000 HD
ATOM      9   O  BDP B   1       2.387  -2.081  54.9880  0.00  0.00     0.000 O
ATOM     11  HD  BDP B   1       2.231  -1.837  55.8050  0.00  0.00     0.000 HD
ATOM     11   O  BDP B   1       4.642  -3.714  57.3240  0.00  0.00     0.000 O
ATOM     13  HD  BDP B   1       4.487  -3.470  58.1400  0.00  0.00     0.000 HD
ENDROOT
BRANCH 5 13
ATOM     13   C  BDP B   1       5.578  -2.219  54.2500  0.00  0.00     0.000 C
ATOM     14   O  BDP B   1       6.375  -3.099  53.8630  0.00  0.00     0.000 OA
ATOM     15   O  BDP B   1       4.939  -1.492  53.4600  0.00  0.00     0.000 OA
ENDBRANCH 5 13
BRANCH 1 16
ATOM     16  O3  NAG B   2       5.148  -0.302  58.4450  0.00  0.00     0.000 O
BRANCH 16 19
ATOM     17  C1  NAG B   2       6.639  -2.347  61.0620  0.00  0.00     0.000 C
ATOM     18  C2  NAG B   2       6.395  -2.060  59.5800  0.00  0.00     0.000 C
ATOM     19  C3  NAG B   2       6.225  -0.567  59.3450  0.00  0.00     0.000 C
ATOM     20  C4  NAG B   2       6.001   0.192  60.6560  0.00  0.00     0.000 C
ATOM     21  C5  NAG B   2       5.184  -0.562  61.7140  0.00  0.00     0.000 C
ATOM     22  O5  NAG B   2       5.426  -1.974  61.7210  0.00  0.00     0.000 O
ATOM     23   O  NAG B   2       7.276   0.554  61.1950  0.00  0.00     0.000 O
ATOM     25  HD  NAG B   2       7.653  -0.200  60.9960  0.00  0.00     0.000 HD
ATOM     25   C  NAG B   2       3.681  -0.324  61.5090  0.00  0.00     0.000 C
ATOM     26   O  NAG B   2       3.243   0.885  62.1460  0.00  0.00     0.000 O
ATOM     28  HD  NAG B   2       3.619   0.131  61.9470  0.00  0.00     0.000 HD
BRANCH 18 30
ATOM     28   N  NAG B   2       7.684  -1.647  59.0270  0.00  0.00     0.000 N
ATOM     30  HD  NAG B   2       8.064  -1.407  58.2870  0.00  0.00     0.000 HD
ATOM     30   C  NAG B   2       8.754  -2.443  58.8950  0.00  0.00     0.000 C
ATOM     31   C  NAG B   2       9.967  -1.779  58.3070  0.00  0.00     0.000 C
ATOM     32   O  NAG B   2       8.760  -3.610  59.2130  0.00  0.00     0.000 OA
ENDBRANCH 18 30
BRANCH 17 33
ATOM     33  O4  BDP B   3       6.627  -3.220  62.2130  0.00  0.00     0.000 O
BRANCH 33 37
ATOM     34  C1  BDP B   3       8.463  -5.762  65.1130  0.00  0.00     0.000 C
ATOM     35  C2  BDP B   3       9.381  -5.065  64.1160  0.00  0.00     0.000 C
ATOM     36  C3  BDP B   3       8.730  -3.880  63.4110  0.00  0.00     0.000 C
ATOM     37  C4  BDP B   3       7.324  -4.275  62.9370  0.00  0.00     0.000 C
ATOM     38  C5  BDP B   3       6.543  -4.760  64.1740  0.00  0.00     0.000 C
ATOM     39  O5  BDP B   3       7.160  -5.988  64.5620  0.00  0.00     0.000 O
ATOM     40   O  BDP B   3      10.549  -4.685  64.8470  0.00  0.00     0.000 O
ATOM     42  HD  BDP B   3      10.727  -5.519  64.6930  0.00  0.00     0.000 HD
ATOM     42   O  BDP B   3       9.581  -3.535  62.3200  0.00  0.00     0.000 O
ATOM     44  HD  BDP B   3       9.759  -4.369  62.1660  0.00  0.00     0.000 HD
BRANCH 38 44
ATOM     44   C  BDP B   3       5.082  -4.980  63.9370  0.00  0.00     0.000 C
ATOM     45   O  BDP B   3       4.283  -4.613  64.8270  0.00  0.00     0.000 OA
ATOM     46   O  BDP B   3       4.702  -5.517  62.8740  0.00  0.00     0.000 OA
ENDBRANCH 38 44
BRANCH 34 47
ATOM     47  O3  NAG B   4       8.644  -7.177  65.1070  0.00  0.00     0.000 O
BRANCH 47 50
ATOM     48  C1  NAG B   4       7.164  -8.826  68.1460  0.00  0.00     0.000 C
ATOM     49  C2  NAG B   4       8.035  -7.859  67.3640  0.00  0.00     0.000 C
ATOM     50  C3  NAG B   4       7.777  -8.039  65.8720  0.00  0.00     0.000 C
ATOM     51  C4  NAG B   4       7.985  -9.481  65.4380  0.00  0.00     0.000 C
ATOM     52  C5  NAG B   4       7.138 -10.412  66.3060  0.00  0.00     0.000 C
ATOM     53  O5  NAG B   4       7.398 -10.174  67.6950  0.00  0.00     0.000 O
ATOM     54   O  NAG B   4       7.626  -9.610  64.0600  0.00  0.00     0.000 O
ATOM     56  HD  NAG B   4       8.069 -10.293  64.3540  0.00  0.00     0.000 HD
ATOM     56   C  NAG B   4       7.415 -11.876  65.9830  0.00  0.00     0.000 C
ATOM     57   O  NAG B   4       8.801 -12.153  66.2250  0.00  0.00     0.000 O
ATOM     59  HD  NAG B   4       9.245 -12.836  66.5190  0.00  0.00     0.000 HD
BRANCH 49 61
ATOM     59   N  NAG B   4       9.067  -8.051  68.3840  0.00  0.00     0.000 N
ATOM     61  HD  NAG B   4       8.984  -7.682  67.6050  0.00  0.00     0.000 HD
ATOM     61   O  NAG B   4       9.944  -5.972  68.2770  0.00  0.00     0.000 OA
ATOM     62   C  NAG B   4       9.880  -7.074  68.8020  0.00  0.00     0.000 C
ATOM     63   C  NAG B   4      10.720  -7.399  69.9970  0.00  0.00     0.000 C
ENDBRANCH 49 61
BRANCH 48 64
ATOM     64  O4  BDP B   5       6.585  -8.775  69.4470  0.00  0.00     0.000 O
BRANCH 64 68
ATOM     65  C1  BDP B   5       4.186  -9.405  72.7960  0.00  0.00     0.000 C
ATOM     66  C2  BDP B   5       4.032 -10.414  71.6660  0.00  0.00     0.000 C
ATOM     67  C3  BDP B   5       5.232 -10.324  70.7320  0.00  0.00     0.000 C
ATOM     68  C4  BDP B   5       5.391  -8.898  70.2190  0.00  0.00     0.000 C
ATOM     69  C5  BDP B   5       5.439  -7.881  71.3520  0.00  0.00     0.000 C
ATOM     70  O5  BDP B   5       4.340  -8.082  72.2580  0.00  0.00     0.000 O
ATOM     71   O  BDP B   5       3.885 -11.733  72.2150  0.00  0.00     0.000 O
ATOM     73  HD  BDP B   5       3.820 -12.507  72.5970  0.00  0.00     0.000 HD
ATOM     73   O  BDP B   5       5.071 -11.212  69.6200  0.00  0.00     0.000 O
ATOM     75  HD  BDP B   5       5.007 -11.986  70.0020  0.00  0.00     0.000 HD
BRANCH 69 75
ATOM     75   C  BDP B   5       5.351  -6.500  70.7530  0.00  0.00     0.000 C
ATOM     76   O  BDP B   5       6.407  -5.908  70.4520  0.00  0.00     0.000 OA
ATOM     77   O  BDP B   5       4.229  -5.991  70.5720  0.00  0.00     0.000 OA
ENDBRANCH 69 75
BRANCH 65 78
ATOM     78  O3  NAG B   6       3.126  -8.750  73.4990  0.00  0.00     0.000 O
BRANCH 78 81
ATOM     79  C1  NAG B   6       3.272  -6.452  76.5050  0.00  0.00     0.000 C
ATOM     80  C2  NAG B   6       3.468  -7.741  75.6910  0.00  0.00     0.000 C
ATOM     81  C3  NAG B   6       3.091  -7.509  74.2360  0.00  0.00     0.000 C
ATOM     82  C4  NAG B   6       1.700  -6.875  74.1280  0.00  0.00     0.000 C
ATOM     83  C5  NAG B   6       1.655  -5.605  74.9700  0.00  0.00     0.000 C
ATOM     84  O5  NAG B   6       1.927  -5.974  76.3230  0.00  0.00     0.000 O
BRANCH 80 87
ATOM     85   N  NAG B   6       4.853  -8.182  75.8290  0.00  0.00     0.000 N
ATOM     87  HD  NAG B   6       5.489  -8.511  76.3170  0.00  0.00     0.000 HD
ATOM     87   C  NAG B   6       5.216  -9.450  76.0590  0.00  0.00     0.000 C
ATOM     88   C  NAG B   6       6.689  -9.700  76.1330  0.00  0.00     0.000 C
ATOM     89   O  NAG B   6       4.409 -10.364  76.1870  0.00  0.00     0.000 OA
ENDBRANCH 80 87
ATOM     90   O  NAG B   6       0.476  -3.631  74.2200  0.00  0.00     0.000 O
ATOM     92  HD  NAG B   6       1.140  -3.936  74.6860  0.00  0.00     0.000 HD
ATOM     92   O  NAG B   6       0.476  -3.631  74.2200  0.00  0.00     0.000 O
ATOM     94  HD  NAG B   6       1.140  -3.936  74.6860  0.00  0.00     0.000 HD
ENDBRANCH 78 81
ENDBRANCH 65 78
ENDBRANCH 64 68
ENDBRANCH 48 64
ENDBRANCH 47 50
ENDBRANCH 34 47
ENDBRANCH 33 37
ENDBRANCH 17 33
ENDBRANCH 16 19
ENDBRANCH 1 16
TORSDOF 16
ENDMDL
MODEL 47
REMARK VINA RESULT:      -9.3     24.429     29.330
ROOT
ATOM      1  C1  BDP B   1      -6.233 -11.977   1.0610  0.00  0.00     0.000 C
ATOM      2  C2  BDP B   1      -4.758 -11.650   1.2080  0.00  0.00     0.000 C
ATOM      3  C3  BDP B   1      -4.021 -11.735  -0.1120  0.00  0.00     0.000 C
ATOM      4  C4  BDP B   1      -4.934 -11.772  -1.3320  0.00  0.00     0.000 C
ATOM      5  C5  BDP B   1      -6.087 -12.759  -1.1770  0.00  0.00     0.000 C
ATOM      6  O5  BDP B   1      -6.325 -13.102   0.1990  0.00  0.00     0.000 O
ATOM      7   O  BDP B   1      -4.603 -10.339   1.7620  0.00  0.00     0.000 O
ATOM      9  HD  BDP B   1      -4.821  -9.725   2.3320  0.00  0.00     0.000 HD
ATOM      9   O  BDP B   1      -3.204 -12.916  -0.1430  0.00  0.00     0.000 O
ATOM     11  HD  BDP B   1      -3.422 -12.301   0.4280  0.00  0.00     0.000 HD
ATOM     11   O  BDP B   1      -5.451 -10.465  -1.6100  0.00  0.00     0.000 O
ATOM     13  HD  BDP B   1      -5.669  -9.850  -1.0400  0.00  0.00     0.000 HD
ENDROOT
BRANCH 5 13
ATOM     13   C  BDP B   1      -5.727 -13.982  -1.9450  0.00  0.00     0.000 C
ATOM     14   O  BDP B   1      -5.091 -14.881  -1.3570  0.00  0.00     0.000 OA
ATOM     15   O  BDP B   1      -6.093 -14.082  -3.1350  0.00  0.00     0.000 OA
ENDBRANCH 5 13
BRANCH 1 16
ATOM     16  O3  NAG B   2      -7.390 -11.200   1.3650  0.00  0.00     0.000 O
BRANCH 16 19
ATOM     17  C1  NAG B   2      -9.837 -12.081   3.9130  0.00  0.00     0.000 C
ATOM     18  C2  NAG B   2      -8.454 -11.554   3.5280  0.00  0.00     0.000 C
ATOM     19  C3  NAG B   2      -8.507 -10.846   2.1820  0.00  0.00     0.000 C
ATOM     20  C4  NAG B   2      -9.809 -11.145   1.4340  0.00  0.00     0.000 C
ATOM     21  C5  NAG B   2     -10.361 -12.564   1.6280  0.00  0.00     0.000 C
ATOM     22  O5  NAG B   2     -10.138 -13.087   2.9430  0.00  0.00     0.000 O
ATOM     23   O  NAG B   2     -10.792 -10.184   1.8320  0.00  0.00     0.000 O
ATOM     25  HD  NAG B   2     -10.565 -10.193   2.6680  0.00  0.00     0.000 HD
ATOM     25   C  NAG B   2      -9.743 -13.529   0.6060  0.00  0.00     0.000 C
ATOM     26   O  NAG B   2     -10.453 -13.508  -0.6410  0.00  0.00     0.000 O
ATOM     28  HD  NAG B   2     -10.226 -13.518   0.1950  0.00  0.00     0.000 HD
BRANCH 18 30
ATOM     28   N  NAG B   2      -8.426 -10.967   4.8670  0.00  0.00     0.000 N
ATOM     30  HD  NAG B   2      -8.893 -10.898   5.5930  0.00  0.00     0.000 HD
ATOM     30   C  NAG B   2      -8.493  -9.654   5.1310  0.00  0.00     0.000 C
ATOM     31   C  NAG B   2      -8.434  -9.300   6.5900  0.00  0.00     0.000 C
ATOM     32   O  NAG B   2      -8.600  -8.807   4.2760  0.00  0.00     0.000 OA
ENDBRANCH 18 30
BRANCH 17 33
ATOM     33  O4  BDP B   3     -10.706 -12.971   4.6460  0.00  0.00     0.000 O
BRANCH 33 37
ATOM     34  C1  BDP B   3     -11.512 -15.477   8.0100  0.00  0.00     0.000 C
ATOM     35  C2  BDP B   3     -12.686 -14.706   7.4180  0.00  0.00     0.000 C
ATOM     36  C3  BDP B   3     -12.427 -14.188   6.0070  0.00  0.00     0.000 C
ATOM     37  C4  BDP B   3     -11.037 -13.537   5.9480  0.00  0.00     0.000 C
ATOM     38  C5  BDP B   3     -10.017 -14.594   6.4120  0.00  0.00     0.000 C
ATOM     39  O5  BDP B   3     -10.272 -14.791   7.8030  0.00  0.00     0.000 O
ATOM     40   O  BDP B   3     -13.810 -15.586   7.4730  0.00  0.00     0.000 O
ATOM     42  HD  BDP B   3     -13.803 -15.293   8.2880  0.00  0.00     0.000 HD
ATOM     42   O  BDP B   3     -13.465 -13.252   5.7180  0.00  0.00     0.000 O
ATOM     44  HD  BDP B   3     -13.457 -12.959   6.5330  0.00  0.00     0.000 HD
BRANCH 38 44
ATOM     44   C  BDP B   3      -8.586 -14.203   6.2100  0.00  0.00     0.000 C
ATOM     45   O  BDP B   3      -7.912 -14.857   5.3830  0.00  0.00     0.000 OA
ATOM     46   O  BDP B   3      -8.107 -13.250   6.8610  0.00  0.00     0.000 OA
ENDBRANCH 38 44
BRANCH 34 47
ATOM     47  O3  NAG B   4     -11.352 -15.219   9.4030  0.00  0.00     0.000 O
BRANCH 47 50
ATOM     48  C1  NAG B   4     -11.367 -17.957  11.9820  0.00  0.00     0.000 C
ATOM     49  C2  NAG B   4     -11.951 -16.952  11.0050  0.00  0.00     0.000 C
ATOM     50  C3  NAG B   4     -10.819 -16.226  10.2880  0.00  0.00     0.000 C
ATOM     51  C4  NAG B   4      -9.858 -15.579  11.2720  0.00  0.00     0.000 C
ATOM     52  C5  NAG B   4      -9.358 -16.622  12.2720  0.00  0.00     0.000 C
ATOM     53  O5  NAG B   4     -10.464 -17.293  12.8880  0.00  0.00     0.000 O
ATOM     54   O  NAG B   4      -8.764 -15.008  10.5480  0.00  0.00     0.000 O
ATOM     56  HD  NAG B   4      -8.801 -14.733  11.3690  0.00  0.00     0.000 HD
ATOM     56   C  NAG B   4      -8.489 -15.984  13.3500  0.00  0.00     0.000 C
ATOM     57   O  NAG B   4      -9.263 -15.003  14.0540  0.00  0.00     0.000 O
ATOM     59  HD  NAG B   4      -9.300 -14.728  14.8740  0.00  0.00     0.000 HD
BRANCH 49 61
ATOM     59   N  NAG B   4     -12.984 -16.539  11.9560  0.00  0.00     0.000 N
ATOM     61  HD  NAG B   4     -12.708 -16.326  11.1630  0.00  0.00     0.000 HD
ATOM     61   O  NAG B   4     -14.655 -16.302  10.4550  0.00  0.00     0.000 OA
ATOM     62   C  NAG B   4     -14.259 -16.321  11.6110  0.00  0.00     0.000 C
ATOM     63   C  NAG B   4     -15.211 -16.117  12.7470  0.00  0.00     0.000 C
ENDBRANCH 49 61
BRANCH 48 64
ATOM     64  O4  BDP B   5     -11.836 -19.203  12.4900  0.00  0.00     0.000 O
BRANCH 64 68
ATOM     65  C1  BDP B   5     -12.175 -22.984  14.2090  0.00  0.00     0.000 C
ATOM     66  C2  BDP B   5     -12.714 -21.825  15.0360  0.00  0.00     0.000 C
ATOM     67  C3  BDP B   5     -12.921 -20.610  14.1410  0.00  0.00     0.000 C
ATOM     68  C4  BDP B   5     -11.621 -20.258  13.4260  0.00  0.00     0.000 C
ATOM     69  C5  BDP B   5     -11.032 -21.451  12.6860  0.00  0.00     0.000 C
ATOM     70  O5  BDP B   5     -10.958 -22.598  13.5520  0.00  0.00     0.000 O
ATOM     71   O  BDP B   5     -13.933 -22.221  15.6830  0.00  0.00     0.000 O
ATOM     73  HD  BDP B   5     -14.673 -22.504  16.0330  0.00  0.00     0.000 HD
ATOM     73   O  BDP B   5     -13.355 -19.484  14.9140  0.00  0.00     0.000 O
ATOM     75  HD  BDP B   5     -14.095 -19.767  15.2640  0.00  0.00     0.000 HD
BRANCH 69 75
ATOM     75   C  BDP B   5      -9.646 -21.082  12.2200  0.00  0.00     0.000 C
ATOM     76   O  BDP B   5      -8.871 -20.527  13.0250  0.00  0.00     0.000 OA
ATOM     77   O  BDP B   5      -9.313 -21.345  11.0500  0.00  0.00     0.000 OA
ENDBRANCH 69 75
BRANCH 65 78
ATOM     78  O3  NAG B   6     -11.324 -24.035  14.6740  0.00  0.00     0.000 O
BRANCH 78 81
ATOM     79  C1  NAG B   6     -11.022 -27.732  13.9140  0.00  0.00     0.000 C
ATOM     80  C2  NAG B   6     -11.642 -26.443  14.4770  0.00  0.00     0.000 C
ATOM     81  C3  NAG B   6     -10.841 -25.232  14.0260  0.00  0.00     0.000 C
ATOM     82  C4  NAG B   6      -9.350 -25.423  14.3230  0.00  0.00     0.000 C
ATOM     83  C5  NAG B   6      -8.871 -26.727  13.6970  0.00  0.00     0.000 C
ATOM     84  O5  NAG B   6      -9.631 -27.789  14.2750  0.00  0.00     0.000 O
BRANCH 80 87
ATOM     85   N  NAG B   6     -12.822 -26.294  15.3240  0.00  0.00     0.000 N
ATOM     87  HD  NAG B   6     -13.454 -25.797  15.6460  0.00  0.00     0.000 HD
ATOM     87   C  NAG B   6     -14.048 -26.023  14.8590  0.00  0.00     0.000 C
ATOM     88   C  NAG B   6     -15.130 -25.945  15.8880  0.00  0.00     0.000 C
ATOM     89   O  NAG B   6     -14.291 -25.862  13.6690  0.00  0.00     0.000 OA
ENDBRANCH 80 87
ATOM     90   O  NAG B   6      -6.694 -26.907  12.6590  0.00  0.00     0.000 O
ATOM     92  HD  NAG B   6      -7.513 -27.189  12.6600  0.00  0.00     0.000 HD
ATOM     92   O  NAG B   6      -6.694 -26.907  12.6590  0.00  0.00     0.000 O
ATOM     94  HD  NAG B   6      -7.513 -27.189  12.6600  0.00  0.00     0.000 HD
ENDBRANCH 78 81
ENDBRANCH 65 78
ENDBRANCH 64 68
ENDBRANCH 48 64
ENDBRANCH 47 50
ENDBRANCH 34 47
ENDBRANCH 33 37
ENDBRANCH 17 33
ENDBRANCH 16 19
ENDBRANCH 1 16
TORSDOF 16
ENDMDL
MODEL 48
REMARK VINA RESULT:      -9.3     26.986     31.557
ROOT
ATOM      1  C1  BDP B   1       3.061 -36.975  24.5380  0.00  0.00     0.000 C
ATOM      2  C2  BDP B   1       2.570 -36.086  23.4090  0.00  0.00     0.000 C
ATOM      3  C3  BDP B   1       3.406 -36.241  22.1570  0.00  0.00     0.000 C
ATOM      4  C4  BDP B   1       4.308 -37.470  22.1600  0.00  0.00     0.000 C
ATOM      5  C5  BDP B   1       5.075 -37.636  23.4690  0.00  0.00     0.000 C
ATOM      6  O5  BDP B   1       4.479 -36.892  24.5450  0.00  0.00     0.000 O
ATOM      7   O  BDP B   1       1.202 -36.386  23.1140  0.00  0.00     0.000 O
ATOM      9  HD  BDP B   1       0.391 -36.558  23.3640  0.00  0.00     0.000 HD
ATOM      9   O  BDP B   1       4.243 -35.086  21.9810  0.00  0.00     0.000 O
ATOM     11  HD  BDP B   1       3.432 -35.258  22.2310  0.00  0.00     0.000 HD
ATOM     11   O  BDP B   1       3.543 -38.652  21.8950  0.00  0.00     0.000 O
ATOM     13  HD  BDP B   1       2.732 -38.824  22.1450  0.00  0.00     0.000 HD
ENDROOT
BRANCH 5 13
ATOM     13   C  BDP B   1       6.462 -37.150  23.2310  0.00  0.00     0.000 C
ATOM     14   O  BDP B   1       6.794 -36.863  22.0620  0.00  0.00     0.000 OA
ATOM     15   O  BDP B   1       7.236 -37.021  24.2040  0.00  0.00     0.000 OA
ENDBRANCH 5 13
BRANCH 1 16
ATOM     16  O3  NAG B   2       2.391 -37.998  25.2700  0.00  0.00     0.000 O
BRANCH 16 19
ATOM     17  C1  NAG B   2      -0.585 -38.136  27.3630  0.00  0.00     0.000 C
ATOM     18  C2  NAG B   2       0.105 -37.717  26.0650  0.00  0.00     0.000 C
ATOM     19  C3  NAG B   2       1.221 -38.689  25.7140  0.00  0.00     0.000 C
ATOM     20  C4  NAG B   2       1.575 -39.597  26.8950  0.00  0.00     0.000 C
ATOM     21  C5  NAG B   2       1.477 -38.936  28.2770  0.00  0.00     0.000 C
ATOM     22  O5  NAG B   2       0.408 -37.988  28.3800  0.00  0.00     0.000 O
ATOM     23   O  NAG B   2       0.731 -40.752  26.8490  0.00  0.00     0.000 O
ATOM     25  HD  NAG B   2       0.021 -40.311  26.6240  0.00  0.00     0.000 HD
ATOM     25   C  NAG B   2       2.793 -38.232  28.6350  0.00  0.00     0.000 C
ATOM     26   O  NAG B   2       3.738 -39.137  29.2230  0.00  0.00     0.000 O
ATOM     28  HD  NAG B   2       3.027 -38.696  28.9980  0.00  0.00     0.000 HD
BRANCH 18 30
ATOM     28   N  NAG B   2      -1.183 -38.357  25.7960  0.00  0.00     0.000 N
ATOM     30  HD  NAG B   2      -1.574 -39.129  25.7920  0.00  0.00     0.000 HD
ATOM     30   C  NAG B   2      -1.744 -38.472  24.5840  0.00  0.00     0.000 C
ATOM     31   C  NAG B   2      -3.079 -39.162  24.5690  0.00  0.00     0.000 C
ATOM     32   O  NAG B   2      -1.228 -38.065  23.5690  0.00  0.00     0.000 OA
ENDBRANCH 18 30
BRANCH 17 33
ATOM     33  O4  BDP B   3      -1.379 -37.854  28.5360  0.00  0.00     0.000 O
BRANCH 33 37
ATOM     34  C1  BDP B   3      -5.163 -36.375  29.8550  0.00  0.00     0.000 C
ATOM     35  C2  BDP B   3      -4.484 -35.631  28.7110  0.00  0.00     0.000 C
ATOM     36  C3  BDP B   3      -3.385 -36.436  28.0260  0.00  0.00     0.000 C
ATOM     37  C4  BDP B   3      -2.490 -37.089  29.0890  0.00  0.00     0.000 C
ATOM     38  C5  BDP B   3      -3.402 -37.939  29.9960  0.00  0.00     0.000 C
ATOM     39  O5  BDP B   3      -4.207 -37.006  30.7150  0.00  0.00     0.000 O
ATOM     40   O  BDP B   3      -5.524 -35.255  27.8060  0.00  0.00     0.000 O
ATOM     42  HD  BDP B   3      -5.601 -34.628  28.3990  0.00  0.00     0.000 HD
ATOM     42   O  BDP B   3      -2.657 -35.522  27.2080  0.00  0.00     0.000 O
ATOM     44  HD  BDP B   3      -2.734 -34.895  27.8010  0.00  0.00     0.000 HD
BRANCH 38 44
ATOM     44   C  BDP B   3      -2.669 -38.823  30.9560  0.00  0.00     0.000 C
ATOM     45   O  BDP B   3      -1.962 -39.741  30.4840  0.00  0.00     0.000 OA
ATOM     46   O  BDP B   3      -2.781 -38.627  32.1860  0.00  0.00     0.000 OA
ENDBRANCH 38 44
BRANCH 34 47
ATOM     47  O3  NAG B   4      -5.479 -35.508  30.9420  0.00  0.00     0.000 O
BRANCH 47 50
ATOM     48  C1  NAG B   4      -8.837 -35.771  32.6160  0.00  0.00     0.000 C
ATOM     49  C2  NAG B   4      -7.842 -35.423  31.5230  0.00  0.00     0.000 C
ATOM     50  C3  NAG B   4      -6.451 -35.890  31.9370  0.00  0.00     0.000 C
ATOM     51  C4  NAG B   4      -6.047 -35.317  33.2870  0.00  0.00     0.000 C
ATOM     52  C5  NAG B   4      -7.119 -35.639  34.3290  0.00  0.00     0.000 C
ATOM     53  O5  NAG B   4      -8.407 -35.208  33.8700  0.00  0.00     0.000 O
ATOM     54   O  NAG B   4      -4.787 -35.874  33.6700  0.00  0.00     0.000 O
ATOM     56  HD  NAG B   4      -5.008 -35.187  34.1490  0.00  0.00     0.000 HD
ATOM     56   C  NAG B   4      -6.810 -34.975  35.6650  0.00  0.00     0.000 C
ATOM     57   O  NAG B   4      -6.758 -33.554  35.4800  0.00  0.00     0.000 O
ATOM     59  HD  NAG B   4      -6.979 -32.867  35.9590  0.00  0.00     0.000 HD
BRANCH 49 61
ATOM     59   N  NAG B   4      -8.535 -35.919  30.3340  0.00  0.00     0.000 N
ATOM     61  HD  NAG B   4      -8.475 -35.187  30.7930  0.00  0.00     0.000 HD
ATOM     61   O  NAG B   4      -8.235 -34.081  29.0560  0.00  0.00     0.000 OA
ATOM     62   C  NAG B   4      -8.608 -35.238  29.1840  0.00  0.00     0.000 C
ATOM     63   C  NAG B   4      -9.167 -35.993  28.0200  0.00  0.00     0.000 C
ENDBRANCH 49 61
BRANCH 48 64
ATOM     64  O4  BDP B   5     -10.229 -36.076  32.5990  0.00  0.00     0.000 O
BRANCH 64 68
ATOM     65  C1  BDP B   5     -13.092 -34.195  34.9730  0.00  0.00     0.000 C
ATOM     66  C2  BDP B   5     -12.803 -35.652  35.3060  0.00  0.00     0.000 C
ATOM     67  C3  BDP B   5     -11.479 -36.068  34.6780  0.00  0.00     0.000 C
ATOM     68  C4  BDP B   5     -11.507 -35.810  33.1750  0.00  0.00     0.000 C
ATOM     69  C5  BDP B   5     -11.900 -34.376  32.8460  0.00  0.00     0.000 C
ATOM     70  O5  BDP B   5     -13.099 -34.006  33.5490  0.00  0.00     0.000 O
ATOM     71   O  BDP B   5     -12.792 -35.828  36.7310  0.00  0.00     0.000 O
ATOM     73  HD  BDP B   5     -12.777 -35.874  37.5960  0.00  0.00     0.000 HD
ATOM     73   O  BDP B   5     -11.225 -37.458  34.9140  0.00  0.00     0.000 O
ATOM     75  HD  BDP B   5     -11.210 -37.504  35.7790  0.00  0.00     0.000 HD
BRANCH 69 75
ATOM     75   C  BDP B   5     -12.138 -34.280  31.3600  0.00  0.00     0.000 C
ATOM     76   O  BDP B   5     -11.158 -34.115  30.6050  0.00  0.00     0.000 OA
ATOM     77   O  BDP B   5     -13.302 -34.371  30.9280  0.00  0.00     0.000 OA
ENDBRANCH 69 75
BRANCH 65 78
ATOM     78  O3  NAG B   6     -14.384 -33.597  34.8300  0.00  0.00     0.000 O
BRANCH 78 81
ATOM     79  C1  NAG B   6     -15.951 -30.470  36.2790  0.00  0.00     0.000 C
ATOM     80  C2  NAG B   6     -15.349 -31.884  36.2700  0.00  0.00     0.000 C
ATOM     81  C3  NAG B   6     -14.811 -32.219  34.8880  0.00  0.00     0.000 C
ATOM     82  C4  NAG B   6     -15.870 -31.954  33.8120  0.00  0.00     0.000 C
ATOM     83  C5  NAG B   6     -16.367 -30.518  33.9320  0.00  0.00     0.000 C
ATOM     84  O5  NAG B   6     -16.934 -30.364  35.2340  0.00  0.00     0.000 O
BRANCH 80 87
ATOM     85   N  NAG B   6     -14.359 -31.929  37.3430  0.00  0.00     0.000 N
ATOM     87  HD  NAG B   6     -14.171 -31.973  38.1870  0.00  0.00     0.000 HD
ATOM     87   C  NAG B   6     -14.171 -32.984  38.1450  0.00  0.00     0.000 C
ATOM     88   C  NAG B   6     -13.081 -32.841  39.1600  0.00  0.00     0.000 C
ATOM     89   O  NAG B   6     -14.829 -34.014  38.0600  0.00  0.00     0.000 OA
ENDBRANCH 80 87
ATOM     90   O  NAG B   6     -16.853 -29.181  31.9770  0.00  0.00     0.000 O
ATOM     92  HD  NAG B   6     -16.587 -29.175  32.8010  0.00  0.00     0.000 HD
ATOM     92   O  NAG B   6     -16.853 -29.181  31.9770  0.00  0.00     0.000 O
ATOM     94  HD  NAG B   6     -16.587 -29.175  32.8010  0.00  0.00     0.000 HD
ENDBRANCH 78 81
ENDBRANCH 65 78
ENDBRANCH 64 68
ENDBRANCH 48 64
ENDBRANCH 47 50
ENDBRANCH 34 47
ENDBRANCH 33 37
ENDBRANCH 17 33
ENDBRANCH 16 19
ENDBRANCH 1 16
TORSDOF 16
ENDMDL
MODEL 49
REMARK VINA RESULT:      -9.3     14.778     21.293
ROOT
ATOM      1  C1  BDP B   1      22.397  -8.786  31.7470  0.00  0.00     0.000 C
ATOM      2  C2  BDP B   1      23.331  -7.851  31.0000  0.00  0.00     0.000 C
ATOM      3  C3  BDP B   1      23.604  -8.326  29.5890  0.00  0.00     0.000 C
ATOM      4  C4  BDP B   1      22.644  -9.403  29.0990  0.00  0.00     0.000 C
ATOM      5  C5  BDP B   1      22.433 -10.516  30.1210  0.00  0.00     0.000 C
ATOM      6  O5  BDP B   1      22.811 -10.111  31.4480  0.00  0.00     0.000 O
ATOM      7   O  BDP B   1      22.773  -6.533  30.9640  0.00  0.00     0.000 O
ATOM      9  HD  BDP B   1      22.372  -5.867  31.3460  0.00  0.00     0.000 HD
ATOM      9   O  BDP B   1      24.936  -8.856  29.5000  0.00  0.00     0.000 O
ATOM     11  HD  BDP B   1      24.535  -8.190  29.8820  0.00  0.00     0.000 HD
ATOM     11   O  BDP B   1      21.381  -8.824  28.7470  0.00  0.00     0.000 O
ATOM     13  HD  BDP B   1      20.980  -8.159  29.1290  0.00  0.00     0.000 HD
ENDROOT
BRANCH 5 13
ATOM     13   C  BDP B   1      23.268 -11.672  29.6920  0.00  0.00     0.000 C
ATOM     14   O  BDP B   1      24.206 -11.459  28.8970  0.00  0.00     0.000 OA
ATOM     15   O  BDP B   1      23.021 -12.805  30.1580  0.00  0.00     0.000 OA
ENDBRANCH 5 13
BRANCH 1 16
ATOM     16  O3  NAG B   2      21.130  -8.541  32.3540  0.00  0.00     0.000 O
BRANCH 16 19
ATOM     17  C1  NAG B   2      19.859  -6.815  35.2970  0.00  0.00     0.000 C
ATOM     18  C2  NAG B   2      20.771  -6.849  34.0700  0.00  0.00     0.000 C
ATOM     19  C3  NAG B   2      20.154  -7.697  32.9680  0.00  0.00     0.000 C
ATOM     20  C4  NAG B   2      18.992  -8.547  33.4890  0.00  0.00     0.000 C
ATOM     21  C5  NAG B   2      19.160  -9.072  34.9220  0.00  0.00     0.000 C
ATOM     22  O5  NAG B   2      19.840  -8.157  35.7880  0.00  0.00     0.000 O
ATOM     23   O  NAG B   2      17.788  -7.778  33.3930  0.00  0.00     0.000 O
ATOM     25  HD  NAG B   2      18.156  -7.039  33.6570  0.00  0.00     0.000 HD
ATOM     25   C  NAG B   2      19.921 -10.406  34.9230  0.00  0.00     0.000 C
ATOM     26   O  NAG B   2      19.044 -11.519  34.7020  0.00  0.00     0.000 O
ATOM     28  HD  NAG B   2      19.411 -10.780  34.9650  0.00  0.00     0.000 HD
BRANCH 18 30
ATOM     28   N  NAG B   2      19.937  -5.649  34.0240  0.00  0.00     0.000 N
ATOM     30  HD  NAG B   2      19.180  -5.354  33.7250  0.00  0.00     0.000 HD
ATOM     30   C  NAG B   2      20.228  -4.538  33.3320  0.00  0.00     0.000 C
ATOM     31   C  NAG B   2      19.216  -3.435  33.4530  0.00  0.00     0.000 C
ATOM     32   O  NAG B   2      21.220  -4.418  32.6520  0.00  0.00     0.000 OA
ENDBRANCH 18 30
BRANCH 17 33
ATOM     33  O4  BDP B   3      19.625  -6.627  36.7090  0.00  0.00     0.000 O
BRANCH 33 37
ATOM     34  C1  BDP B   3      20.146  -4.726  40.4990  0.00  0.00     0.000 C
ATOM     35  C2  BDP B   3      20.725  -4.019  39.2790  0.00  0.00     0.000 C
ATOM     36  C3  BDP B   3      20.150  -4.513  37.9560  0.00  0.00     0.000 C
ATOM     37  C4  BDP B   3      20.124  -6.049  37.9510  0.00  0.00     0.000 C
ATOM     38  C5  BDP B   3      19.312  -6.497  39.1820  0.00  0.00     0.000 C
ATOM     39  O5  BDP B   3      20.105  -6.146  40.3160  0.00  0.00     0.000 O
ATOM     40   O  BDP B   3      20.495  -2.623  39.4800  0.00  0.00     0.000 O
ATOM     42  HD  BDP B   3      21.202  -2.735  39.9670  0.00  0.00     0.000 HD
ATOM     42   O  BDP B   3      20.987  -3.993  36.9250  0.00  0.00     0.000 O
ATOM     44  HD  BDP B   3      21.694  -4.105  37.4130  0.00  0.00     0.000 HD
BRANCH 38 44
ATOM     44   C  BDP B   3      18.998  -7.961  39.2170  0.00  0.00     0.000 C
ATOM     45   O  BDP B   3      17.824  -8.313  38.9680  0.00  0.00     0.000 OA
ATOM     46   O  BDP B   3      19.902  -8.780  39.4900  0.00  0.00     0.000 OA
ENDBRANCH 38 44
BRANCH 34 47
ATOM     47  O3  NAG B   4      21.132  -4.945  41.5060  0.00  0.00     0.000 O
BRANCH 47 50
ATOM     48  C1  NAG B   4      20.500  -3.762  45.0200  0.00  0.00     0.000 C
ATOM     49  C2  NAG B   4      20.820  -3.644  43.5410  0.00  0.00     0.000 C
ATOM     50  C3  NAG B   4      20.764  -5.026  42.8990  0.00  0.00     0.000 C
ATOM     51  C4  NAG B   4      21.680  -6.010  43.6090  0.00  0.00     0.000 C
ATOM     52  C5  NAG B   4      21.358  -6.033  45.1030  0.00  0.00     0.000 C
ATOM     53  O5  NAG B   4      21.393  -4.706  45.6430  0.00  0.00     0.000 O
ATOM     54   O  NAG B   4      21.504  -7.308  43.0340  0.00  0.00     0.000 O
ATOM     56  HD  NAG B   4      22.211  -7.256  43.5310  0.00  0.00     0.000 HD
ATOM     56   C  NAG B   4      22.339  -6.916  45.8670  0.00  0.00     0.000 C
ATOM     57   O  NAG B   4      23.666  -6.403  45.6890  0.00  0.00     0.000 O
ATOM     59  HD  NAG B   4      24.373  -6.351  46.1860  0.00  0.00     0.000 HD
BRANCH 49 61
ATOM     59   N  NAG B   4      19.993  -2.468  43.2680  0.00  0.00     0.000 N
ATOM     61  HD  NAG B   4      20.815  -2.652  43.4700  0.00  0.00     0.000 HD
ATOM     61   O  NAG B   4      21.498  -1.366  41.9950  0.00  0.00     0.000 OA
ATOM     62   C  NAG B   4      20.373  -1.469  42.4630  0.00  0.00     0.000 C
ATOM     63   C  NAG B   4      19.315  -0.463  42.1360  0.00  0.00     0.000 C
ENDBRANCH 49 61
BRANCH 48 64
ATOM     64  O4  BDP B   5      19.904  -2.870  45.9570  0.00  0.00     0.000 O
BRANCH 64 68
ATOM     65  C1  BDP B   5      17.227  -0.875  48.4530  0.00  0.00     0.000 C
ATOM     66  C2  BDP B   5      18.343  -1.643  49.1490  0.00  0.00     0.000 C
ATOM     67  C3  BDP B   5      19.456  -1.944  48.1540  0.00  0.00     0.000 C
ATOM     68  C4  BDP B   5      18.896  -2.697  46.9520  0.00  0.00     0.000 C
ATOM     69  C5  BDP B   5      17.711  -1.975  46.3230  0.00  0.00     0.000 C
ATOM     70  O5  BDP B   5      16.742  -1.623  47.3270  0.00  0.00     0.000 O
ATOM     71   O  BDP B   5      18.824  -0.883  50.2690  0.00  0.00     0.000 O
ATOM     73  HD  BDP B   5      19.089  -0.376  50.9190  0.00  0.00     0.000 HD
ATOM     73   O  BDP B   5      20.481  -2.733  48.7700  0.00  0.00     0.000 O
ATOM     75  HD  BDP B   5      20.747  -2.226  49.4200  0.00  0.00     0.000 HD
BRANCH 69 75
ATOM     75   C  BDP B   5      17.077  -2.896  45.3120  0.00  0.00     0.000 C
ATOM     76   O  BDP B   5      17.131  -2.589  44.1040  0.00  0.00     0.000 OA
ATOM     77   O  BDP B   5      16.523  -3.937  45.7100  0.00  0.00     0.000 OA
ENDBRANCH 69 75
BRANCH 65 78
ATOM     78  O3  NAG B   6      15.837  -0.910  48.7860  0.00  0.00     0.000 O
BRANCH 78 81
ATOM     79  C1  NAG B   6      13.025   1.293  50.0410  0.00  0.00     0.000 C
ATOM     80  C2  NAG B   6      14.217   0.326  50.1230  0.00  0.00     0.000 C
ATOM     81  C3  NAG B   6      14.817   0.112  48.7420  0.00  0.00     0.000 C
ATOM     82  C4  NAG B   6      13.733  -0.274  47.7300  0.00  0.00     0.000 C
ATOM     83  C5  NAG B   6      12.627   0.774  47.7480  0.00  0.00     0.000 C
ATOM     84  O5  NAG B   6      12.083   0.807  49.0680  0.00  0.00     0.000 O
BRANCH 80 87
ATOM     85   N  NAG B   6      14.662  -0.208  51.4070  0.00  0.00     0.000 N
ATOM     87  HD  NAG B   6      15.223  -0.681  51.8660  0.00  0.00     0.000 HD
ATOM     87   C  NAG B   6      15.813   0.130  52.0000  0.00  0.00     0.000 C
ATOM     88   C  NAG B   6      16.068  -0.504  53.3310  0.00  0.00     0.000 C
ATOM     89   O  NAG B   6      16.613   0.918  51.5080  0.00  0.00     0.000 OA
ENDBRANCH 80 87
ATOM     90   O  NAG B   6      11.529   1.488  45.7150  0.00  0.00     0.000 O
ATOM     92  HD  NAG B   6      11.780   1.716  46.5120  0.00  0.00     0.000 HD
ATOM     92   O  NAG B   6      11.529   1.488  45.7150  0.00  0.00     0.000 O
ATOM     94  HD  NAG B   6      11.780   1.716  46.5120  0.00  0.00     0.000 HD
ENDBRANCH 78 81
ENDBRANCH 65 78
ENDBRANCH 64 68
ENDBRANCH 48 64
ENDBRANCH 47 50
ENDBRANCH 34 47
ENDBRANCH 33 37
ENDBRANCH 17 33
ENDBRANCH 16 19
ENDBRANCH 1 16
TORSDOF 16
ENDMDL
MODEL 50
REMARK VINA RESULT:      -9.3     11.913     20.446
ROOT
ATOM      1  C1  BDP B   1       1.431  -7.424  30.9010  0.00  0.00     0.000 C
ATOM      2  C2  BDP B   1       2.832  -6.856  30.7610  0.00  0.00     0.000 C
ATOM      3  C3  BDP B   1       3.880  -7.944  30.6640  0.00  0.00     0.000 C
ATOM      4  C4  BDP B   1       3.314  -9.329  30.3730  0.00  0.00     0.000 C
ATOM      5  C5  BDP B   1       2.112  -9.672  31.2480  0.00  0.00     0.000 C
ATOM      6  O5  BDP B   1       1.510  -8.500  31.8240  0.00  0.00     0.000 O
ATOM      7   O  BDP B   1       2.903  -6.016  29.6040  0.00  0.00     0.000 O
ATOM      9  HD  BDP B   1       2.575  -5.399  29.0920  0.00  0.00     0.000 HD
ATOM      9   O  BDP B   1       4.618  -8.025  31.8940  0.00  0.00     0.000 O
ATOM     11  HD  BDP B   1       4.290  -7.408  31.3820  0.00  0.00     0.000 HD
ATOM     11   O  BDP B   1       2.952  -9.440  28.9900  0.00  0.00     0.000 O
ATOM     13  HD  BDP B   1       2.625  -8.823  28.4780  0.00  0.00     0.000 HD
ENDROOT
BRANCH 5 13
ATOM     13   C  BDP B   1       2.598 -10.571  32.3310  0.00  0.00     0.000 C
ATOM     14   O  BDP B   1       3.810 -10.868  32.3500  0.00  0.00     0.000 OA
ATOM     15   O  BDP B   1       1.790 -10.975  33.1940  0.00  0.00     0.000 OA
ENDBRANCH 5 13
BRANCH 1 16
ATOM     16  O3  NAG B   2       0.275  -7.253  30.0830  0.00  0.00     0.000 O
BRANCH 16 19
ATOM     17  C1  NAG B   2      -2.126  -4.554  30.5430  0.00  0.00     0.000 C
ATOM     18  C2  NAG B   2      -0.880  -5.118  29.8600  0.00  0.00     0.000 C
ATOM     19  C3  NAG B   2      -0.969  -6.633  29.7510  0.00  0.00     0.000 C
ATOM     20  C4  NAG B   2      -2.082  -7.202  30.6360  0.00  0.00     0.000 C
ATOM     21  C5  NAG B   2      -2.293  -6.470  31.9680  0.00  0.00     0.000 C
ATOM     22  O5  NAG B   2      -2.080  -5.056  31.8810  0.00  0.00     0.000 O
ATOM     23   O  NAG B   2      -3.301  -7.205  29.8860  0.00  0.00     0.000 O
ATOM     25  HD  NAG B   2      -3.161  -6.432  29.5210  0.00  0.00     0.000 HD
ATOM     25   C  NAG B   2      -1.364  -7.038  33.0510  0.00  0.00     0.000 C
ATOM     26   O  NAG B   2      -1.933  -8.192  33.6860  0.00  0.00     0.000 O
ATOM     28  HD  NAG B   2      -1.793  -7.419  33.3210  0.00  0.00     0.000 HD
BRANCH 18 30
ATOM     28   N  NAG B   2      -1.669  -4.336  28.9100  0.00  0.00     0.000 N
ATOM     30  HD  NAG B   2      -2.469  -4.258  28.5880  0.00  0.00     0.000 HD
ATOM     30   C  NAG B   2      -1.530  -4.379  27.5770  0.00  0.00     0.000 C
ATOM     31   C  NAG B   2      -2.454  -3.472  26.8160  0.00  0.00     0.000 C
ATOM     32   O  NAG B   2      -0.732  -5.092  27.0140  0.00  0.00     0.000 OA
ENDBRANCH 18 30
BRANCH 17 33
ATOM     33  O4  BDP B   3      -2.823  -3.529  31.2840  0.00  0.00     0.000 O
BRANCH 33 37
ATOM     34  C1  BDP B   3      -4.283  -1.372  34.6690  0.00  0.00     0.000 C
ATOM     35  C2  BDP B   3      -2.931  -0.951  34.1050  0.00  0.00     0.000 C
ATOM     36  C3  BDP B   3      -2.677  -1.454  32.6880  0.00  0.00     0.000 C
ATOM     37  C4  BDP B   3      -3.065  -2.938  32.5950  0.00  0.00     0.000 C
ATOM     38  C5  BDP B   3      -4.536  -3.055  33.0350  0.00  0.00     0.000 C
ATOM     39  O5  BDP B   3      -4.546  -2.760  34.4310  0.00  0.00     0.000 O
ATOM     40   O  BDP B   3      -2.889   0.475  34.1880  0.00  0.00     0.000 O
ATOM     42  HD  BDP B   3      -2.681   0.266  35.0020  0.00  0.00     0.000 HD
ATOM     42   O  BDP B   3      -1.290  -1.250  32.4230  0.00  0.00     0.000 O
ATOM     44  HD  BDP B   3      -1.082  -1.459  33.2380  0.00  0.00     0.000 HD
BRANCH 38 44
ATOM     44   C  BDP B   3      -5.148  -4.400  32.7970  0.00  0.00     0.000 C
ATOM     45   O  BDP B   3      -5.633  -4.632  31.6670  0.00  0.00     0.000 OA
ATOM     46   O  BDP B   3      -5.161  -5.245  33.7190  0.00  0.00     0.000 OA
ENDBRANCH 38 44
BRANCH 34 47
ATOM     47  O3  NAG B   4      -4.208  -1.686  36.0580  0.00  0.00     0.000 O
BRANCH 47 50
ATOM     48  C1  NAG B   4      -6.566  -0.500  38.7370  0.00  0.00     0.000 C
ATOM     49  C2  NAG B   4      -5.353  -0.463  37.8250  0.00  0.00     0.000 C
ATOM     50  C3  NAG B   4      -5.387  -1.666  36.8890  0.00  0.00     0.000 C
ATOM     51  C4  NAG B   4      -5.486  -2.972  37.6600  0.00  0.00     0.000 C
ATOM     52  C5  NAG B   4      -6.682  -2.923  38.6110  0.00  0.00     0.000 C
ATOM     53  O5  NAG B   4      -6.613  -1.757  39.4410  0.00  0.00     0.000 O
ATOM     54   O  NAG B   4      -5.623  -4.052  36.7320  0.00  0.00     0.000 O
ATOM     56  HD  NAG B   4      -5.428  -4.322  37.5320  0.00  0.00     0.000 HD
ATOM     56   C  NAG B   4      -6.741  -4.167  39.4920  0.00  0.00     0.000 C
ATOM     57   O  NAG B   4      -5.537  -4.248  40.2670  0.00  0.00     0.000 O
ATOM     59  HD  NAG B   4      -5.342  -4.518  41.0660  0.00  0.00     0.000 HD
BRANCH 49 61
ATOM     59   N  NAG B   4      -4.327  -0.217  38.8390  0.00  0.00     0.000 N
ATOM     61  HD  NAG B   4      -4.384  -0.297  37.9780  0.00  0.00     0.000 HD
ATOM     61   O  NAG B   4      -3.209   1.389  37.7110  0.00  0.00     0.000 OA
ATOM     62   C  NAG B   4      -3.392   0.734  38.7270  0.00  0.00     0.000 C
ATOM     63   C  NAG B   4      -2.568   0.978  39.9510  0.00  0.00     0.000 C
ENDBRANCH 49 61
BRANCH 48 64
ATOM     64  O4  BDP B   5      -7.328   0.518  39.3800  0.00  0.00     0.000 O
BRANCH 64 68
ATOM     65  C1  BDP B   5      -9.576   0.005  42.8520  0.00  0.00     0.000 C
ATOM     66  C2  BDP B   5     -10.304   0.638  41.6730  0.00  0.00     0.000 C
ATOM     67  C3  BDP B   5      -9.528   0.372  40.3890  0.00  0.00     0.000 C
ATOM     68  C4  BDP B   5      -8.096   0.877  40.5270  0.00  0.00     0.000 C
ATOM     69  C5  BDP B   5      -7.408   0.321  41.7670  0.00  0.00     0.000 C
ATOM     70  O5  BDP B   5      -8.233   0.507  42.9300  0.00  0.00     0.000 O
ATOM     71   O  BDP B   5     -11.642   0.124  41.6010  0.00  0.00     0.000 O
ATOM     73  HD  BDP B   5     -12.432  -0.232  41.5910  0.00  0.00     0.000 HD
ATOM     73   O  BDP B   5     -10.155   1.026  39.2790  0.00  0.00     0.000 O
ATOM     75  HD  BDP B   5     -10.944   0.669  39.2690  0.00  0.00     0.000 HD
BRANCH 69 75
ATOM     75   C  BDP B   5      -6.103   1.053  41.9530  0.00  0.00     0.000 C
ATOM     76   O  BDP B   5      -6.123   2.296  42.0640  0.00  0.00     0.000 OA
ATOM     77   O  BDP B   5      -5.045   0.399  41.9940  0.00  0.00     0.000 OA
ENDBRANCH 69 75
BRANCH 65 78
ATOM     78  O3  NAG B   6      -9.587   0.468  44.2050  0.00  0.00     0.000 O
BRANCH 78 81
ATOM     79  C1  NAG B   6     -10.694  -1.128  47.4550  0.00  0.00     0.000 C
ATOM     80  C2  NAG B   6     -10.834  -0.524  46.0480  0.00  0.00     0.000 C
ATOM     81  C3  NAG B   6      -9.463  -0.239  45.4580  0.00  0.00     0.000 C
ATOM     82  C4  NAG B   6      -8.608   0.576  46.4350  0.00  0.00     0.000 C
ATOM     83  C5  NAG B   6      -8.546  -0.145  47.7770  0.00  0.00     0.000 C
ATOM     84  O5  NAG B   6      -9.883  -0.261  48.2670  0.00  0.00     0.000 O
BRANCH 80 87
ATOM     85   N  NAG B   6     -11.637  -1.447  45.2500  0.00  0.00     0.000 N
ATOM     87  HD  NAG B   6     -12.405  -1.800  45.0610  0.00  0.00     0.000 HD
ATOM     87   C  NAG B   6     -12.593  -1.061  44.3960  0.00  0.00     0.000 C
ATOM     88   C  NAG B   6     -13.277  -2.161  43.6470  0.00  0.00     0.000 C
ATOM     89   O  NAG B   6     -12.893   0.113  44.2140  0.00  0.00     0.000 OA
ENDBRANCH 80 87
ATOM     90   O  NAG B   6      -6.516  -0.201  49.0900  0.00  0.00     0.000 O
ATOM     92  HD  NAG B   6      -7.247  -0.617  48.8810  0.00  0.00     0.000 HD
ATOM     92   O  NAG B   6      -6.516  -0.201  49.0900  0.00  0.00     0.000 O
ATOM     94  HD  NAG B   6      -7.247  -0.617  48.8810  0.00  0.00     0.000 HD
ENDBRANCH 78 81
ENDBRANCH 65 78
ENDBRANCH 64 68
ENDBRANCH 48 64
ENDBRANCH 47 50
ENDBRANCH 34 47
ENDBRANCH 33 37
ENDBRANCH 17 33
ENDBRANCH 16 19
ENDBRANCH 1 16
TORSDOF 16
ENDMDL
MODEL 51
REMARK VINA RESULT:      -9.2      8.122     11.097
ROOT
ATOM      1  C1  BDP B   1       0.157  -3.330  25.1120  0.00  0.00     0.000 C
ATOM      2  C2  BDP B   1       0.528  -3.025  23.6720  0.00  0.00     0.000 C
ATOM      3  C3  BDP B   1      -0.630  -3.250  22.7250  0.00  0.00     0.000 C
ATOM      4  C4  BDP B   1      -1.983  -3.380  23.4160  0.00  0.00     0.000 C
ATOM      5  C5  BDP B   1      -1.944  -4.320  24.6170  0.00  0.00     0.000 C
ATOM      6  O5  BDP B   1      -0.605  -4.528  25.0990  0.00  0.00     0.000 O
ATOM      7   O  BDP B   1       0.983  -1.672  23.5630  0.00  0.00     0.000 O
ATOM      9  HD  BDP B   1       1.450  -1.002  23.8510  0.00  0.00     0.000 HD
ATOM      9   O  BDP B   1      -0.414  -4.448  21.9620  0.00  0.00     0.000 O
ATOM     11  HD  BDP B   1       0.053  -3.778  22.2500  0.00  0.00     0.000 HD
ATOM     11   O  BDP B   1      -2.460  -2.093  23.8260  0.00  0.00     0.000 O
ATOM     13  HD  BDP B   1      -1.993  -1.423  24.1140  0.00  0.00     0.000 HD
ENDROOT
BRANCH 5 13
ATOM     13   C  BDP B   1      -2.527  -5.618  24.1790  0.00  0.00     0.000 C
ATOM     14   O  BDP B   1      -3.420  -5.599  23.3080  0.00  0.00     0.000 OA
ATOM     15   O  BDP B   1      -2.089  -6.679  24.6740  0.00  0.00     0.000 OA
ENDBRANCH 5 13
BRANCH 1 16
ATOM     16  O3  NAG B   2       0.185  -2.501  26.2730  0.00  0.00     0.000 O
BRANCH 16 19
ATOM     17  C1  NAG B   2       0.580  -0.307  29.1510  0.00  0.00     0.000 C
ATOM     18  C2  NAG B   2       0.878  -0.644  27.6900  0.00  0.00     0.000 C
ATOM     19  C3  NAG B   2      -0.281  -1.411  27.0710  0.00  0.00     0.000 C
ATOM     20  C4  NAG B   2      -1.251  -1.930  28.1360  0.00  0.00     0.000 C
ATOM     21  C5  NAG B   2      -0.599  -2.367  29.4540  0.00  0.00     0.000 C
ATOM     22  O5  NAG B   2       0.530  -1.567  29.8240  0.00  0.00     0.000 O
ATOM     23   O  NAG B   2      -2.229  -0.916  28.3910  0.00  0.00     0.000 O
ATOM     25  HD  NAG B   2      -1.661  -0.263  28.3650  0.00  0.00     0.000 HD
ATOM     25   C  NAG B   2      -0.155  -3.835  29.3770  0.00  0.00     0.000 C
ATOM     26   O  NAG B   2      -1.227  -4.732  29.7020  0.00  0.00     0.000 O
ATOM     28  HD  NAG B   2      -0.659  -4.079  29.6760  0.00  0.00     0.000 HD
BRANCH 18 30
ATOM     28   N  NAG B   2       1.241   0.554  26.9340  0.00  0.00     0.000 N
ATOM     30  HD  NAG B   2       1.803   1.213  26.9270  0.00  0.00     0.000 HD
ATOM     30   C  NAG B   2       0.495   1.666  26.8540  0.00  0.00     0.000 C
ATOM     31   C  NAG B   2       1.081   2.759  26.0050  0.00  0.00     0.000 C
ATOM     32   O  NAG B   2      -0.565   1.799  27.4190  0.00  0.00     0.000 OA
ENDBRANCH 18 30
BRANCH 17 33
ATOM     33  O4  BDP B   3       0.992   0.038  30.4920  0.00  0.00     0.000 O
BRANCH 33 37
ATOM     34  C1  BDP B   3       4.682  -0.239  32.6240  0.00  0.00     0.000 C
ATOM     35  C2  BDP B   3       3.429  -0.743  33.3310  0.00  0.00     0.000 C
ATOM     36  C3  BDP B   3       2.261  -1.007  32.3880  0.00  0.00     0.000 C
ATOM     37  C4  BDP B   3       2.111   0.173  31.4160  0.00  0.00     0.000 C
ATOM     38  C5  BDP B   3       3.460   0.343  30.6920  0.00  0.00     0.000 C
ATOM     39  O5  BDP B   3       4.377   0.800  31.6860  0.00  0.00     0.000 O
ATOM     40   O  BDP B   3       3.820  -1.916  34.0490  0.00  0.00     0.000 O
ATOM     42  HD  BDP B   3       4.093  -1.302  34.5950  0.00  0.00     0.000 HD
ATOM     42   O  BDP B   3       1.104  -1.171  33.2060  0.00  0.00     0.000 O
ATOM     44  HD  BDP B   3       1.376  -0.557  33.7520  0.00  0.00     0.000 HD
BRANCH 38 44
ATOM     44   C  BDP B   3       3.431   1.308  29.5480  0.00  0.00     0.000 C
ATOM     45   O  BDP B   3       2.967   2.451  29.7580  0.00  0.00     0.000 OA
ATOM     46   O  BDP B   3       3.863   0.954  28.4290  0.00  0.00     0.000 OA
ENDBRANCH 38 44
BRANCH 34 47
ATOM     47  O3  NAG B   4       5.371   0.744  33.3960  0.00  0.00     0.000 O
BRANCH 47 50
ATOM     48  C1  NAG B   4       9.085   0.399  33.8770  0.00  0.00     0.000 C
ATOM     49  C2  NAG B   4       7.614   0.066  34.0550  0.00  0.00     0.000 C
ATOM     50  C3  NAG B   4       6.775   0.999  33.1890  0.00  0.00     0.000 C
ATOM     51  C4  NAG B   4       7.075   2.459  33.4870  0.00  0.00     0.000 C
ATOM     52  C5  NAG B   4       8.577   2.718  33.3600  0.00  0.00     0.000 C
ATOM     53  O5  NAG B   4       9.313   1.791  34.1690  0.00  0.00     0.000 O
ATOM     54   O  NAG B   4       6.342   3.281  32.5740  0.00  0.00     0.000 O
ATOM     56  HD  NAG B   4       6.665   3.729  33.2420  0.00  0.00     0.000 HD
ATOM     56   C  NAG B   4       8.930   4.141  33.7740  0.00  0.00     0.000 C
ATOM     57   O  NAG B   4       8.541   4.343  35.1390  0.00  0.00     0.000 O
ATOM     59  HD  NAG B   4       8.863   4.791  35.8060  0.00  0.00     0.000 HD
BRANCH 49 61
ATOM     59   N  NAG B   4       7.744  -1.389  33.9780  0.00  0.00     0.000 N
ATOM     61  HD  NAG B   4       7.718  -0.771  34.5830  0.00  0.00     0.000 HD
ATOM     61   O  NAG B   4       6.369  -1.877  35.7020  0.00  0.00     0.000 OA
ATOM     62   C  NAG B   4       7.056  -2.233  34.7570  0.00  0.00     0.000 C
ATOM     63   C  NAG B   4       7.157  -3.680  34.3900  0.00  0.00     0.000 C
ENDBRANCH 49 61
BRANCH 48 64
ATOM     64  O4  BDP B   5      10.273  -0.382  33.9640  0.00  0.00     0.000 O
BRANCH 64 68
ATOM     65  C1  BDP B   5      14.081  -1.890  34.7420  0.00  0.00     0.000 C
ATOM     66  C2  BDP B   5      12.969  -2.377  35.6620  0.00  0.00     0.000 C
ATOM     67  C3  BDP B   5      11.615  -2.105  35.0190  0.00  0.00     0.000 C
ATOM     68  C4  BDP B   5      11.482  -0.624  34.6820  0.00  0.00     0.000 C
ATOM     69  C5  BDP B   5      12.652  -0.118  33.8480  0.00  0.00     0.000 C
ATOM     70  O5  BDP B   5      13.903  -0.494  34.4510  0.00  0.00     0.000 O
ATOM     71   O  BDP B   5      13.153  -3.773  35.9420  0.00  0.00     0.000 O
ATOM     73  HD  BDP B   5      13.299  -4.619  36.0610  0.00  0.00     0.000 HD
ATOM     73   O  BDP B   5      10.554  -2.486  35.9020  0.00  0.00     0.000 O
ATOM     75  HD  BDP B   5      10.700  -3.331  36.0210  0.00  0.00     0.000 HD
BRANCH 69 75
ATOM     75   C  BDP B   5      12.563   1.385  33.7720  0.00  0.00     0.000 C
ATOM     76   O  BDP B   5      12.787   2.053  34.8020  0.00  0.00     0.000 OA
ATOM     77   O  BDP B   5      12.273   1.918  32.6840  0.00  0.00     0.000 OA
ENDBRANCH 69 75
BRANCH 65 78
ATOM     78  O3  NAG B   6      15.366  -1.410  35.1440  0.00  0.00     0.000 O
BRANCH 78 81
ATOM     79  C1  NAG B   6      18.873  -1.476  33.7190  0.00  0.00     0.000 C
ATOM     80  C2  NAG B   6      17.605  -2.017  34.3980  0.00  0.00     0.000 C
ATOM     81  C3  NAG B   6      16.506  -0.967  34.3750  0.00  0.00     0.000 C
ATOM     82  C4  NAG B   6      17.017   0.370  34.9200  0.00  0.00     0.000 C
ATOM     83  C5  NAG B   6      18.264   0.788  34.1480  0.00  0.00     0.000 C
ATOM     84  O5  NAG B   6      19.248  -0.230  34.3320  0.00  0.00     0.000 O
BRANCH 80 87
ATOM     85   N  NAG B   6      17.283  -3.277  33.7340  0.00  0.00     0.000 N
ATOM     87  HD  NAG B   6      17.441  -4.119  33.6100  0.00  0.00     0.000 HD
ATOM     87   C  NAG B   6      16.816  -4.360  34.3670  0.00  0.00     0.000 C
ATOM     88   C  NAG B   6      16.515  -5.540  33.4990  0.00  0.00     0.000 C
ATOM     89   O  NAG B   6      16.625  -4.396  35.5770  0.00  0.00     0.000 OA
ENDBRANCH 80 87
ATOM     90   O  NAG B   6      18.668   3.098  33.5540  0.00  0.00     0.000 O
ATOM     92  HD  NAG B   6      18.789   2.269  33.3330  0.00  0.00     0.000 HD
ATOM     92   O  NAG B   6      18.668   3.098  33.5540  0.00  0.00     0.000 O
ATOM     94  HD  NAG B   6      18.789   2.269  33.3330  0.00  0.00     0.000 HD
ENDBRANCH 78 81
ENDBRANCH 65 78
ENDBRANCH 64 68
ENDBRANCH 48 64
ENDBRANCH 47 50
ENDBRANCH 34 47
ENDBRANCH 33 37
ENDBRANCH 17 33
ENDBRANCH 16 19
ENDBRANCH 1 16
TORSDOF 16
ENDMDL
MODEL 52
REMARK VINA RESULT:      -9.1      6.896      9.677
ROOT
ATOM      1  C1  BDP B   1       0.814  -3.722  24.7910  0.00  0.00     0.000 C
ATOM      2  C2  BDP B   1      -0.118  -3.439  23.6260  0.00  0.00     0.000 C
ATOM      3  C3  BDP B   1      -0.890  -4.670  23.2010  0.00  0.00     0.000 C
ATOM      4  C4  BDP B   1      -0.852  -5.808  24.2150  0.00  0.00     0.000 C
ATOM      5  C5  BDP B   1       0.553  -6.082  24.7430  0.00  0.00     0.000 C
ATOM      6  O5  BDP B   1       1.439  -4.970  24.5280  0.00  0.00     0.000 O
ATOM      7   O  BDP B   1      -1.033  -2.395  23.9770  0.00  0.00     0.000 O
ATOM      9  HD  BDP B   1      -1.207  -1.626  24.3350  0.00  0.00     0.000 HD
ATOM      9   O  BDP B   1      -0.367  -5.173  21.9620  0.00  0.00     0.000 O
ATOM     11  HD  BDP B   1      -0.541  -4.403  22.3190  0.00  0.00     0.000 HD
ATOM     11   O  BDP B   1      -1.734  -5.531  25.3100  0.00  0.00     0.000 O
ATOM     13  HD  BDP B   1      -1.907  -4.762  25.6680  0.00  0.00     0.000 HD
ENDROOT
BRANCH 5 13
ATOM     13   C  BDP B   1       1.068  -7.279  24.0240  0.00  0.00     0.000 C
ATOM     14   O  BDP B   1       0.242  -8.119  23.6100  0.00  0.00     0.000 OA
ATOM     15   O  BDP B   1       2.298  -7.394  23.8360  0.00  0.00     0.000 OA
ENDBRANCH 5 13
BRANCH 1 16
ATOM     16  O3  NAG B   2       0.877  -3.138  26.0900  0.00  0.00     0.000 O
BRANCH 16 19
ATOM     17  C1  NAG B   2       1.273  -2.420  29.6380  0.00  0.00     0.000 C
ATOM     18  C2  NAG B   2       1.294  -1.957  28.1800  0.00  0.00     0.000 C
ATOM     19  C3  NAG B   2       0.311  -2.766  27.3480  0.00  0.00     0.000 C
ATOM     20  C4  NAG B   2      -0.166  -4.018  28.0900  0.00  0.00     0.000 C
ATOM     21  C5  NAG B   2       0.890  -4.689  28.9800  0.00  0.00     0.000 C
ATOM     22  O5  NAG B   2       1.775  -3.758  29.6130  0.00  0.00     0.000 O
ATOM     23   O  NAG B   2      -1.313  -3.673  28.8740  0.00  0.00     0.000 O
ATOM     25  HD  NAG B   2      -0.995  -2.909  29.1300  0.00  0.00     0.000 HD
ATOM     25   C  NAG B   2       1.727  -5.687  28.1680  0.00  0.00     0.000 C
ATOM     26   O  NAG B   2       1.092  -6.971  28.0880  0.00  0.00     0.000 O
ATOM     28  HD  NAG B   2       1.410  -6.208  28.3440  0.00  0.00     0.000 HD
BRANCH 18 30
ATOM     28   N  NAG B   2       0.989  -0.739  28.9290  0.00  0.00     0.000 N
ATOM     30  HD  NAG B   2       0.658  -0.463  29.6800  0.00  0.00     0.000 HD
ATOM     30   C  NAG B   2       0.034   0.144  28.6030  0.00  0.00     0.000 C
ATOM     31   C  NAG B   2      -0.077   1.324  29.5260  0.00  0.00     0.000 C
ATOM     32   O  NAG B   2      -0.695   0.014  27.6470  0.00  0.00     0.000 OA
ENDBRANCH 18 30
BRANCH 17 33
ATOM     33  O4  BDP B   3       1.874  -2.552  30.9440  0.00  0.00     0.000 O
BRANCH 33 37
ATOM     34  C1  BDP B   3       5.899  -2.566  32.3720  0.00  0.00     0.000 C
ATOM     35  C2  BDP B   3       4.974  -3.662  32.8870  0.00  0.00     0.000 C
ATOM     36  C3  BDP B   3       3.721  -3.851  32.0390  0.00  0.00     0.000 C
ATOM     37  C4  BDP B   3       3.105  -2.480  31.7220  0.00  0.00     0.000 C
ATOM     38  C5  BDP B   3       4.194  -1.637  31.0320  0.00  0.00     0.000 C
ATOM     39  O5  BDP B   3       5.175  -1.377  32.0360  0.00  0.00     0.000 O
ATOM     40   O  BDP B   3       5.763  -4.851  32.9590  0.00  0.00     0.000 O
ATOM     42  HD  BDP B   3       6.000  -4.463  33.6960  0.00  0.00     0.000 HD
ATOM     42   O  BDP B   3       2.833  -4.670  32.7970  0.00  0.00     0.000 O
ATOM     44  HD  BDP B   3       3.070  -4.282  33.5340  0.00  0.00     0.000 HD
BRANCH 38 44
ATOM     44   C  BDP B   3       3.704  -0.346  30.4550  0.00  0.00     0.000 C
ATOM     45   O  BDP B   3       3.001   0.391  31.1810  0.00  0.00     0.000 OA
ATOM     46   O  BDP B   3       4.004  -0.040  29.2800  0.00  0.00     0.000 OA
ENDBRANCH 38 44
BRANCH 34 47
ATOM     47  O3  NAG B   4       6.497  -1.828  33.4360  0.00  0.00     0.000 O
BRANCH 47 50
ATOM     48  C1  NAG B   4      10.213  -1.735  34.0080  0.00  0.00     0.000 C
ATOM     49  C2  NAG B   4       8.802  -2.294  34.0640  0.00  0.00     0.000 C
ATOM     50  C3  NAG B   4       7.853  -1.348  33.3370  0.00  0.00     0.000 C
ATOM     51  C4  NAG B   4       7.934   0.064  33.8950  0.00  0.00     0.000 C
ATOM     52  C5  NAG B   4       9.385   0.546  33.8790  0.00  0.00     0.000 C
ATOM     53  O5  NAG B   4      10.233  -0.398  34.5460  0.00  0.00     0.000 O
ATOM     54   O  NAG B   4       7.108   0.924  33.1070  0.00  0.00     0.000 O
ATOM     56  HD  NAG B   4       7.350   1.288  33.8550  0.00  0.00     0.000 HD
ATOM     56   C  NAG B   4       9.523   1.909  34.5460  0.00  0.00     0.000 C
ATOM     57   O  NAG B   4       9.085   1.810  35.9080  0.00  0.00     0.000 O
ATOM     59  HD  NAG B   4       9.328   2.173  36.6560  0.00  0.00     0.000 HD
BRANCH 49 61
ATOM     59   N  NAG B   4       9.226  -3.674  33.8230  0.00  0.00     0.000 N
ATOM     61  HD  NAG B   4       9.021  -3.165  34.4930  0.00  0.00     0.000 HD
ATOM     61   O  NAG B   4       7.821  -4.651  35.2970  0.00  0.00     0.000 OA
ATOM     62   C  NAG B   4       8.651  -4.734  34.4030  0.00  0.00     0.000 C
ATOM     63   C  NAG B   4       9.072  -6.068  33.8740  0.00  0.00     0.000 C
ENDBRANCH 49 61
BRANCH 48 64
ATOM     64  O4  BDP B   5      11.500  -2.346  34.0100  0.00  0.00     0.000 O
BRANCH 64 68
ATOM     65  C1  BDP B   5      15.634  -2.866  34.0910  0.00  0.00     0.000 C
ATOM     66  C2  BDP B   5      14.842  -3.660  35.1220  0.00  0.00     0.000 C
ATOM     67  C3  BDP B   5      13.376  -3.714  34.7100  0.00  0.00     0.000 C
ATOM     68  C4  BDP B   5      12.832  -2.303  34.5190  0.00  0.00     0.000 C
ATOM     69  C5  BDP B   5      13.690  -1.480  33.5670  0.00  0.00     0.000 C
ATOM     70  O5  BDP B   5      15.076  -1.551  33.9450  0.00  0.00     0.000 O
ATOM     71   O  BDP B   5      15.405  -4.974  35.2550  0.00  0.00     0.000 O
ATOM     73  HD  BDP B   5      15.771  -5.758  35.2820  0.00  0.00     0.000 HD
ATOM     73   O  BDP B   5      12.599  -4.390  35.7050  0.00  0.00     0.000 O
ATOM     75  HD  BDP B   5      12.965  -5.175  35.7320  0.00  0.00     0.000 HD
BRANCH 69 75
ATOM     75   C  BDP B   5      13.224  -0.047  33.6290  0.00  0.00     0.000 C
ATOM     76   O  BDP B   5      13.387   0.591  34.6880  0.00  0.00     0.000 OA
ATOM     77   O  BDP B   5      12.695   0.459  32.6210  0.00  0.00     0.000 OA
ENDBRANCH 69 75
BRANCH 65 78
ATOM     78  O3  NAG B   6      16.811  -2.093  34.3380  0.00  0.00     0.000 O
BRANCH 78 81
ATOM     79  C1  NAG B   6      20.289  -2.092  32.8420  0.00  0.00     0.000 C
ATOM     80  C2  NAG B   6      19.088  -2.616  33.6450  0.00  0.00     0.000 C
ATOM     81  C3  NAG B   6      17.893  -1.693  33.4680  0.00  0.00     0.000 C
ATOM     82  C4  NAG B   6      18.281  -0.238  33.7500  0.00  0.00     0.000 C
ATOM     83  C5  NAG B   6      19.471   0.147  32.8780  0.00  0.00     0.000 C
ATOM     84  O5  NAG B   6      20.551  -0.726  33.2110  0.00  0.00     0.000 O
BRANCH 80 87
ATOM     85   N  NAG B   6      18.870  -3.997  33.2240  0.00  0.00     0.000 N
ATOM     87  HD  NAG B   6      19.105  -4.830  33.2410  0.00  0.00     0.000 HD
ATOM     87   C  NAG B   6      18.527  -4.988  34.0560  0.00  0.00     0.000 C
ATOM     88   C  NAG B   6      18.317  -6.326  33.4200  0.00  0.00     0.000 C
ATOM     89   O  NAG B   6      18.376  -4.827  35.2620  0.00  0.00     0.000 OA
ENDBRANCH 80 87
ATOM     90   O  NAG B   6      19.644   2.338  31.8700  0.00  0.00     0.000 O
ATOM     92  HD  NAG B   6      19.841   1.498  31.7970  0.00  0.00     0.000 HD
ATOM     92   O  NAG B   6      19.644   2.338  31.8700  0.00  0.00     0.000 O
ATOM     94  HD  NAG B   6      19.841   1.498  31.7970  0.00  0.00     0.000 HD
ENDBRANCH 78 81
ENDBRANCH 65 78
ENDBRANCH 64 68
ENDBRANCH 48 64
ENDBRANCH 47 50
ENDBRANCH 34 47
ENDBRANCH 33 37
ENDBRANCH 17 33
ENDBRANCH 16 19
ENDBRANCH 1 16
TORSDOF 16
ENDMDL
MODEL 53
REMARK VINA RESULT:      -9.1     32.282     37.867
ROOT
ATOM      1  C1  BDP B   1       5.282 -11.702  70.1050  0.00  0.00     0.000 C
ATOM      2  C2  BDP B   1       3.784 -11.568  70.3130  0.00  0.00     0.000 C
ATOM      3  C3  BDP B   1       3.448 -10.611  71.4360  0.00  0.00     0.000 C
ATOM      4  C4  BDP B   1       4.615  -9.733  71.8740  0.00  0.00     0.000 C
ATOM      5  C5  BDP B   1       5.907 -10.521  72.0670  0.00  0.00     0.000 C
ATOM      6  O5  BDP B   1       5.873 -11.790  71.3930  0.00  0.00     0.000 O
ATOM      7   O  BDP B   1       3.162 -11.125  69.1020  0.00  0.00     0.000 O
ATOM      9  HD  BDP B   1       3.064 -11.158  68.2420  0.00  0.00     0.000 HD
ATOM      9   O  BDP B   1       2.998 -11.344  72.5870  0.00  0.00     0.000 O
ATOM     11  HD  BDP B   1       2.900 -11.377  71.7270  0.00  0.00     0.000 HD
ATOM     11   O  BDP B   1       4.829  -8.678  70.9290  0.00  0.00     0.000 O
ATOM     13  HD  BDP B   1       4.731  -8.711  70.0690  0.00  0.00     0.000 HD
ENDROOT
BRANCH 5 13
ATOM     13   C  BDP B   1       6.078 -10.734  73.5310  0.00  0.00     0.000 C
ATOM     14   O  BDP B   1       6.992 -10.114  74.1130  0.00  0.00     0.000 OA
ATOM     15   O  BDP B   1       5.293 -11.500  74.1300  0.00  0.00     0.000 OA
ENDBRANCH 5 13
BRANCH 1 16
ATOM     16  O3  NAG B   2       6.084 -11.448  68.9540  0.00  0.00     0.000 O
BRANCH 16 19
ATOM     17  C1  NAG B   2       7.356  -8.806  66.7950  0.00  0.00     0.000 C
ATOM     18  C2  NAG B   2       6.981  -9.316  68.1870  0.00  0.00     0.000 C
ATOM     19  C3  NAG B   2       7.175 -10.823  68.2750  0.00  0.00     0.000 C
ATOM     20  C4  NAG B   2       7.352 -11.454  66.8910  0.00  0.00     0.000 C
ATOM     21  C5  NAG B   2       6.530 -10.804  65.7690  0.00  0.00     0.000 C
ATOM     22  O5  NAG B   2       6.394  -9.385  65.9120  0.00  0.00     0.000 O
ATOM     23   O  NAG B   2       8.742 -11.425  66.5530  0.00  0.00     0.000 O
ATOM     25  HD  NAG B   2       8.875 -10.631  66.8710  0.00  0.00     0.000 HD
ATOM     25   C  NAG B   2       5.129 -11.426  65.6940  0.00  0.00     0.000 C
ATOM     26   O  NAG B   2       5.120 -12.622  64.9010  0.00  0.00     0.000 O
ATOM     28  HD  NAG B   2       5.253 -11.827  65.2190  0.00  0.00     0.000 HD
BRANCH 18 30
ATOM     28   N  NAG B   2       8.072  -8.358  68.3630  0.00  0.00     0.000 N
ATOM     30  HD  NAG B   2       8.795  -8.069  67.9840  0.00  0.00     0.000 HD
ATOM     30   C  NAG B   2       9.031  -8.449  69.2950  0.00  0.00     0.000 C
ATOM     31   C  NAG B   2      10.036  -7.333  69.2780  0.00  0.00     0.000 C
ATOM     32   O  NAG B   2       9.103  -9.356  70.0910  0.00  0.00     0.000 OA
ENDBRANCH 18 30
BRANCH 17 33
ATOM     33  O4  BDP B   3       7.286  -7.834  65.7300  0.00  0.00     0.000 O
BRANCH 33 37
ATOM     34  C1  BDP B   3       8.672  -5.063  62.7900  0.00  0.00     0.000 C
ATOM     35  C2  BDP B   3       8.404  -6.491  62.3300  0.00  0.00     0.000 C
ATOM     36  C3  BDP B   3       7.532  -7.289  63.2930  0.00  0.00     0.000 C
ATOM     37  C4  BDP B   3       8.031  -7.079  64.7300  0.00  0.00     0.000 C
ATOM     38  C5  BDP B   3       8.019  -5.562  65.0020  0.00  0.00     0.000 C
ATOM     39  O5  BDP B   3       9.043  -5.014  64.1730  0.00  0.00     0.000 O
ATOM     40   O  BDP B   3       7.821  -6.389  61.0290  0.00  0.00     0.000 O
ATOM     42  HD  BDP B   3       8.659  -6.297  60.8310  0.00  0.00     0.000 HD
ATOM     42   O  BDP B   3       7.625  -8.655  62.8930  0.00  0.00     0.000 O
ATOM     44  HD  BDP B   3       8.463  -8.563  62.6940  0.00  0.00     0.000 HD
BRANCH 38 44
ATOM     44   C  BDP B   3       8.267  -5.187  66.4290  0.00  0.00     0.000 C
ATOM     45   O  BDP B   3       7.274  -4.978  67.1610  0.00  0.00     0.000 OA
ATOM     46   O  BDP B   3       9.442  -5.093  66.8480  0.00  0.00     0.000 OA
ENDBRANCH 38 44
BRANCH 34 47
ATOM     47  O3  NAG B   4       9.999  -4.642  62.4810  0.00  0.00     0.000 O
BRANCH 47 50
ATOM     48  C1  NAG B   4      10.011  -1.114  61.1760  0.00  0.00     0.000 C
ATOM     49  C2  NAG B   4       9.587  -2.569  61.2720  0.00  0.00     0.000 C
ATOM     50  C3  NAG B   4      10.338  -3.241  62.4160  0.00  0.00     0.000 C
ATOM     51  C4  NAG B   4      11.843  -3.090  62.2630  0.00  0.00     0.000 C
ATOM     52  C5  NAG B   4      12.202  -1.612  62.1010  0.00  0.00     0.000 C
ATOM     53  O5  NAG B   4      11.443  -1.028  61.0350  0.00  0.00     0.000 O
ATOM     54   O  NAG B   4      12.486  -3.642  63.4150  0.00  0.00     0.000 O
ATOM     56  HD  NAG B   4      13.036  -3.499  62.7620  0.00  0.00     0.000 HD
ATOM     56   C  NAG B   4      13.689  -1.432  61.8210  0.00  0.00     0.000 C
ATOM     57   O  NAG B   4      14.024  -2.124  60.6100  0.00  0.00     0.000 O
ATOM     59  HD  NAG B   4      14.575  -1.981  59.9570  0.00  0.00     0.000 HD
BRANCH 49 61
ATOM     59   N  NAG B   4       9.547  -2.664  59.8120  0.00  0.00     0.000 N
ATOM     61  HD  NAG B   4       9.463  -3.184  60.4990  0.00  0.00     0.000 HD
ATOM     61   O  NAG B   4       7.767  -4.049  59.6790  0.00  0.00     0.000 OA
ATOM     62   C  NAG B   4       8.601  -3.333  59.1420  0.00  0.00     0.000 C
ATOM     63   C  NAG B   4       8.599  -3.140  57.6590  0.00  0.00     0.000 C
ENDBRANCH 49 61
BRANCH 48 64
ATOM     64  O4  BDP B   5       9.343   0.063  60.7320  0.00  0.00     0.000 O
BRANCH 64 68
ATOM     65  C1  BDP B   5       5.417   0.276  59.3510  0.00  0.00     0.000 C
ATOM     66  C2  BDP B   5       6.458   1.008  58.5150  0.00  0.00     0.000 C
ATOM     67  C3  BDP B   5       7.850   0.501  58.8720  0.00  0.00     0.000 C
ATOM     68  C4  BDP B   5       8.096   0.652  60.3690  0.00  0.00     0.000 C
ATOM     69  C5  BDP B   5       6.994   0.008  61.2000  0.00  0.00     0.000 C
ATOM     70  O5  BDP B   5       5.699   0.444  60.7490  0.00  0.00     0.000 O
ATOM     71   O  BDP B   5       6.170   0.828  57.1200  0.00  0.00     0.000 O
ATOM     73  HD  BDP B   5       5.962   0.671  56.2940  0.00  0.00     0.000 HD
ATOM     73   O  BDP B   5       8.851   1.231  58.1520  0.00  0.00     0.000 O
ATOM     75  HD  BDP B   5       8.643   1.074  57.3260  0.00  0.00     0.000 HD
BRANCH 69 75
ATOM     75   C  BDP B   5       7.188   0.413  62.6390  0.00  0.00     0.000 C
ATOM     76   O  BDP B   5       7.079   1.618  62.9430  0.00  0.00     0.000 OA
ATOM     77   O  BDP B   5       7.447  -0.465  63.4830  0.00  0.00     0.000 OA
ENDBRANCH 69 75
BRANCH 65 78
ATOM     78  O3  NAG B   6       4.153   0.793  59.7760  0.00  0.00     0.000 O
BRANCH 78 81
ATOM     79  C1  NAG B   6       0.917  -0.687  61.0670  0.00  0.00     0.000 C
ATOM     80  C2  NAG B   6       2.002  -0.320  60.0420  0.00  0.00     0.000 C
ATOM     81  C3  NAG B   6       3.197   0.307  60.7430  0.00  0.00     0.000 C
ATOM     82  C4  NAG B   6       2.752   1.452  61.6600  0.00  0.00     0.000 C
ATOM     83  C5  NAG B   6       1.689   0.943  62.6260  0.00  0.00     0.000 C
ATOM     84  O5  NAG B   6       0.586   0.475  61.8480  0.00  0.00     0.000 O
BRANCH 80 87
ATOM     85   N  NAG B   6       2.373  -1.521  59.2990  0.00  0.00     0.000 N
ATOM     87  HD  NAG B   6       2.174  -2.134  58.7200  0.00  0.00     0.000 HD
ATOM     87   C  NAG B   6       2.536  -1.559  57.9700  0.00  0.00     0.000 C
ATOM     88   C  NAG B   6       2.951  -2.880  57.4050  0.00  0.00     0.000 C
ATOM     89   O  NAG B   6       2.375  -0.581  57.2490  0.00  0.00     0.000 OA
ENDBRANCH 80 87
ATOM     90   O  NAG B   6       1.625   1.667  64.9320  0.00  0.00     0.000 O
ATOM     92  HD  NAG B   6       1.453   1.025  64.3780  0.00  0.00     0.000 HD
ATOM     92   O  NAG B   6       1.625   1.667  64.9320  0.00  0.00     0.000 O
ATOM     94  HD  NAG B   6       1.453   1.025  64.3780  0.00  0.00     0.000 HD
ENDBRANCH 78 81
ENDBRANCH 65 78
ENDBRANCH 64 68
ENDBRANCH 48 64
ENDBRANCH 47 50
ENDBRANCH 34 47
ENDBRANCH 33 37
ENDBRANCH 17 33
ENDBRANCH 16 19
ENDBRANCH 1 16
TORSDOF 16
ENDMDL
MODEL 54
REMARK VINA RESULT:      -9.1      9.452     18.938
ROOT
ATOM      1  C1  BDP B   1       1.534  -8.555  30.9980  0.00  0.00     0.000 C
ATOM      2  C2  BDP B   1       2.873  -7.886  30.7450  0.00  0.00     0.000 C
ATOM      3  C3  BDP B   1       3.974  -8.892  30.4890  0.00  0.00     0.000 C
ATOM      4  C4  BDP B   1       3.472 -10.300  30.1880  0.00  0.00     0.000 C
ATOM      5  C5  BDP B   1       2.393 -10.763  31.1620  0.00  0.00     0.000 C
ATOM      6  O5  BDP B   1       1.779  -9.662  31.8530  0.00  0.00     0.000 O
ATOM      7   O  BDP B   1       2.768  -6.994  29.6300  0.00  0.00     0.000 O
ATOM      9  HD  BDP B   1       2.349  -6.380  29.1850  0.00  0.00     0.000 HD
ATOM      9   O  BDP B   1       4.839  -8.974  31.6330  0.00  0.00     0.000 O
ATOM     11  HD  BDP B   1       4.420  -8.360  31.1880  0.00  0.00     0.000 HD
ATOM     11   O  BDP B   1       2.976 -10.377  28.8460  0.00  0.00     0.000 O
ATOM     13  HD  BDP B   1       2.558  -9.763  28.4000  0.00  0.00     0.000 HD
ENDROOT
BRANCH 5 13
ATOM     13   C  BDP B   1       3.046 -11.671  32.1440  0.00  0.00     0.000 C
ATOM     14   O  BDP B   1       4.065 -11.262  32.7380  0.00  0.00     0.000 OA
ATOM     15   O  BDP B   1       2.544 -12.795  32.3610  0.00  0.00     0.000 OA
ENDBRANCH 5 13
BRANCH 1 16
ATOM     16  O3  NAG B   2       0.290  -8.431  30.3110  0.00  0.00     0.000 O
BRANCH 16 19
ATOM     17  C1  NAG B   2      -2.070  -5.701  30.7940  0.00  0.00     0.000 C
ATOM     18  C2  NAG B   2      -0.744  -6.226  30.2420  0.00  0.00     0.000 C
ATOM     19  C3  NAG B   2      -0.860  -7.700  29.8830  0.00  0.00     0.000 C
ATOM     20  C4  NAG B   2      -2.123  -8.331  30.4760  0.00  0.00     0.000 C
ATOM     21  C5  NAG B   2      -2.533  -7.796  31.8550  0.00  0.00     0.000 C
ATOM     22  O5  NAG B   2      -2.266  -6.399  32.0260  0.00  0.00     0.000 O
ATOM     23   O  NAG B   2      -3.198  -8.153  29.5480  0.00  0.00     0.000 O
ATOM     25  HD  NAG B   2      -2.975  -7.343  29.3370  0.00  0.00     0.000 HD
ATOM     25   C  NAG B   2      -1.818  -8.572  32.9700  0.00  0.00     0.000 C
ATOM     26   O  NAG B   2      -2.520  -9.774  33.3150  0.00  0.00     0.000 O
ATOM     28  HD  NAG B   2      -2.297  -8.964  33.1040  0.00  0.00     0.000 HD
BRANCH 18 30
ATOM     28   N  NAG B   2      -1.405  -5.346  29.2790  0.00  0.00     0.000 N
ATOM     30  HD  NAG B   2      -2.120  -5.277  28.7960  0.00  0.00     0.000 HD
ATOM     30   C  NAG B   2      -0.978  -5.117  28.0290  0.00  0.00     0.000 C
ATOM     31   C  NAG B   2      -1.825  -4.163  27.2360  0.00  0.00     0.000 C
ATOM     32   O  NAG B   2       0.008  -5.635  27.5570  0.00  0.00     0.000 OA
ENDBRANCH 18 30
BRANCH 17 33
ATOM     33  O4  BDP B   3      -2.850  -4.761  31.5650  0.00  0.00     0.000 O
BRANCH 33 37
ATOM     34  C1  BDP B   3      -5.855  -1.866  32.4720  0.00  0.00     0.000 C
ATOM     35  C2  BDP B   3      -6.328  -3.259  32.0730  0.00  0.00     0.000 C
ATOM     36  C3  BDP B   3      -5.243  -4.325  32.1790  0.00  0.00     0.000 C
ATOM     37  C4  BDP B   3      -3.944  -3.799  31.5500  0.00  0.00     0.000 C
ATOM     38  C5  BDP B   3      -3.587  -2.484  32.2690  0.00  0.00     0.000 C
ATOM     39  O5  BDP B   3      -4.591  -1.546  31.8790  0.00  0.00     0.000 O
ATOM     40   O  BDP B   3      -7.456  -3.550  32.9000  0.00  0.00     0.000 O
ATOM     42  HD  BDP B   3      -7.832  -3.059  32.2930  0.00  0.00     0.000 HD
ATOM     42   O  BDP B   3      -5.734  -5.478  31.4980  0.00  0.00     0.000 O
ATOM     44  HD  BDP B   3      -6.110  -4.987  30.8920  0.00  0.00     0.000 HD
BRANCH 38 44
ATOM     44   C  BDP B   3      -2.232  -1.943  31.9340  0.00  0.00     0.000 C
ATOM     45   O  BDP B   3      -1.429  -1.754  32.8740  0.00  0.00     0.000 OA
ATOM     46   O  BDP B   3      -1.941  -1.698  30.7430  0.00  0.00     0.000 OA
ENDBRANCH 38 44
BRANCH 34 47
ATOM     47  O3  NAG B   4      -6.429  -0.851  31.6490  0.00  0.00     0.000 O
BRANCH 47 50
ATOM     48  C1  NAG B   4      -7.254   2.222  33.6540  0.00  0.00     0.000 C
ATOM     49  C2  NAG B   4      -7.246   0.747  33.2940  0.00  0.00     0.000 C
ATOM     50  C3  NAG B   4      -6.395   0.535  32.0470  0.00  0.00     0.000 C
ATOM     51  C4  NAG B   4      -6.866   1.406  30.8930  0.00  0.00     0.000 C
ATOM     52  C5  NAG B   4      -6.921   2.868  31.3360  0.00  0.00     0.000 C
ATOM     53  O5  NAG B   4      -7.706   3.000  32.5280  0.00  0.00     0.000 O
ATOM     54   O  NAG B   4      -5.969   1.245  29.7920  0.00  0.00     0.000 O
ATOM     56  HD  NAG B   4      -6.707   1.637  29.5660  0.00  0.00     0.000 HD
ATOM     56   C  NAG B   4      -7.509   3.755  30.2440  0.00  0.00     0.000 C
ATOM     57   O  NAG B   4      -8.840   3.312  29.9470  0.00  0.00     0.000 O
ATOM     59  HD  NAG B   4      -9.578   3.704  29.7210  0.00  0.00     0.000 HD
BRANCH 49 61
ATOM     59   N  NAG B   4      -8.684   0.486  33.3640  0.00  0.00     0.000 N
ATOM     61  HD  NAG B   4      -7.950   0.048  33.2250  0.00  0.00     0.000 HD
ATOM     61   O  NAG B   4      -8.554  -1.442  34.5330  0.00  0.00     0.000 OA
ATOM     62   C  NAG B   4      -9.215  -0.542  34.0370  0.00  0.00     0.000 C
ATOM     63   C  NAG B   4     -10.705  -0.525  34.1750  0.00  0.00     0.000 C
ENDBRANCH 49 61
BRANCH 48 64
ATOM     64  O4  BDP B   5      -7.385   2.918  34.8900  0.00  0.00     0.000 O
BRANCH 64 68
ATOM     65  C1  BDP B   5      -6.606   1.281  38.6430  0.00  0.00     0.000 C
ATOM     66  C2  BDP B   5      -8.075   1.493  38.3000  0.00  0.00     0.000 C
ATOM     67  C3  BDP B   5      -8.228   1.675  36.7950  0.00  0.00     0.000 C
ATOM     68  C4  BDP B   5      -7.347   2.822  36.3130  0.00  0.00     0.000 C
ATOM     69  C5  BDP B   5      -5.898   2.657  36.7510  0.00  0.00     0.000 C
ATOM     70  O5  BDP B   5      -5.823   2.383  38.1610  0.00  0.00     0.000 O
ATOM     71   O  BDP B   5      -8.848   0.382  38.7810  0.00  0.00     0.000 O
ATOM     73  HD  BDP B   5      -9.262  -0.320  39.0730  0.00  0.00     0.000 HD
ATOM     73   O  BDP B   5      -9.592   1.953  36.4590  0.00  0.00     0.000 O
ATOM     75  HD  BDP B   5     -10.007   1.251  36.7510  0.00  0.00     0.000 HD
BRANCH 69 75
ATOM     75   C  BDP B   5      -5.162   3.937  36.4470  0.00  0.00     0.000 C
ATOM     76   O  BDP B   5      -5.489   4.976  37.0550  0.00  0.00     0.000 OA
ATOM     77   O  BDP B   5      -4.248   3.922  35.6020  0.00  0.00     0.000 OA
ENDBRANCH 69 75
BRANCH 65 78
ATOM     78  O3  NAG B   6      -5.959   1.648  39.8640  0.00  0.00     0.000 O
BRANCH 78 81
ATOM     79  C1  NAG B   6      -3.446  -0.196  42.0130  0.00  0.00     0.000 C
ATOM     80  C2  NAG B   6      -4.786   0.078  41.3120  0.00  0.00     0.000 C
ATOM     81  C3  NAG B   6      -4.668   1.293  40.4070  0.00  0.00     0.000 C
ATOM     82  C4  NAG B   6      -4.075   2.484  41.1670  0.00  0.00     0.000 C
ATOM     83  C5  NAG B   6      -2.749   2.073  41.7960  0.00  0.00     0.000 C
ATOM     84  O5  NAG B   6      -3.012   0.994  42.6940  0.00  0.00     0.000 O
BRANCH 80 87
ATOM     85   N  NAG B   6      -5.169  -1.162  40.6430  0.00  0.00     0.000 N
ATOM     87  HD  NAG B   6      -5.482  -1.969  40.6830  0.00  0.00     0.000 HD
ATOM     87   C  NAG B   6      -6.425  -1.621  40.5760  0.00  0.00     0.000 C
ATOM     88   C  NAG B   6      -6.612  -2.894  39.8130  0.00  0.00     0.000 C
ATOM     89   O  NAG B   6      -7.376  -1.041  41.0870  0.00  0.00     0.000 OA
ENDBRANCH 80 87
ATOM     90   O  NAG B   6      -0.861   3.583  41.8680  0.00  0.00     0.000 O
ATOM     92  HD  NAG B   6      -1.116   2.756  41.8260  0.00  0.00     0.000 HD
ATOM     92   O  NAG B   6      -0.861   3.583  41.8680  0.00  0.00     0.000 O
ATOM     94  HD  NAG B   6      -1.116   2.756  41.8260  0.00  0.00     0.000 HD
ENDBRANCH 78 81
ENDBRANCH 65 78
ENDBRANCH 64 68
ENDBRANCH 48 64
ENDBRANCH 47 50
ENDBRANCH 34 47
ENDBRANCH 33 37
ENDBRANCH 17 33
ENDBRANCH 16 19
ENDBRANCH 1 16
TORSDOF 16
ENDMDL
MODEL 55
REMARK VINA RESULT:      -9.1     24.076     29.097
ROOT
ATOM      1  C1  BDP B   1      -6.418 -12.263   0.8500  0.00  0.00     0.000 C
ATOM      2  C2  BDP B   1      -5.020 -11.731   1.1120  0.00  0.00     0.000 C
ATOM      3  C3  BDP B   1      -4.204 -11.622  -0.1580  0.00  0.00     0.000 C
ATOM      4  C4  BDP B   1      -5.030 -11.717  -1.4370  0.00  0.00     0.000 C
ATOM      5  C5  BDP B   1      -6.027 -12.872  -1.4110  0.00  0.00     0.000 C
ATOM      6  O5  BDP B   1      -6.288 -13.333  -0.0740  0.00  0.00     0.000 O
ATOM      7   O  BDP B   1      -5.098 -10.449   1.7450  0.00  0.00     0.000 O
ATOM      9  HD  BDP B   1      -5.439  -9.911   2.3320  0.00  0.00     0.000 HD
ATOM      9   O  BDP B   1      -3.217 -12.665  -0.1970  0.00  0.00     0.000 O
ATOM     11  HD  BDP B   1      -3.559 -12.126   0.3890  0.00  0.00     0.000 HD
ATOM     11   O  BDP B   1      -5.722 -10.486  -1.6770  0.00  0.00     0.000 O
ATOM     13  HD  BDP B   1      -6.063  -9.948  -1.0910  0.00  0.00     0.000 HD
ENDROOT
BRANCH 5 13
ATOM     13   C  BDP B   1      -5.441 -13.977  -2.2180  0.00  0.00     0.000 C
ATOM     14   O  BDP B   1      -4.829 -14.885  -1.6180  0.00  0.00     0.000 OA
ATOM     15   O  BDP B   1      -5.602 -13.977  -3.4570  0.00  0.00     0.000 OA
ENDBRANCH 5 13
BRANCH 1 16
ATOM     16  O3  NAG B   2      -7.695 -11.687   1.1180  0.00  0.00     0.000 O
BRANCH 16 19
ATOM     17  C1  NAG B   2      -9.940 -12.793   3.7620  0.00  0.00     0.000 C
ATOM     18  C2  NAG B   2      -8.667 -12.071   3.3190  0.00  0.00     0.000 C
ATOM     19  C3  NAG B   2      -8.848 -11.470   1.9330  0.00  0.00     0.000 C
ATOM     20  C4  NAG B   2     -10.089 -12.027   1.2300  0.00  0.00     0.000 C
ATOM     21  C5  NAG B   2     -10.396 -13.502   1.5230  0.00  0.00     0.000 C
ATOM     22  O5  NAG B   2     -10.078 -13.895   2.8630  0.00  0.00     0.000 O
ATOM     23   O  NAG B   2     -11.215 -11.218   1.5860  0.00  0.00     0.000 O
ATOM     25  HD  NAG B   2     -10.982 -11.136   2.4160  0.00  0.00     0.000 HD
ATOM     25   C  NAG B   2      -9.635 -14.416   0.5510  0.00  0.00     0.000 C
ATOM     26   O  NAG B   2     -10.349 -14.594  -0.6800  0.00  0.00     0.000 O
ATOM     28  HD  NAG B   2     -10.117 -14.512   0.1500  0.00  0.00     0.000 HD
BRANCH 18 30
ATOM     28   N  NAG B   2      -8.368 -11.239   4.4840  0.00  0.00     0.000 N
ATOM     30  HD  NAG B   2      -8.416 -11.232   5.3490  0.00  0.00     0.000 HD
ATOM     30   C  NAG B   2      -9.007 -10.104   4.8020  0.00  0.00     0.000 C
ATOM     31   C  NAG B   2      -8.507  -9.424   6.0440  0.00  0.00     0.000 C
ATOM     32   O  NAG B   2      -9.922  -9.651   4.1540  0.00  0.00     0.000 OA
ENDBRANCH 18 30
BRANCH 17 33
ATOM     33  O4  BDP B   3     -10.642 -13.765   4.5660  0.00  0.00     0.000 O
BRANCH 33 37
ATOM     34  C1  BDP B   3     -10.814 -16.162   8.0970  0.00  0.00     0.000 C
ATOM     35  C2  BDP B   3     -12.138 -15.800   7.4360  0.00  0.00     0.000 C
ATOM     36  C3  BDP B   3     -11.991 -15.327   5.9940  0.00  0.00     0.000 C
ATOM     37  C4  BDP B   3     -10.842 -14.312   5.9030  0.00  0.00     0.000 C
ATOM     38  C5  BDP B   3      -9.579 -14.999   6.4570  0.00  0.00     0.000 C
ATOM     39  O5  BDP B   3      -9.813 -15.166   7.8550  0.00  0.00     0.000 O
ATOM     40   O  BDP B   3     -12.968 -16.959   7.5430  0.00  0.00     0.000 O
ATOM     42  HD  BDP B   3     -13.071 -16.622   8.3340  0.00  0.00     0.000 HD
ATOM     42   O  BDP B   3     -13.241 -14.749   5.6230  0.00  0.00     0.000 O
ATOM     44  HD  BDP B   3     -13.344 -14.411   6.4140  0.00  0.00     0.000 HD
BRANCH 38 44
ATOM     44   C  BDP B   3      -8.312 -14.231   6.2430  0.00  0.00     0.000 C
ATOM     45   O  BDP B   3      -8.187 -13.133   6.8290  0.00  0.00     0.000 OA
ATOM     46   O  BDP B   3      -7.426 -14.698   5.4950  0.00  0.00     0.000 OA
ENDBRANCH 38 44
BRANCH 34 47
ATOM     47  O3  NAG B   4     -10.780 -15.775   9.4700  0.00  0.00     0.000 O
BRANCH 47 50
ATOM     48  C1  NAG B   4      -9.679 -18.306  12.0260  0.00  0.00     0.000 C
ATOM     49  C2  NAG B   4     -10.589 -17.666  10.9920  0.00  0.00     0.000 C
ATOM     50  C3  NAG B   4      -9.904 -16.437  10.4060  0.00  0.00     0.000 C
ATOM     51  C4  NAG B   4      -9.488 -15.457  11.4920  0.00  0.00     0.000 C
ATOM     52  C5  NAG B   4      -8.635 -16.173  12.5380  0.00  0.00     0.000 C
ATOM     53  O5  NAG B   4      -9.315 -17.336  13.0270  0.00  0.00     0.000 O
ATOM     54   O  NAG B   4      -8.759 -14.382  10.8950  0.00  0.00     0.000 O
ATOM     56  HD  NAG B   4      -9.005 -14.207  11.7060  0.00  0.00     0.000 HD
ATOM     56   C  NAG B   4      -8.304 -15.252  13.7070  0.00  0.00     0.000 C
ATOM     57   O  NAG B   4      -9.525 -14.822  14.3240  0.00  0.00     0.000 O
ATOM     59  HD  NAG B   4      -9.771 -14.648  15.1350  0.00  0.00     0.000 HD
BRANCH 49 61
ATOM     59   N  NAG B   4     -11.816 -17.688  11.7890  0.00  0.00     0.000 N
ATOM     61  HD  NAG B   4     -11.560 -17.450  10.9970  0.00  0.00     0.000 HD
ATOM     61   O  NAG B   4     -13.193 -18.402  10.1470  0.00  0.00     0.000 OA
ATOM     62   C  NAG B   4     -12.992 -18.122  11.3200  0.00  0.00     0.000 C
ATOM     63   C  NAG B   4     -14.079 -18.272  12.3370  0.00  0.00     0.000 C
ENDBRANCH 49 61
BRANCH 48 64
ATOM     64  O4  BDP B   5      -9.515 -19.648  12.4750  0.00  0.00     0.000 O
BRANCH 64 68
ATOM     65  C1  BDP B   5      -8.690 -23.710  12.9110  0.00  0.00     0.000 C
ATOM     66  C2  BDP B   5      -7.703 -22.916  12.0660  0.00  0.00     0.000 C
ATOM     67  C3  BDP B   5      -7.872 -21.428  12.3430  0.00  0.00     0.000 C
ATOM     68  C4  BDP B   5      -9.317 -21.009  12.0950  0.00  0.00     0.000 C
ATOM     69  C5  BDP B   5     -10.306 -21.876  12.8630  0.00  0.00     0.000 C
ATOM     70  O5  BDP B   5     -10.032 -23.271  12.6450  0.00  0.00     0.000 O
ATOM     71   O  BDP B   5      -6.366 -23.359  12.3440  0.00  0.00     0.000 O
ATOM     73  HD  BDP B   5      -5.580 -23.649  12.5630  0.00  0.00     0.000 HD
ATOM     73   O  BDP B   5      -7.006 -20.657  11.5010  0.00  0.00     0.000 O
ATOM     75  HD  BDP B   5      -6.220 -20.948  11.7210  0.00  0.00     0.000 HD
BRANCH 69 75
ATOM     75   C  BDP B   5     -11.696 -21.554  12.3750  0.00  0.00     0.000 C
ATOM     76   O  BDP B   5     -12.624 -21.491  13.2060  0.00  0.00     0.000 OA
ATOM     77   O  BDP B   5     -11.878 -21.357  11.1590  0.00  0.00     0.000 OA
ENDBRANCH 69 75
BRANCH 65 78
ATOM     78  O3  NAG B   6      -9.277 -24.969  12.5710  0.00  0.00     0.000 O
BRANCH 78 81
ATOM     79  C1  NAG B   6      -9.623 -28.575  13.6730  0.00  0.00     0.000 C
ATOM     80  C2  NAG B   6      -9.054 -27.373  12.9030  0.00  0.00     0.000 C
ATOM     81  C3  NAG B   6      -9.692 -26.083  13.3920  0.00  0.00     0.000 C
ATOM     82  C4  NAG B   6     -11.220 -26.195  13.3880  0.00  0.00     0.000 C
ATOM     83  C5  NAG B   6     -11.641 -27.417  14.1960  0.00  0.00     0.000 C
ATOM     84  O5  NAG B   6     -11.059 -28.565  13.5770  0.00  0.00     0.000 O
BRANCH 80 87
ATOM     85   N  NAG B   6      -8.043 -27.378  11.8480  0.00  0.00     0.000 N
ATOM     87  HD  NAG B   6      -7.460 -26.954  11.3690  0.00  0.00     0.000 HD
ATOM     87   C  NAG B   6      -6.742 -27.142  12.0560  0.00  0.00     0.000 C
ATOM     88   C  NAG B   6      -5.866 -27.228  10.8480  0.00  0.00     0.000 C
ATOM     89   O  NAG B   6      -6.278 -26.885  13.1610  0.00  0.00     0.000 OA
ENDBRANCH 80 87
ATOM     90   O  NAG B   6     -13.593 -27.379  15.6230  0.00  0.00     0.000 O
ATOM     92  HD  NAG B   6     -12.804 -27.714  15.4960  0.00  0.00     0.000 HD
ATOM     92   O  NAG B   6     -13.593 -27.379  15.6230  0.00  0.00     0.000 O
ATOM     94  HD  NAG B   6     -12.804 -27.714  15.4960  0.00  0.00     0.000 HD
ENDBRANCH 78 81
ENDBRANCH 65 78
ENDBRANCH 64 68
ENDBRANCH 48 64
ENDBRANCH 47 50
ENDBRANCH 34 47
ENDBRANCH 33 37
ENDBRANCH 17 33
ENDBRANCH 16 19
ENDBRANCH 1 16
TORSDOF 16
ENDMDL
MODEL 56
REMARK VINA RESULT:      -9.0     34.823     39.651
ROOT
ATOM      1  C1  BDP B   1       1.724  -4.439  76.0690  0.00  0.00     0.000 C
ATOM      2  C2  BDP B   1       1.938  -5.693  76.8980  0.00  0.00     0.000 C
ATOM      3  C3  BDP B   1       0.694  -6.554  76.9610  0.00  0.00     0.000 C
ATOM      4  C4  BDP B   1      -0.366  -6.191  75.9270  0.00  0.00     0.000 C
ATOM      5  C5  BDP B   1      -0.627  -4.690  75.8510  0.00  0.00     0.000 C
ATOM      6  O5  BDP B   1       0.448  -3.923  76.4200  0.00  0.00     0.000 O
ATOM      7   O  BDP B   1       3.023  -6.455  76.3570  0.00  0.00     0.000 O
ATOM      9  HD  BDP B   1       3.820  -6.510  76.0230  0.00  0.00     0.000 HD
ATOM      9   O  BDP B   1       0.090  -6.448  78.2600  0.00  0.00     0.000 O
ATOM     11  HD  BDP B   1       0.887  -6.503  77.9260  0.00  0.00     0.000 HD
ATOM     11   O  BDP B   1       0.009  -6.682  74.6340  0.00  0.00     0.000 O
ATOM     13  HD  BDP B   1       0.806  -6.737  74.3000  0.00  0.00     0.000 HD
ENDROOT
BRANCH 5 13
ATOM     13   C  BDP B   1      -1.885  -4.423  76.6010  0.00  0.00     0.000 C
ATOM     14   O  BDP B   1      -1.801  -4.155  77.8170  0.00  0.00     0.000 OA
ATOM     15   O  BDP B   1      -2.975  -4.451  75.9900  0.00  0.00     0.000 OA
ENDBRANCH 5 13
BRANCH 1 16
ATOM     16  O3  NAG B   2       2.401  -3.971  74.9050  0.00  0.00     0.000 O
BRANCH 16 19
ATOM     17  C1  NAG B   2       3.989  -2.923  71.8010  0.00  0.00     0.000 C
ATOM     18  C2  NAG B   2       3.219  -2.583  73.0770  0.00  0.00     0.000 C
ATOM     19  C3  NAG B   2       3.568  -3.561  74.1890  0.00  0.00     0.000 C
ATOM     20  C4  NAG B   2       4.302  -4.792  73.6520  0.00  0.00     0.000 C
ATOM     21  C5  NAG B   2       3.850  -5.267  72.2640  0.00  0.00     0.000 C
ATOM     22  O5  NAG B   2       3.485  -4.195  71.3870  0.00  0.00     0.000 O
ATOM     23   O  NAG B   2       5.706  -4.513  73.6350  0.00  0.00     0.000 O
ATOM     25  HD  NAG B   2       5.612  -3.700  73.3520  0.00  0.00     0.000 HD
ATOM     25   C  NAG B   2       2.660  -6.230  72.3820  0.00  0.00     0.000 C
ATOM     26   O  NAG B   2       3.090  -7.579  72.6160  0.00  0.00     0.000 O
ATOM     28  HD  NAG B   2       2.996  -6.766  72.3330  0.00  0.00     0.000 HD
BRANCH 18 30
ATOM     28   N  NAG B   2       3.507  -1.150  73.1250  0.00  0.00     0.000 N
ATOM     30  HD  NAG B   2       3.700  -0.474  72.6180  0.00  0.00     0.000 HD
ATOM     30   C  NAG B   2       4.614  -0.606  73.6500  0.00  0.00     0.000 C
ATOM     31   C  NAG B   2       4.672   0.894  73.5880  0.00  0.00     0.000 C
ATOM     32   O  NAG B   2       5.511  -1.257  74.1350  0.00  0.00     0.000 OA
ENDBRANCH 18 30
BRANCH 17 33
ATOM     33  O4  BDP B   3       4.170  -2.879  70.3690  0.00  0.00     0.000 O
BRANCH 33 37
ATOM     34  C1  BDP B   3       3.171  -2.167  66.2770  0.00  0.00     0.000 C
ATOM     35  C2  BDP B   3       2.604  -1.202  67.3120  0.00  0.00     0.000 C
ATOM     36  C3  BDP B   3       3.323  -1.254  68.6550  0.00  0.00     0.000 C
ATOM     37  C4  BDP B   3       3.522  -2.719  69.0730  0.00  0.00     0.000 C
ATOM     38  C5  BDP B   3       4.291  -3.418  67.9350  0.00  0.00     0.000 C
ATOM     39  O5  BDP B   3       3.386  -3.470  66.8330  0.00  0.00     0.000 O
ATOM     40   O  BDP B   3       2.658   0.097  66.7180  0.00  0.00     0.000 O
ATOM     42  HD  BDP B   3       1.936  -0.210  66.3520  0.00  0.00     0.000 HD
ATOM     42   O  BDP B   3       2.506  -0.543  69.5840  0.00  0.00     0.000 O
ATOM     44  HD  BDP B   3       1.784  -0.850  69.2180  0.00  0.00     0.000 HD
BRANCH 38 44
ATOM     44   C  BDP B   3       4.766  -4.799  68.2670  0.00  0.00     0.000 C
ATOM     45   O  BDP B   3       5.952  -4.936  68.6390  0.00  0.00     0.000 OA
ATOM     46   O  BDP B   3       3.979  -5.764  68.1640  0.00  0.00     0.000 OA
ENDBRANCH 38 44
BRANCH 34 47
ATOM     47  O3  NAG B   4       2.148  -2.746  65.4700  0.00  0.00     0.000 O
BRANCH 47 50
ATOM     48  C1  NAG B   4       2.742  -3.125  61.7750  0.00  0.00     0.000 C
ATOM     49  C2  NAG B   4       2.473  -2.400  63.0820  0.00  0.00     0.000 C
ATOM     50  C3  NAG B   4       2.468  -3.406  64.2270  0.00  0.00     0.000 C
ATOM     51  C4  NAG B   4       1.475  -4.530  63.9790  0.00  0.00     0.000 C
ATOM     52  C5  NAG B   4       1.750  -5.175  62.6210  0.00  0.00     0.000 C
ATOM     53  O5  NAG B   4       1.776  -4.179  61.5910  0.00  0.00     0.000 O
ATOM     54   O  NAG B   4       1.593  -5.494  65.0290  0.00  0.00     0.000 O
ATOM     56  HD  NAG B   4       0.875  -5.602  64.5560  0.00  0.00     0.000 HD
ATOM     56   C  NAG B   4       0.697  -6.224  62.2830  0.00  0.00     0.000 C
ATOM     57   O  NAG B   4      -0.592  -5.597  62.2440  0.00  0.00     0.000 O
ATOM     59  HD  NAG B   4      -1.309  -5.705  61.7710  0.00  0.00     0.000 HD
BRANCH 49 61
ATOM     59   N  NAG B   4       3.403  -1.280  62.9280  0.00  0.00     0.000 N
ATOM     61  HD  NAG B   4       2.573  -1.463  62.7620  0.00  0.00     0.000 HD
ATOM     61   O  NAG B   4       1.977   0.348  63.5770  0.00  0.00     0.000 OA
ATOM     62   C  NAG B   4       3.099  -0.019  63.2570  0.00  0.00     0.000 C
ATOM     63   C  NAG B   4       4.239   0.949  63.2330  0.00  0.00     0.000 C
ENDBRANCH 49 61
BRANCH 48 64
ATOM     64  O4  BDP B   5       3.360  -2.728  60.5550  0.00  0.00     0.000 O
BRANCH 64 68
ATOM     65  C1  BDP B   5       5.968  -2.307  57.3300  0.00  0.00     0.000 C
ATOM     66  C2  BDP B   5       4.610  -2.920  57.0140  0.00  0.00     0.000 C
ATOM     67  C3  BDP B   5       3.637  -2.620  58.1470  0.00  0.00     0.000 C
ATOM     68  C4  BDP B   5       4.204  -3.118  59.4720  0.00  0.00     0.000 C
ATOM     69  C5  BDP B   5       5.607  -2.584  59.7330  0.00  0.00     0.000 C
ATOM     70  O5  BDP B   5       6.452  -2.802  58.5890  0.00  0.00     0.000 O
ATOM     71   O  BDP B   5       4.134  -2.414  55.7580  0.00  0.00     0.000 O
ATOM     73  HD  BDP B   5       3.885  -2.063  55.0060  0.00  0.00     0.000 HD
ATOM     73   O  BDP B   5       2.374  -3.254  57.9060  0.00  0.00     0.000 O
ATOM     75  HD  BDP B   5       2.126  -2.902  57.1550  0.00  0.00     0.000 HD
BRANCH 69 75
ATOM     75   C  BDP B   5       6.176  -3.311  60.9240  0.00  0.00     0.000 C
ATOM     76   O  BDP B   5       6.292  -2.695  62.0030  0.00  0.00     0.000 OA
ATOM     77   O  BDP B   5       6.509  -4.504  60.8010  0.00  0.00     0.000 OA
ENDBRANCH 69 75
BRANCH 65 78
ATOM     78  O3  NAG B   6       7.241  -2.800  56.9050  0.00  0.00     0.000 O
BRANCH 78 81
ATOM     79  C1  NAG B   6      10.368  -0.950  55.8390  0.00  0.00     0.000 C
ATOM     80  C2  NAG B   6       8.900  -1.406  55.7920  0.00  0.00     0.000 C
ATOM     81  C3  NAG B   6       8.569  -2.243  57.0170  0.00  0.00     0.000 C
ATOM     82  C4  NAG B   6       9.594  -3.366  57.2030  0.00  0.00     0.000 C
ATOM     83  C5  NAG B   6      10.996  -2.770  57.2450  0.00  0.00     0.000 C
ATOM     84  O5  NAG B   6      11.218  -2.099  56.0040  0.00  0.00     0.000 O
BRANCH 80 87
ATOM     85   N  NAG B   6       8.103  -0.195  55.6120  0.00  0.00     0.000 N
ATOM     87  HD  NAG B   6       7.805   0.435  55.0990  0.00  0.00     0.000 HD
ATOM     87   C  NAG B   6       7.003  -0.129  54.8520  0.00  0.00     0.000 C
ATOM     88   C  NAG B   6       6.310   1.196  54.8280  0.00  0.00     0.000 C
ATOM     89   O  NAG B   6       6.569  -1.085  54.2200  0.00  0.00     0.000 OA
ENDBRANCH 80 87
ATOM     90   O  NAG B   6      12.688  -3.622  58.7490  0.00  0.00     0.000 O
ATOM     92  HD  NAG B   6      12.387  -2.928  58.3280  0.00  0.00     0.000 HD
ATOM     92   O  NAG B   6      12.688  -3.622  58.7490  0.00  0.00     0.000 O
ATOM     94  HD  NAG B   6      12.387  -2.928  58.3280  0.00  0.00     0.000 HD
ENDBRANCH 78 81
ENDBRANCH 65 78
ENDBRANCH 64 68
ENDBRANCH 48 64
ENDBRANCH 47 50
ENDBRANCH 34 47
ENDBRANCH 33 37
ENDBRANCH 17 33
ENDBRANCH 16 19
ENDBRANCH 1 16
TORSDOF 16
ENDMDL
MODEL 57
REMARK VINA RESULT:      -9.0     28.581     32.327
ROOT
ATOM      1  C1  BDP B   1       2.083  18.846  16.7770  0.00  0.00     0.000 C
ATOM      2  C2  BDP B   1       3.136  19.109  17.8390  0.00  0.00     0.000 C
ATOM      3  C3  BDP B   1       2.753  18.519  19.1790  0.00  0.00     0.000 C
ATOM      4  C4  BDP B   1       1.612  17.511  19.1110  0.00  0.00     0.000 C
ATOM      5  C5  BDP B   1       0.439  18.002  18.2680  0.00  0.00     0.000 C
ATOM      6  O5  BDP B   1       0.819  19.070  17.3820  0.00  0.00     0.000 O
ATOM      7   O  BDP B   1       4.395  18.572  17.4190  0.00  0.00     0.000 O
ATOM      9  HD  BDP B   1       5.002  18.441  16.8150  0.00  0.00     0.000 HD
ATOM      9   O  BDP B   1       2.357  19.566  20.0800  0.00  0.00     0.000 O
ATOM     11  HD  BDP B   1       2.964  19.435  19.4760  0.00  0.00     0.000 HD
ATOM     11   O  BDP B   1       2.083  16.257  18.6020  0.00  0.00     0.000 O
ATOM     13  HD  BDP B   1       2.689  16.127  17.9980  0.00  0.00     0.000 HD
ENDROOT
BRANCH 5 13
ATOM     13   C  BDP B   1      -0.611  18.479  19.2080  0.00  0.00     0.000 C
ATOM     14   O  BDP B   1      -1.430  17.646  19.6500  0.00  0.00     0.000 OA
ATOM     15   O  BDP B   1      -0.625  19.683  19.5450  0.00  0.00     0.000 OA
ENDBRANCH 5 13
BRANCH 1 16
ATOM     16  O3  NAG B   2       2.179  18.172  15.5230  0.00  0.00     0.000 O
BRANCH 16 19
ATOM     17  C1  NAG B   2       3.139  15.224  13.6140  0.00  0.00     0.000 C
ATOM     18  C2  NAG B   2       2.631  15.858  14.9100  0.00  0.00     0.000 C
ATOM     19  C3  NAG B   2       1.842  17.125  14.6120  0.00  0.00     0.000 C
ATOM     20  C4  NAG B   2       2.058  17.602  13.1740  0.00  0.00     0.000 C
ATOM     21  C5  NAG B   2       3.469  17.374  12.6160  0.00  0.00     0.000 C
ATOM     22  O5  NAG B   2       4.076  16.163  13.0810  0.00  0.00     0.000 O
ATOM     23   O  NAG B   2       1.094  16.960  12.3320  0.00  0.00     0.000 O
ATOM     25  HD  NAG B   2       1.160  16.191  12.7250  0.00  0.00     0.000 HD
ATOM     25   C  NAG B   2       4.389  18.551  12.9720  0.00  0.00     0.000 C
ATOM     26   O  NAG B   2       4.273  19.621  12.0240  0.00  0.00     0.000 O
ATOM     28  HD  NAG B   2       4.339  18.852  12.4160  0.00  0.00     0.000 HD
BRANCH 18 30
ATOM     28   N  NAG B   2       1.250  15.452  15.1680  0.00  0.00     0.000 N
ATOM     30  HD  NAG B   2       0.639  15.459  15.7820  0.00  0.00     0.000 HD
ATOM     30   C  NAG B   2       0.830  14.183  15.2770  0.00  0.00     0.000 C
ATOM     31   C  NAG B   2      -0.641  14.024  15.5340  0.00  0.00     0.000 C
ATOM     32   O  NAG B   2       1.566  13.228  15.1850  0.00  0.00     0.000 OA
ENDBRANCH 18 30
BRANCH 17 33
ATOM     33  O4  BDP B   3       4.046  14.375  12.8780  0.00  0.00     0.000 O
BRANCH 33 37
ATOM     34  C1  BDP B   3       7.693  12.444  11.7780  0.00  0.00     0.000 C
ATOM     35  C2  BDP B   3       7.204  12.246  13.2080  0.00  0.00     0.000 C
ATOM     36  C3  BDP B   3       5.732  12.592  13.4030  0.00  0.00     0.000 C
ATOM     37  C4  BDP B   3       5.426  13.932  12.7170  0.00  0.00     0.000 C
ATOM     38  C5  BDP B   3       5.835  13.794  11.2380  0.00  0.00     0.000 C
ATOM     39  O5  BDP B   3       7.259  13.698  11.2400  0.00  0.00     0.000 O
ATOM     40   O  BDP B   3       7.489  10.887  13.5440  0.00  0.00     0.000 O
ATOM     42  HD  BDP B   3       8.267  11.245  13.6740  0.00  0.00     0.000 HD
ATOM     42   O  BDP B   3       5.508  12.652  14.8100  0.00  0.00     0.000 O
ATOM     44  HD  BDP B   3       6.286  13.010  14.9410  0.00  0.00     0.000 HD
BRANCH 38 44
ATOM     44   C  BDP B   3       5.404  14.933  10.3680  0.00  0.00     0.000 C
ATOM     45   O  BDP B   3       4.434  14.749   9.6010  0.00  0.00     0.000 OA
ATOM     46   O  BDP B   3       6.016  16.022  10.4270  0.00  0.00     0.000 OA
ENDBRANCH 38 44
BRANCH 34 47
ATOM     47  O3  NAG B   4       9.024  12.955  11.7350  0.00  0.00     0.000 O
BRANCH 47 50
ATOM     48  C1  NAG B   4      11.353  13.100   8.7850  0.00  0.00     0.000 C
ATOM     49  C2  NAG B   4      10.723  12.530  10.0440  0.00  0.00     0.000 C
ATOM     50  C3  NAG B   4       9.592  13.443  10.5030  0.00  0.00     0.000 C
ATOM     51  C4  NAG B   4      10.072  14.873  10.6960  0.00  0.00     0.000 C
ATOM     52  C5  NAG B   4      10.758  15.367   9.4230  0.00  0.00     0.000 C
ATOM     53  O5  NAG B   4      11.787  14.453   9.0220  0.00  0.00     0.000 O
ATOM     54   O  NAG B   4       8.951  15.700  11.0200  0.00  0.00     0.000 O
ATOM     56  HD  NAG B   4       9.709  16.089  11.1750  0.00  0.00     0.000 HD
ATOM     56   C  NAG B   4      11.363  16.752   9.6210  0.00  0.00     0.000 C
ATOM     57   O  NAG B   4      12.333  16.692  10.6750  0.00  0.00     0.000 O
ATOM     59  HD  NAG B   4      13.091  17.081  10.8310  0.00  0.00     0.000 HD
BRANCH 49 61
ATOM     59   N  NAG B   4      12.050  11.952  10.2580  0.00  0.00     0.000 N
ATOM     61  HD  NAG B   4      11.329  12.110  10.7110  0.00  0.00     0.000 HD
ATOM     61   O  NAG B   4      11.385  10.204  11.5240  0.00  0.00     0.000 OA
ATOM     62   C  NAG B   4      12.258  10.805  10.9150  0.00  0.00     0.000 C
ATOM     63   C  NAG B   4      13.651  10.264  10.8480  0.00  0.00     0.000 C
ENDBRANCH 49 61
BRANCH 48 64
ATOM     64  O4  BDP B   5      12.009  12.500   7.6710  0.00  0.00     0.000 O
BRANCH 64 68
ATOM     65  C1  BDP B   5      10.470   9.447   5.2870  0.00  0.00     0.000 C
ATOM     66  C2  BDP B   5      11.907   9.266   5.7570  0.00  0.00     0.000 C
ATOM     67  C3  BDP B   5      12.183  10.196   6.9310  0.00  0.00     0.000 C
ATOM     68  C4  BDP B   5      11.877  11.638   6.5420  0.00  0.00     0.000 C
ATOM     69  C5  BDP B   5      10.472  11.794   5.9730  0.00  0.00     0.000 C
ATOM     70  O5  BDP B   5      10.234  10.821   4.9410  0.00  0.00     0.000 O
ATOM     71   O  BDP B   5      12.131   7.891   6.1060  0.00  0.00     0.000 O
ATOM     73  HD  BDP B   5      12.206   7.056   6.3210  0.00  0.00     0.000 HD
ATOM     73   O  BDP B   5      13.553  10.098   7.3400  0.00  0.00     0.000 O
ATOM     75  HD  BDP B   5      13.628   9.263   7.5550  0.00  0.00     0.000 HD
BRANCH 69 75
ATOM     75   C  BDP B   5      10.345  13.181   5.3970  0.00  0.00     0.000 C
ATOM     76   O  BDP B   5       9.517  13.966   5.9000  0.00  0.00     0.000 OA
ATOM     77   O  BDP B   5      11.073  13.505   4.4400  0.00  0.00     0.000 OA
ENDBRANCH 69 75
BRANCH 65 78
ATOM     78  O3  NAG B   6       9.984   9.264   3.9550  0.00  0.00     0.000 O
BRANCH 78 81
ATOM     79  C1  NAG B   6       7.095   7.376   2.3980  0.00  0.00     0.000 C
ATOM     80  C2  NAG B   6       8.452   7.577   3.0900  0.00  0.00     0.000 C
ATOM     81  C3  NAG B   6       8.650   9.042   3.4460  0.00  0.00     0.000 C
ATOM     82  C4  NAG B   6       8.400   9.938   2.2280  0.00  0.00     0.000 C
ATOM     83  C5  NAG B   6       7.018   9.640   1.6560  0.00  0.00     0.000 C
ATOM     84  O5  NAG B   6       6.997   8.265   1.2720  0.00  0.00     0.000 O
BRANCH 80 87
ATOM     85   N  NAG B   6       9.535   6.667   3.4530  0.00  0.00     0.000 N
ATOM     87  HD  NAG B   6      10.201   6.463   3.9690  0.00  0.00     0.000 HD
ATOM     87   C  NAG B   6       9.578   5.973   4.5970  0.00  0.00     0.000 C
ATOM     88   C  NAG B   6      10.757   5.068   4.7630  0.00  0.00     0.000 C
ATOM     89   O  NAG B   6       8.709   6.048   5.4580  0.00  0.00     0.000 OA
ENDBRANCH 80 87
ATOM     90   O  NAG B   6       5.597  11.401   0.8030  0.00  0.00     0.000 O
ATOM     92  HD  NAG B   6       5.625  10.623   1.1840  0.00  0.00     0.000 HD
ATOM     92   O  NAG B   6       5.597  11.401   0.8030  0.00  0.00     0.000 O
ATOM     94  HD  NAG B   6       5.625  10.623   1.1840  0.00  0.00     0.000 HD
ENDBRANCH 78 81
ENDBRANCH 65 78
ENDBRANCH 64 68
ENDBRANCH 48 64
ENDBRANCH 47 50
ENDBRANCH 34 47
ENDBRANCH 33 37
ENDBRANCH 17 33
ENDBRANCH 16 19
ENDBRANCH 1 16
TORSDOF 16
ENDMDL
MODEL 58
REMARK VINA RESULT:      -9.0     27.234     32.357
ROOT
ATOM      1  C1  BDP B   1       0.231 -37.719  25.6700  0.00  0.00     0.000 C
ATOM      2  C2  BDP B   1      -0.157 -37.418  24.2330  0.00  0.00     0.000 C
ATOM      3  C3  BDP B   1       0.903 -37.868  23.2510  0.00  0.00     0.000 C
ATOM      4  C4  BDP B   1       1.937 -38.818  23.8440  0.00  0.00     0.000 C
ATOM      5  C5  BDP B   1       2.471 -38.343  25.1910  0.00  0.00     0.000 C
ATOM      6  O5  BDP B   1       1.603 -37.378  25.8090  0.00  0.00     0.000 O
ATOM      7   O  BDP B   1      -1.402 -38.054  23.9220  0.00  0.00     0.000 O
ATOM      9  HD  BDP B   1      -2.216 -38.269  24.1230  0.00  0.00     0.000 HD
ATOM      9   O  BDP B   1       1.605 -36.727  22.7320  0.00  0.00     0.000 O
ATOM     11  HD  BDP B   1       0.791 -36.941  22.9330  0.00  0.00     0.000 HD
ATOM     11   O  BDP B   1       1.387 -40.134  23.9780  0.00  0.00     0.000 O
ATOM     13  HD  BDP B   1       0.572 -40.348  24.1790  0.00  0.00     0.000 HD
ENDROOT
BRANCH 5 13
ATOM     13   C  BDP B   1       3.806 -37.732  24.9460  0.00  0.00     0.000 C
ATOM     14   O  BDP B   1       4.395 -37.195  25.9070  0.00  0.00     0.000 OA
ATOM     15   O  BDP B   1       4.304 -37.798  23.8010  0.00  0.00     0.000 OA
ENDBRANCH 5 13
BRANCH 1 16
ATOM     16  O3  NAG B   2      -0.426 -38.504  26.6630  0.00  0.00     0.000 O
BRANCH 16 19
ATOM     17  C1  NAG B   2      -3.366 -37.802  28.6920  0.00  0.00     0.000 C
ATOM     18  C2  NAG B   2      -2.700 -37.930  27.3210  0.00  0.00     0.000 C
ATOM     19  C3  NAG B   2      -1.583 -38.962  27.3640  0.00  0.00     0.000 C
ATOM     20  C4  NAG B   2      -1.205 -39.330  28.8010  0.00  0.00     0.000 C
ATOM     21  C5  NAG B   2      -1.285 -38.177  29.8110  0.00  0.00     0.000 C
ATOM     22  O5  NAG B   2      -2.358 -37.264  29.5500  0.00  0.00     0.000 O
ATOM     23   O  NAG B   2      -2.042 -40.409  29.2300  0.00  0.00     0.000 O
ATOM     25  HD  NAG B   2      -2.759 -40.092  28.8610  0.00  0.00     0.000 HD
ATOM     25   C  NAG B   2       0.033 -37.389  29.8380  0.00  0.00     0.000 C
ATOM     26   O  NAG B   2       0.992 -37.989  30.7200  0.00  0.00     0.000 O
ATOM     28  HD  NAG B   2       0.276 -37.672  30.3510  0.00  0.00     0.000 HD
BRANCH 18 30
ATOM     28   N  NAG B   2      -3.389 -39.158  26.9280  0.00  0.00     0.000 N
ATOM     30  HD  NAG B   2      -3.333 -39.828  26.3810  0.00  0.00     0.000 HD
ATOM     30   C  NAG B   2      -4.568 -39.208  26.2920  0.00  0.00     0.000 C
ATOM     31   C  NAG B   2      -5.074 -40.593  26.0060  0.00  0.00     0.000 C
ATOM     32   O  NAG B   2      -5.188 -38.224  25.9600  0.00  0.00     0.000 OA
ENDBRANCH 18 30
BRANCH 17 33
ATOM     33  O4  BDP B   3      -4.143 -37.078  29.6710  0.00  0.00     0.000 O
BRANCH 33 37
ATOM     34  C1  BDP B   3      -7.369 -36.145  32.3100  0.00  0.00     0.000 C
ATOM     35  C2  BDP B   3      -6.516 -37.361  32.6540  0.00  0.00     0.000 C
ATOM     36  C3  BDP B   3      -5.169 -37.384  31.9410  0.00  0.00     0.000 C
ATOM     37  C4  BDP B   3      -5.371 -37.045  30.4560  0.00  0.00     0.000 C
ATOM     38  C5  BDP B   3      -6.079 -35.678  30.3910  0.00  0.00     0.000 C
ATOM     39  O5  BDP B   3      -7.394 -35.900  30.8990  0.00  0.00     0.000 O
ATOM     40   O  BDP B   3      -6.375 -37.360  34.0760  0.00  0.00     0.000 O
ATOM     42  HD  BDP B   3      -7.161 -37.715  33.9990  0.00  0.00     0.000 HD
ATOM     42   O  BDP B   3      -4.634 -38.694  32.1180  0.00  0.00     0.000 O
ATOM     44  HD  BDP B   3      -5.420 -39.050  32.0410  0.00  0.00     0.000 HD
BRANCH 38 44
ATOM     44   C  BDP B   3      -6.159 -35.087  29.0170  0.00  0.00     0.000 C
ATOM     45   O  BDP B   3      -7.194 -35.301  28.3480  0.00  0.00     0.000 OA
ATOM     46   O  BDP B   3      -5.205 -34.408  28.5800  0.00  0.00     0.000 OA
ENDBRANCH 38 44
BRANCH 34 47
ATOM     47  O3  NAG B   4      -8.754 -36.474  32.2160  0.00  0.00     0.000 O
BRANCH 47 50
ATOM     48  C1  NAG B   4     -11.594 -34.029  31.8900  0.00  0.00     0.000 C
ATOM     49  C2  NAG B   4     -10.576 -34.905  32.6000  0.00  0.00     0.000 C
ATOM     50  C3  NAG B   4      -9.685 -35.584  31.5660  0.00  0.00     0.000 C
ATOM     51  C4  NAG B   4     -10.503 -36.363  30.5480  0.00  0.00     0.000 C
ATOM     52  C5  NAG B   4     -11.555 -35.448  29.9190  0.00  0.00     0.000 C
ATOM     53  O5  NAG B   4     -12.338 -34.813  30.9380  0.00  0.00     0.000 O
ATOM     54   O  NAG B   4      -9.625 -36.885  29.5470  0.00  0.00     0.000 O
ATOM     56  HD  NAG B   4     -10.412 -37.245  29.5210  0.00  0.00     0.000 HD
ATOM     56   C  NAG B   4     -12.475 -36.224  28.9840  0.00  0.00     0.000 C
ATOM     57   O  NAG B   4     -13.142 -37.251  29.7310  0.00  0.00     0.000 O
ATOM     59  HD  NAG B   4     -13.929 -37.611  29.7050  0.00  0.00     0.000 HD
BRANCH 49 61
ATOM     59   N  NAG B   4     -10.030 -34.000  33.6120  0.00  0.00     0.000 N
ATOM     61  HD  NAG B   4     -10.678 -34.568  33.5300  0.00  0.00     0.000 HD
ATOM     61   O  NAG B   4     -10.214 -35.410  35.3660  0.00  0.00     0.000 OA
ATOM     62   C  NAG B   4      -9.829 -34.354  34.8860  0.00  0.00     0.000 C
ATOM     63   C  NAG B   4      -9.067 -33.372  35.7190  0.00  0.00     0.000 C
ENDBRANCH 49 61
BRANCH 48 64
ATOM     64  O4  BDP B   5     -12.269 -32.831  32.2630  0.00  0.00     0.000 O
BRANCH 64 68
ATOM     65  C1  BDP B   5     -15.230 -30.154  33.4630  0.00  0.00     0.000 C
ATOM     66  C2  BDP B   5     -13.965 -30.175  34.3120  0.00  0.00     0.000 C
ATOM     67  C3  BDP B   5     -12.839 -30.848  33.5370  0.00  0.00     0.000 C
ATOM     68  C4  BDP B   5     -13.266 -32.244  33.0970  0.00  0.00     0.000 C
ATOM     69  C5  BDP B   5     -14.588 -32.228  32.3390  0.00  0.00     0.000 C
ATOM     70  O5  BDP B   5     -15.582 -31.490  33.0710  0.00  0.00     0.000 O
ATOM     71   O  BDP B   5     -13.619 -28.834  34.6930  0.00  0.00     0.000 O
ATOM     73  HD  BDP B   5     -13.445 -28.006  34.8780  0.00  0.00     0.000 HD
ATOM     73   O  BDP B   5     -11.661 -30.947  34.3460  0.00  0.00     0.000 O
ATOM     75  HD  BDP B   5     -11.487 -30.119  34.5310  0.00  0.00     0.000 HD
BRANCH 69 75
ATOM     75   C  BDP B   5     -15.048 -33.653  32.1610  0.00  0.00     0.000 C
ATOM     76   O  BDP B   5     -14.945 -34.441  33.1220  0.00  0.00     0.000 OA
ATOM     77   O  BDP B   5     -15.521 -34.001  31.0630  0.00  0.00     0.000 OA
ENDBRANCH 69 75
BRANCH 65 78
ATOM     78  O3  NAG B   6     -16.576 -30.184  33.9450  0.00  0.00     0.000 O
BRANCH 78 81
ATOM     79  C1  NAG B   6     -20.255 -29.307  33.7870  0.00  0.00     0.000 C
ATOM     80  C2  NAG B   6     -18.925 -29.746  34.4200  0.00  0.00     0.000 C
ATOM     81  C3  NAG B   6     -17.797 -29.630  33.4080  0.00  0.00     0.000 C
ATOM     82  C4  NAG B   6     -18.161 -30.338  32.1000  0.00  0.00     0.000 C
ATOM     83  C5  NAG B   6     -19.489 -29.796  31.5830  0.00  0.00     0.000 C
ATOM     84  O5  NAG B   6     -20.479 -30.055  32.5790  0.00  0.00     0.000 O
BRANCH 80 87
ATOM     85   N  NAG B   6     -18.383 -30.207  35.6950  0.00  0.00     0.000 N
ATOM     87  HD  NAG B   6     -17.764 -30.176  36.3000  0.00  0.00     0.000 HD
ATOM     87   C  NAG B   6     -18.255 -29.432  36.7780  0.00  0.00     0.000 C
ATOM     88   C  NAG B   6     -17.709 -30.105  37.9970  0.00  0.00     0.000 C
ATOM     89   O  NAG B   6     -18.572 -28.248  36.7950  0.00  0.00     0.000 OA
ENDBRANCH 80 87
ATOM     90   O  NAG B   6     -19.874 -29.433  29.2230  0.00  0.00     0.000 O
ATOM     92  HD  NAG B   6     -20.063 -29.176  30.0280  0.00  0.00     0.000 HD
ATOM     92   O  NAG B   6     -19.874 -29.433  29.2230  0.00  0.00     0.000 O
ATOM     94  HD  NAG B   6     -20.063 -29.176  30.0280  0.00  0.00     0.000 HD
ENDBRANCH 78 81
ENDBRANCH 65 78
ENDBRANCH 64 68
ENDBRANCH 48 64
ENDBRANCH 47 50
ENDBRANCH 34 47
ENDBRANCH 33 37
ENDBRANCH 17 33
ENDBRANCH 16 19
ENDBRANCH 1 16
TORSDOF 16
ENDMDL
MODEL 59
REMARK VINA RESULT:      -9.0     26.273     29.125
ROOT
ATOM      1  C1  BDP B   1     -20.547  -3.176  34.5030  0.00  0.00     0.000 C
ATOM      2  C2  BDP B   1     -20.056  -3.943  33.2870  0.00  0.00     0.000 C
ATOM      3  C3  BDP B   1     -18.864  -3.276  32.6360  0.00  0.00     0.000 C
ATOM      4  C4  BDP B   1     -18.195  -2.214  33.5020  0.00  0.00     0.000 C
ATOM      5  C5  BDP B   1     -19.197  -1.257  34.1410  0.00  0.00     0.000 C
ATOM      6  O5  BDP B   1     -20.528  -1.799  34.1600  0.00  0.00     0.000 O
ATOM      7   O  BDP B   1     -19.713  -5.281  33.6620  0.00  0.00     0.000 O
ATOM      9  HD  BDP B   1     -19.878  -6.016  34.0890  0.00  0.00     0.000 HD
ATOM      9   O  BDP B   1     -19.264  -2.647  31.4080  0.00  0.00     0.000 O
ATOM     11  HD  BDP B   1     -19.429  -3.382  31.8350  0.00  0.00     0.000 HD
ATOM     11   O  BDP B   1     -17.398  -2.831  34.5210  0.00  0.00     0.000 O
ATOM     13  HD  BDP B   1     -17.563  -3.566  34.9480  0.00  0.00     0.000 HD
ENDROOT
BRANCH 5 13
ATOM     13   C  BDP B   1     -19.176  -0.001  33.3420  0.00  0.00     0.000 C
ATOM     14   O  BDP B   1     -18.282   0.137  32.4820  0.00  0.00     0.000 OA
ATOM     15   O  BDP B   1     -20.063   0.858  33.5370  0.00  0.00     0.000 OA
ENDBRANCH 5 13
BRANCH 1 16
ATOM     16  O3  NAG B   2     -20.682  -3.584  35.8630  0.00  0.00     0.000 O
BRANCH 16 19
ATOM     17  C1  NAG B   2     -18.965  -2.480  38.8780  0.00  0.00     0.000 C
ATOM     18  C2  NAG B   2     -19.792  -2.164  37.6320  0.00  0.00     0.000 C
ATOM     19  C3  NAG B   2     -20.688  -3.339  37.2700  0.00  0.00     0.000 C
ATOM     20  C4  NAG B   2     -20.281  -4.613  38.0170  0.00  0.00     0.000 C
ATOM     21  C5  NAG B   2     -18.772  -4.781  38.2460  0.00  0.00     0.000 C
ATOM     22  O5  NAG B   2     -18.093  -3.543  38.4890  0.00  0.00     0.000 O
ATOM     23   O  NAG B   2     -20.968  -4.642  39.2730  0.00  0.00     0.000 O
ATOM     25  HD  NAG B   2     -20.864  -3.797  39.4290  0.00  0.00     0.000 HD
ATOM     25   C  NAG B   2     -18.116  -5.472  37.0420  0.00  0.00     0.000 C
ATOM     26   O  NAG B   2     -18.209  -6.900  37.1340  0.00  0.00     0.000 O
ATOM     28  HD  NAG B   2     -18.105  -6.055  37.2910  0.00  0.00     0.000 HD
BRANCH 18 30
ATOM     28   N  NAG B   2     -20.336  -1.491  38.8110  0.00  0.00     0.000 N
ATOM     30  HD  NAG B   2     -20.775  -1.643  39.5420  0.00  0.00     0.000 HD
ATOM     30   C  NAG B   2     -21.366  -0.633  38.7990  0.00  0.00     0.000 C
ATOM     31   C  NAG B   2     -21.731  -0.066  40.1420  0.00  0.00     0.000 C
ATOM     32   O  NAG B   2     -21.971  -0.333  37.7970  0.00  0.00     0.000 OA
ENDBRANCH 18 30
BRANCH 17 33
ATOM     33  O4  BDP B   3     -17.823  -2.278  39.7390  0.00  0.00     0.000 O
BRANCH 33 37
ATOM     34  C1  BDP B   3     -15.682  -3.001  43.3630  0.00  0.00     0.000 C
ATOM     35  C2  BDP B   3     -14.862  -2.846  42.0880  0.00  0.00     0.000 C
ATOM     36  C3  BDP B   3     -15.626  -2.185  40.9470  0.00  0.00     0.000 C
ATOM     37  C4  BDP B   3     -17.022  -2.816  40.8310  0.00  0.00     0.000 C
ATOM     38  C5  BDP B   3     -17.708  -2.662  42.2020  0.00  0.00     0.000 C
ATOM     39  O5  BDP B   3     -16.990  -3.518  43.0910  0.00  0.00     0.000 O
ATOM     40   O  BDP B   3     -13.691  -2.113  42.4520  0.00  0.00     0.000 O
ATOM     42  HD  BDP B   3     -13.463  -2.907  42.7110  0.00  0.00     0.000 HD
ATOM     42   O  BDP B   3     -14.853  -2.386  39.7650  0.00  0.00     0.000 O
ATOM     44  HD  BDP B   3     -14.624  -3.181  40.0240  0.00  0.00     0.000 HD
BRANCH 38 44
ATOM     44   C  BDP B   3     -19.160  -3.026  42.2110  0.00  0.00     0.000 C
ATOM     45   O  BDP B   3     -19.986  -2.131  42.4980  0.00  0.00     0.000 OA
ATOM     46   O  BDP B   3     -19.506  -4.196  41.9370  0.00  0.00     0.000 OA
ENDBRANCH 38 44
BRANCH 34 47
ATOM     47  O3  NAG B   4     -15.403  -4.229  44.0330  0.00  0.00     0.000 O
BRANCH 47 50
ATOM     48  C1  NAG B   4     -14.615  -3.937  47.6990  0.00  0.00     0.000 C
ATOM     49  C2  NAG B   4     -14.428  -3.727  46.2070  0.00  0.00     0.000 C
ATOM     50  C3  NAG B   4     -15.595  -4.358  45.4560  0.00  0.00     0.000 C
ATOM     51  C4  NAG B   4     -15.762  -5.826  45.8140  0.00  0.00     0.000 C
ATOM     52  C5  NAG B   4     -15.875  -5.981  47.3310  0.00  0.00     0.000 C
ATOM     53  O5  NAG B   4     -14.770  -5.341  47.9820  0.00  0.00     0.000 O
ATOM     54   O  NAG B   4     -16.931  -6.334  45.1670  0.00  0.00     0.000 O
ATOM     56  HD  NAG B   4     -16.424  -6.962  45.4790  0.00  0.00     0.000 HD
ATOM     56   C  NAG B   4     -15.917  -7.450  47.7360  0.00  0.00     0.000 C
ATOM     57   O  NAG B   4     -14.713  -8.092  47.2950  0.00  0.00     0.000 O
ATOM     59  HD  NAG B   4     -14.206  -8.721  47.6070  0.00  0.00     0.000 HD
BRANCH 49 61
ATOM     59   N  NAG B   4     -13.945  -2.354  46.3610  0.00  0.00     0.000 N
ATOM     61  HD  NAG B   4     -13.619  -3.149  46.2540  0.00  0.00     0.000 HD
ATOM     61   O  NAG B   4     -12.324  -2.458  44.7910  0.00  0.00     0.000 OA
ATOM     62   C  NAG B   4     -12.989  -1.818  45.5930  0.00  0.00     0.000 C
ATOM     63   C  NAG B   4     -12.780  -0.346  45.7540  0.00  0.00     0.000 C
ENDBRANCH 49 61
BRANCH 48 64
ATOM     64  O4  BDP B   5     -14.213  -3.187  48.8420  0.00  0.00     0.000 O
BRANCH 64 68
ATOM     65  C1  BDP B   5     -10.871  -1.476  50.6520  0.00  0.00     0.000 C
ATOM     66  C2  BDP B   5     -10.738  -2.940  50.2550  0.00  0.00     0.000 C
ATOM     67  C3  BDP B   5     -11.824  -3.299  49.2490  0.00  0.00     0.000 C
ATOM     68  C4  BDP B   5     -13.199  -2.976  49.8230  0.00  0.00     0.000 C
ATOM     69  C5  BDP B   5     -13.292  -1.537  50.3160  0.00  0.00     0.000 C
ATOM     70  O5  BDP B   5     -12.184  -1.225  51.1780  0.00  0.00     0.000 O
ATOM     71   O  BDP B   5      -9.425  -3.179  49.7250  0.00  0.00     0.000 O
ATOM     73  HD  BDP B   5      -8.628  -3.263  49.3960  0.00  0.00     0.000 HD
ATOM     73   O  BDP B   5     -11.765  -4.692  48.9200  0.00  0.00     0.000 O
ATOM     75  HD  BDP B   5     -10.968  -4.776  48.5910  0.00  0.00     0.000 HD
BRANCH 69 75
ATOM     75   C  BDP B   5     -14.583  -1.381  51.0790  0.00  0.00     0.000 C
ATOM     76   O  BDP B   5     -15.345  -0.439  50.7810  0.00  0.00     0.000 OA
ATOM     77   O  BDP B   5     -14.854  -2.196  51.9800  0.00  0.00     0.000 OA
ENDBRANCH 69 75
BRANCH 65 78
ATOM     78  O3  NAG B   6     -10.504  -0.901  51.9090  0.00  0.00     0.000 O
BRANCH 78 81
ATOM     79  C1  NAG B   6      -9.284   2.622  52.5640  0.00  0.00     0.000 C
ATOM     80  C2  NAG B   6      -9.317   1.226  51.9210  0.00  0.00     0.000 C
ATOM     81  C3  NAG B   6     -10.546   0.461  52.3860  0.00  0.00     0.000 C
ATOM     82  C4  NAG B   6     -10.652   0.477  53.9150  0.00  0.00     0.000 C
ATOM     83  C5  NAG B   6     -10.619   1.919  54.4100  0.00  0.00     0.000 C
ATOM     84  O5  NAG B   6      -9.379   2.491  53.9940  0.00  0.00     0.000 O
BRANCH 80 87
ATOM     85   N  NAG B   6      -8.407   0.565  50.9900  0.00  0.00     0.000 N
ATOM     87  HD  NAG B   6      -8.266  -0.028  50.3760  0.00  0.00     0.000 HD
ATOM     87   C  NAG B   6      -8.514   0.640  49.6580  0.00  0.00     0.000 C
ATOM     88   C  NAG B   6      -7.459  -0.081  48.8810  0.00  0.00     0.000 C
ATOM     89   O  NAG B   6      -9.402   1.266  49.0930  0.00  0.00     0.000 OA
ENDBRANCH 80 87
ATOM     90   O  NAG B   6     -12.005   2.656  56.2500  0.00  0.00     0.000 O
ATOM     92  HD  NAG B   6     -11.614   2.883  55.5110  0.00  0.00     0.000 HD
ATOM     92   O  NAG B   6     -12.005   2.656  56.2500  0.00  0.00     0.000 O
ATOM     94  HD  NAG B   6     -11.614   2.883  55.5110  0.00  0.00     0.000 HD
ENDBRANCH 78 81
ENDBRANCH 65 78
ENDBRANCH 64 68
ENDBRANCH 48 64
ENDBRANCH 47 50
ENDBRANCH 34 47
ENDBRANCH 33 37
ENDBRANCH 17 33
ENDBRANCH 16 19
ENDBRANCH 1 16
TORSDOF 16
ENDMDL
MODEL 60
REMARK VINA RESULT:      -9.0     13.883     25.859
ROOT
ATOM      1  C1  BDP B   1      16.165 -33.508  45.7530  0.00  0.00     0.000 C
ATOM      2  C2  BDP B   1      16.616 -34.013  47.1120  0.00  0.00     0.000 C
ATOM      3  C3  BDP B   1      16.911 -35.498  47.0990  0.00  0.00     0.000 C
ATOM      4  C4  BDP B   1      17.043 -36.093  45.7020  0.00  0.00     0.000 C
ATOM      5  C5  BDP B   1      15.922 -35.654  44.7650  0.00  0.00     0.000 C
ATOM      6  O5  BDP B   1      15.256 -34.469  45.2350  0.00  0.00     0.000 O
ATOM      7   O  BDP B   1      17.780 -33.295  47.5360  0.00  0.00     0.000 O
ATOM      9  HD  BDP B   1      18.223 -32.558  47.6360  0.00  0.00     0.000 HD
ATOM      9   O  BDP B   1      15.867 -36.211  47.7810  0.00  0.00     0.000 O
ATOM     11  HD  BDP B   1      16.311 -35.474  47.8800  0.00  0.00     0.000 HD
ATOM     11   O  BDP B   1      18.312 -35.752  45.1310  0.00  0.00     0.000 O
ATOM     13  HD  BDP B   1      18.755 -35.015  45.2300  0.00  0.00     0.000 HD
ENDROOT
BRANCH 5 13
ATOM     13   C  BDP B   1      14.949 -36.777  44.6840  0.00  0.00     0.000 C
ATOM     14   O  BDP B   1      13.740 -36.501  44.5420  0.00  0.00     0.000 OA
ATOM     15   O  BDP B   1      15.372 -37.952  44.7340  0.00  0.00     0.000 OA
ENDBRANCH 5 13
BRANCH 1 16
ATOM     16  O3  NAG B   2      16.718 -32.502  44.9070  0.00  0.00     0.000 O
BRANCH 16 19
ATOM     17  C1  NAG B   2      17.575 -31.463  41.5250  0.00  0.00     0.000 C
ATOM     18  C2  NAG B   2      16.660 -32.219  42.4880  0.00  0.00     0.000 C
ATOM     19  C3  NAG B   2      16.642 -31.543  43.8510  0.00  0.00     0.000 C
ATOM     20  C4  NAG B   2      17.776 -30.525  43.9950  0.00  0.00     0.000 C
ATOM     21  C5  NAG B   2      19.088 -30.908  43.2950  0.00  0.00     0.000 C
ATOM     22  O5  NAG B   2      18.891 -31.612  42.0630  0.00  0.00     0.000 O
ATOM     23   O  NAG B   2      17.316 -29.261  43.5060  0.00  0.00     0.000 O
ATOM     25  HD  NAG B   2      16.895 -29.597  42.8280  0.00  0.00     0.000 HD
ATOM     25   C  NAG B   2      19.962 -31.769  44.2180  0.00  0.00     0.000 C
ATOM     26   O  NAG B   2      20.759 -30.963  45.0980  0.00  0.00     0.000 O
ATOM     28  HD  NAG B   2      20.338 -31.299  44.4200  0.00  0.00     0.000 HD
BRANCH 18 30
ATOM     28   N  NAG B   2      15.414 -32.389  41.7410  0.00  0.00     0.000 N
ATOM     30  HD  NAG B   2      15.111 -32.563  40.9490  0.00  0.00     0.000 HD
ATOM     30   C  NAG B   2      14.547 -31.406  41.4610  0.00  0.00     0.000 C
ATOM     31   C  NAG B   2      13.332 -31.836  40.6880  0.00  0.00     0.000 C
ATOM     32   O  NAG B   2      14.715 -30.255  41.7920  0.00  0.00     0.000 OA
ENDBRANCH 18 30
BRANCH 17 33
ATOM     33  O4  BDP B   3      18.405 -31.387  40.3460  0.00  0.00     0.000 O
BRANCH 33 37
ATOM     34  C1  BDP B   3      19.344 -28.654  37.2010  0.00  0.00     0.000 C
ATOM     35  C2  BDP B   3      17.887 -29.077  37.3450  0.00  0.00     0.000 C
ATOM     36  C3  BDP B   3      17.560 -29.691  38.7020  0.00  0.00     0.000 C
ATOM     37  C4  BDP B   3      18.645 -30.712  39.0770  0.00  0.00     0.000 C
ATOM     38  C5  BDP B   3      19.998 -29.975  39.0440  0.00  0.00     0.000 C
ATOM     39  O5  BDP B   3      20.238 -29.670  37.6700  0.00  0.00     0.000 O
ATOM     40   O  BDP B   3      17.104 -27.912  37.0750  0.00  0.00     0.000 O
ATOM     42  HD  BDP B   3      17.281 -28.170  36.2680  0.00  0.00     0.000 HD
ATOM     42   O  BDP B   3      16.277 -30.301  38.5770  0.00  0.00     0.000 O
ATOM     44  HD  BDP B   3      16.454 -30.559  37.7700  0.00  0.00     0.000 HD
BRANCH 38 44
ATOM     44   C  BDP B   3      21.145 -30.762  39.5970  0.00  0.00     0.000 C
ATOM     45   O  BDP B   3      21.706 -30.332  40.6290  0.00  0.00     0.000 OA
ATOM     46   O  BDP B   3      21.509 -31.811  39.0220  0.00  0.00     0.000 OA
ENDBRANCH 38 44
BRANCH 34 47
ATOM     47  O3  NAG B   4      19.845 -28.903  35.8890  0.00  0.00     0.000 O
BRANCH 47 50
ATOM     48  C1  NAG B   4      20.757 -26.061  33.6010  0.00  0.00     0.000 C
ATOM     49  C2  NAG B   4      19.846 -27.018  34.3480  0.00  0.00     0.000 C
ATOM     50  C3  NAG B   4      20.688 -27.942  35.2210  0.00  0.00     0.000 C
ATOM     51  C4  NAG B   4      21.744 -28.672  34.4070  0.00  0.00     0.000 C
ATOM     52  C5  NAG B   4      22.584 -27.663  33.6230  0.00  0.00     0.000 C
ATOM     53  O5  NAG B   4      21.738 -26.803  32.8490  0.00  0.00     0.000 O
ATOM     54   O  NAG B   4      22.568 -29.436  35.2920  0.00  0.00     0.000 O
ATOM     56  HD  NAG B   4      22.674 -29.659  34.4610  0.00  0.00     0.000 HD
ATOM     56   C  NAG B   4      23.572 -28.365  32.6990  0.00  0.00     0.000 C
ATOM     57   O  NAG B   4      22.845 -29.181  31.7710  0.00  0.00     0.000 O
ATOM     59  HD  NAG B   4      22.951 -29.404  30.9400  0.00  0.00     0.000 HD
BRANCH 49 61
ATOM     59   N  NAG B   4      19.035 -27.657  33.3110  0.00  0.00     0.000 N
ATOM     61  HD  NAG B   4      19.069 -27.615  34.1750  0.00  0.00     0.000 HD
ATOM     61   O  NAG B   4      17.024 -27.288  34.2710  0.00  0.00     0.000 OA
ATOM     62   C  NAG B   4      17.697 -27.673  33.3250  0.00  0.00     0.000 C
ATOM     63   C  NAG B   4      17.042 -28.180  32.0800  0.00  0.00     0.000 C
ENDBRANCH 49 61
BRANCH 48 64
ATOM     64  O4  BDP B   5      20.580 -24.735  33.1130  0.00  0.00     0.000 O
BRANCH 64 68
ATOM     65  C1  BDP B   5      19.605 -20.736  32.4570  0.00  0.00     0.000 C
ATOM     66  C2  BDP B   5      20.760 -20.992  33.4160  0.00  0.00     0.000 C
ATOM     67  C3  BDP B   5      21.275 -22.414  33.2290  0.00  0.00     0.000 C
ATOM     68  C4  BDP B   5      20.136 -23.412  33.4110  0.00  0.00     0.000 C
ATOM     69  C5  BDP B   5      18.941 -23.088  32.5240  0.00  0.00     0.000 C
ATOM     70  O5  BDP B   5      18.567 -21.706  32.6650  0.00  0.00     0.000 O
ATOM     71   O  BDP B   5      21.794 -20.020  33.1950  0.00  0.00     0.000 O
ATOM     73  HD  BDP B   5      22.393 -19.424  33.0080  0.00  0.00     0.000 HD
ATOM     73   O  BDP B   5      22.311 -22.701  34.1760  0.00  0.00     0.000 O
ATOM     75  HD  BDP B   5      22.910 -22.105  33.9880  0.00  0.00     0.000 HD
BRANCH 69 75
ATOM     75   C  BDP B   5      17.790 -23.967  32.9430  0.00  0.00     0.000 C
ATOM     76   O  BDP B   5      17.194 -24.630  32.0700  0.00  0.00     0.000 OA
ATOM     77   O  BDP B   5      17.469 -24.009  34.1450  0.00  0.00     0.000 OA
ENDBRANCH 69 75
BRANCH 65 78
ATOM     78  O3  NAG B   6      18.505 -19.847  32.6710  0.00  0.00     0.000 O
BRANCH 78 81
ATOM     79  C1  NAG B   6      15.444 -17.928  31.5410  0.00  0.00     0.000 C
ATOM     80  C2  NAG B   6      16.722 -18.219  32.3430  0.00  0.00     0.000 C
ATOM     81  C3  NAG B   6      17.391 -19.483  31.8270  0.00  0.00     0.000 C
ATOM     82  C4  NAG B   6      16.389 -20.640  31.7550  0.00  0.00     0.000 C
ATOM     83  C5  NAG B   6      15.184 -20.216  30.9230  0.00  0.00     0.000 C
ATOM     84  O5  NAG B   6      14.591 -19.087  31.5650  0.00  0.00     0.000 O
BRANCH 80 87
ATOM     85   N  NAG B   6      17.089 -17.187  33.3090  0.00  0.00     0.000 N
ATOM     87  HD  NAG B   6      17.590 -16.917  33.9610  0.00  0.00     0.000 HD
ATOM     87   C  NAG B   6      18.260 -16.538  33.3030  0.00  0.00     0.000 C
ATOM     88   C  NAG B   6      18.426 -15.491  34.3580  0.00  0.00     0.000 C
ATOM     89   O  NAG B   6      19.145 -16.763  32.4860  0.00  0.00     0.000 OA
ENDBRANCH 80 87
ATOM     90   O  NAG B   6      14.096 -21.748  29.4010  0.00  0.00     0.000 O
ATOM     92  HD  NAG B   6      14.294 -20.921  29.5650  0.00  0.00     0.000 HD
ATOM     92   O  NAG B   6      14.096 -21.748  29.4010  0.00  0.00     0.000 O
ATOM     94  HD  NAG B   6      14.294 -20.921  29.5650  0.00  0.00     0.000 HD
ENDBRANCH 78 81
ENDBRANCH 65 78
ENDBRANCH 64 68
ENDBRANCH 48 64
ENDBRANCH 47 50
ENDBRANCH 34 47
ENDBRANCH 33 37
ENDBRANCH 17 33
ENDBRANCH 16 19
ENDBRANCH 1 16
TORSDOF 16
ENDMDL
MODEL 61
REMARK VINA RESULT:      -9.0     38.391     42.539
ROOT
ATOM      1  C1  BDP B   1      23.436 -24.524  64.5470  0.00  0.00     0.000 C
ATOM      2  C2  BDP B   1      24.062 -23.834  65.7460  0.00  0.00     0.000 C
ATOM      3  C3  BDP B   1      24.450 -22.403  65.4420  0.00  0.00     0.000 C
ATOM      4  C4  BDP B   1      23.831 -21.849  64.1630  0.00  0.00     0.000 C
ATOM      5  C5  BDP B   1      23.951 -22.811  62.9850  0.00  0.00     0.000 C
ATOM      6  O5  BDP B   1      24.206 -24.160  63.4110  0.00  0.00     0.000 O
ATOM      7   O  BDP B   1      23.153 -23.861  66.8520  0.00  0.00     0.000 O
ATOM      9  HD  BDP B   1      22.582 -24.273  67.3560  0.00  0.00     0.000 HD
ATOM      9   O  BDP B   1      25.877 -22.299  65.3160  0.00  0.00     0.000 O
ATOM     11  HD  BDP B   1      25.306 -22.711  65.8200  0.00  0.00     0.000 HD
ATOM     11   O  BDP B   1      22.454 -21.517  64.3780  0.00  0.00     0.000 O
ATOM     13  HD  BDP B   1      21.883 -21.929  64.8820  0.00  0.00     0.000 HD
ENDROOT
BRANCH 5 13
ATOM     13   C  BDP B   1      25.077 -22.331  62.1370  0.00  0.00     0.000 C
ATOM     14   O  BDP B   1      26.223 -22.760  62.3810  0.00  0.00     0.000 OA
ATOM     15   O  BDP B   1      24.837 -21.540  61.1990  0.00  0.00     0.000 OA
ENDBRANCH 5 13
BRANCH 1 16
ATOM     16  O3  NAG B   2      22.155 -25.131  64.3910  0.00  0.00     0.000 O
BRANCH 16 19
ATOM     17  C1  NAG B   2      19.361 -27.031  63.0340  0.00  0.00     0.000 C
ATOM     18  C2  NAG B   2      20.138 -26.489  64.2340  0.00  0.00     0.000 C
ATOM     19  C3  NAG B   2      20.821 -25.176  63.8810  0.00  0.00     0.000 C
ATOM     20  C4  NAG B   2      20.837 -24.934  62.3690  0.00  0.00     0.000 C
ATOM     21  C5  NAG B   2      21.005 -26.194  61.5090  0.00  0.00     0.000 C
ATOM     22  O5  NAG B   2      20.355 -27.347  62.0560  0.00  0.00     0.000 O
ATOM     23   O  NAG B   2      19.631 -24.255  62.0050  0.00  0.00     0.000 O
ATOM     25  HD  NAG B   2      19.126 -24.722  62.5310  0.00  0.00     0.000 HD
ATOM     25   C  NAG B   2      22.492 -26.519  61.3090  0.00  0.00     0.000 C
ATOM     26   O  NAG B   2      23.052 -25.789  60.2080  0.00  0.00     0.000 O
ATOM     28  HD  NAG B   2      22.547 -26.255  60.7350  0.00  0.00     0.000 HD
BRANCH 18 30
ATOM     28   N  NAG B   2      19.232 -25.472  64.7640  0.00  0.00     0.000 N
ATOM     30  HD  NAG B   2      19.183 -24.843  65.3580  0.00  0.00     0.000 HD
ATOM     30   C  NAG B   2      18.121 -25.726  65.4700  0.00  0.00     0.000 C
ATOM     31   C  NAG B   2      17.350 -24.509  65.8950  0.00  0.00     0.000 C
ATOM     32   O  NAG B   2      17.755 -26.842  65.7580  0.00  0.00     0.000 OA
ENDBRANCH 18 30
BRANCH 17 33
ATOM     33  O4  BDP B   3      18.741 -28.105  62.2940  0.00  0.00     0.000 O
BRANCH 33 37
ATOM     34  C1  BDP B   3      16.680 -31.835  62.0090  0.00  0.00     0.000 C
ATOM     35  C2  BDP B   3      16.190 -30.699  61.1200  0.00  0.00     0.000 C
ATOM     36  C3  BDP B   3      17.202 -29.569  60.9580  0.00  0.00     0.000 C
ATOM     37  C4  BDP B   3      17.787 -29.206  62.3320  0.00  0.00     0.000 C
ATOM     38  C5  BDP B   3      18.390 -30.493  62.9270  0.00  0.00     0.000 C
ATOM     39  O5  BDP B   3      17.279 -31.343  63.2130  0.00  0.00     0.000 O
ATOM     40   O  BDP B   3      15.839 -31.293  59.8680  0.00  0.00     0.000 O
ATOM     42  HD  BDP B   3      15.128 -31.472  60.3300  0.00  0.00     0.000 HD
ATOM     42   O  BDP B   3      16.502 -28.473  60.3730  0.00  0.00     0.000 O
ATOM     44  HD  BDP B   3      15.791 -28.652  60.8340  0.00  0.00     0.000 HD
BRANCH 38 44
ATOM     44   C  BDP B   3      19.199 -30.280  64.1680  0.00  0.00     0.000 C
ATOM     45   O  BDP B   3      20.439 -30.422  64.0900  0.00  0.00     0.000 OA
ATOM     46   O  BDP B   3      18.624 -29.973  65.2360  0.00  0.00     0.000 OA
ENDBRANCH 38 44
BRANCH 34 47
ATOM     47  O3  NAG B   4      15.634 -32.368  62.8190  0.00  0.00     0.000 O
BRANCH 47 50
ATOM     48  C1  NAG B   4      15.050 -36.084  62.8760  0.00  0.00     0.000 C
ATOM     49  C2  NAG B   4      15.041 -34.674  62.3100  0.00  0.00     0.000 C
ATOM     50  C3  NAG B   4      15.692 -33.724  63.3080  0.00  0.00     0.000 C
ATOM     51  C4  NAG B   4      15.023 -33.800  64.6710  0.00  0.00     0.000 C
ATOM     52  C5  NAG B   4      14.999 -35.250  65.1570  0.00  0.00     0.000 C
ATOM     53  O5  NAG B   4      14.407 -36.099  64.1650  0.00  0.00     0.000 O
ATOM     54   O  NAG B   4      15.741 -32.972  65.5900  0.00  0.00     0.000 O
ATOM     56  HD  NAG B   4      14.967 -33.213  65.8930  0.00  0.00     0.000 HD
ATOM     56   C  NAG B   4      14.224 -35.383  66.4630  0.00  0.00     0.000 C
ATOM     57   O  NAG B   4      12.876 -34.943  66.2540  0.00  0.00     0.000 O
ATOM     59  HD  NAG B   4      12.101 -35.183  66.5570  0.00  0.00     0.000 HD
BRANCH 49 61
ATOM     59   N  NAG B   4      15.585 -34.869  60.9660  0.00  0.00     0.000 N
ATOM     61  HD  NAG B   4      14.815 -34.872  61.3620  0.00  0.00     0.000 HD
ATOM     61   O  NAG B   4      14.003 -33.697  59.8590  0.00  0.00     0.000 OA
ATOM     62   C  NAG B   4      15.063 -34.306  59.8700  0.00  0.00     0.000 C
ATOM     63   C  NAG B   4      15.876 -34.443  58.6210  0.00  0.00     0.000 C
ENDBRANCH 49 61
BRANCH 48 64
ATOM     64  O4  BDP B   5      15.095 -37.372  62.2690  0.00  0.00     0.000 O
BRANCH 64 68
ATOM     65  C1  BDP B   5      15.888 -41.349  61.3070  0.00  0.00     0.000 C
ATOM     66  C2  BDP B   5      16.159 -40.945  62.7510  0.00  0.00     0.000 C
ATOM     67  C3  BDP B   5      15.439 -39.639  63.0610  0.00  0.00     0.000 C
ATOM     68  C4  BDP B   5      15.858 -38.561  62.0680  0.00  0.00     0.000 C
ATOM     69  C5  BDP B   5      15.684 -39.011  60.6230  0.00  0.00     0.000 C
ATOM     70  O5  BDP B   5      16.293 -40.297  60.4170  0.00  0.00     0.000 O
ATOM     71   O  BDP B   5      15.745 -42.001  63.6320  0.00  0.00     0.000 O
ATOM     73  HD  BDP B   5      15.461 -42.658  64.1180  0.00  0.00     0.000 HD
ATOM     73   O  BDP B   5      15.742 -39.201  64.3900  0.00  0.00     0.000 O
ATOM     75  HD  BDP B   5      15.459 -39.858  64.8770  0.00  0.00     0.000 HD
BRANCH 69 75
ATOM     75   C  BDP B   5      16.342 -37.993  59.7270  0.00  0.00     0.000 C
ATOM     76   O  BDP B   5      15.875 -37.807  58.5850  0.00  0.00     0.000 OA
ATOM     77   O  BDP B   5      17.330 -37.364  60.1520  0.00  0.00     0.000 OA
ENDBRANCH 69 75
BRANCH 65 78
ATOM     78  O3  NAG B   6      16.762 -42.097  60.4570  0.00  0.00     0.000 O
BRANCH 78 81
ATOM     79  C1  NAG B   6      17.494 -44.505  57.6300  0.00  0.00     0.000 C
ATOM     80  C2  NAG B   6      17.789 -43.592  58.8300  0.00  0.00     0.000 C
ATOM     81  C3  NAG B   6      16.491 -43.074  59.4290  0.00  0.00     0.000 C
ATOM     82  C4  NAG B   6      15.597 -42.460  58.3470  0.00  0.00     0.000 C
ATOM     83  C5  NAG B   6      15.380 -43.477  57.2320  0.00  0.00     0.000 C
ATOM     84  O5  NAG B   6      16.660 -43.804  56.6900  0.00  0.00     0.000 O
BRANCH 80 87
ATOM     85   N  NAG B   6      18.363 -43.608  60.1720  0.00  0.00     0.000 N
ATOM     87  HD  NAG B   6      18.744 -44.042  60.8180  0.00  0.00     0.000 HD
ATOM     87   C  NAG B   6      19.656 -43.838  60.4310  0.00  0.00     0.000 C
ATOM     88   C  NAG B   6      20.050 -43.777  61.8730  0.00  0.00     0.000 C
ATOM     89   O  NAG B   6      20.482 -44.071  59.5560  0.00  0.00     0.000 OA
ENDBRANCH 80 87
ATOM     90   O  NAG B   6      13.242 -43.703  56.1250  0.00  0.00     0.000 O
ATOM     92  HD  NAG B   6      13.965 -44.108  56.3760  0.00  0.00     0.000 HD
ATOM     92   O  NAG B   6      13.242 -43.703  56.1250  0.00  0.00     0.000 O
ATOM     94  HD  NAG B   6      13.965 -44.108  56.3760  0.00  0.00     0.000 HD
ENDBRANCH 78 81
ENDBRANCH 65 78
ENDBRANCH 64 68
ENDBRANCH 48 64
ENDBRANCH 47 50
ENDBRANCH 34 47
ENDBRANCH 33 37
ENDBRANCH 17 33
ENDBRANCH 16 19
ENDBRANCH 1 16
TORSDOF 16
ENDMDL
MODEL 62
REMARK VINA RESULT:      -9.0      8.824     17.741
ROOT
ATOM      1  C1  BDP B   1       1.527  -8.539  30.7640  0.00  0.00     0.000 C
ATOM      2  C2  BDP B   1       2.891  -7.987  30.3900  0.00  0.00     0.000 C
ATOM      3  C3  BDP B   1       3.909  -9.085  30.1660  0.00  0.00     0.000 C
ATOM      4  C4  BDP B   1       3.300 -10.474  30.0090  0.00  0.00     0.000 C
ATOM      5  C5  BDP B   1       2.248 -10.781  31.0700  0.00  0.00     0.000 C
ATOM      6  O5  BDP B   1       1.746  -9.588  31.6960  0.00  0.00     0.000 O
ATOM      7   O  BDP B   1       2.784  -7.182  29.2110  0.00  0.00     0.000 O
ATOM      9  HD  BDP B   1       2.383  -6.579  28.7370  0.00  0.00     0.000 HD
ATOM      9   O  BDP B   1       4.828  -9.134  31.2690  0.00  0.00     0.000 O
ATOM     11  HD  BDP B   1       4.427  -8.530  30.7950  0.00  0.00     0.000 HD
ATOM     11   O  BDP B   1       2.728 -10.624  28.7040  0.00  0.00     0.000 O
ATOM     13  HD  BDP B   1       2.327 -10.020  28.2300  0.00  0.00     0.000 HD
ENDROOT
BRANCH 5 13
ATOM     13   C  BDP B   1       2.894 -11.650  32.0920  0.00  0.00     0.000 C
ATOM     14   O  BDP B   1       2.593 -12.862  32.1100  0.00  0.00     0.000 OA
ATOM     15   O  BDP B   1       3.729 -11.150  32.8750  0.00  0.00     0.000 OA
ENDBRANCH 5 13
BRANCH 1 16
ATOM     16  O3  NAG B   2       0.259  -8.384  30.1300  0.00  0.00     0.000 O
BRANCH 16 19
ATOM     17  C1  NAG B   2      -2.020  -5.607  30.7230  0.00  0.00     0.000 C
ATOM     18  C2  NAG B   2      -0.729  -6.157  30.1160  0.00  0.00     0.000 C
ATOM     19  C3  NAG B   2      -0.891  -7.625  29.7530  0.00  0.00     0.000 C
ATOM     20  C4  NAG B   2      -2.143  -8.233  30.3910  0.00  0.00     0.000 C
ATOM     21  C5  NAG B   2      -2.486  -7.699  31.7890  0.00  0.00     0.000 C
ATOM     22  O5  NAG B   2      -2.182  -6.309  31.9580  0.00  0.00     0.000 O
ATOM     23   O  NAG B   2      -3.250  -8.026  29.5080  0.00  0.00     0.000 O
ATOM     25  HD  NAG B   2      -3.018  -7.220  29.2930  0.00  0.00     0.000 HD
ATOM     25   C  NAG B   2      -1.745  -8.498  32.8700  0.00  0.00     0.000 C
ATOM     26   O  NAG B   2      -2.460  -9.687  33.2360  0.00  0.00     0.000 O
ATOM     28  HD  NAG B   2      -2.228  -8.881  33.0210  0.00  0.00     0.000 HD
BRANCH 18 30
ATOM     28   N  NAG B   2      -1.438  -5.299  29.1670  0.00  0.00     0.000 N
ATOM     30  HD  NAG B   2      -2.157  -5.261  28.6860  0.00  0.00     0.000 HD
ATOM     30   C  NAG B   2      -1.025  -5.028  27.9210  0.00  0.00     0.000 C
ATOM     31   C  NAG B   2      -1.925  -4.109  27.1430  0.00  0.00     0.000 C
ATOM     32   O  NAG B   2      -0.014  -5.485  27.4400  0.00  0.00     0.000 OA
ENDBRANCH 18 30
BRANCH 17 33
ATOM     33  O4  BDP B   3      -2.748  -4.656  31.5300  0.00  0.00     0.000 O
BRANCH 33 37
ATOM     34  C1  BDP B   3      -5.889  -2.001  32.6830  0.00  0.00     0.000 C
ATOM     35  C2  BDP B   3      -6.294  -3.373  32.1560  0.00  0.00     0.000 C
ATOM     36  C3  BDP B   3      -5.160  -4.392  32.1700  0.00  0.00     0.000 C
ATOM     37  C4  BDP B   3      -3.888  -3.750  31.5980  0.00  0.00     0.000 C
ATOM     38  C5  BDP B   3      -3.594  -2.490  32.4350  0.00  0.00     0.000 C
ATOM     39  O5  BDP B   3      -4.641  -1.570  32.1280  0.00  0.00     0.000 O
ATOM     40   O  BDP B   3      -7.408  -3.792  32.9480  0.00  0.00     0.000 O
ATOM     42  HD  BDP B   3      -7.806  -3.266  32.3870  0.00  0.00     0.000 HD
ATOM     42   O  BDP B   3      -5.596  -5.500  31.3840  0.00  0.00     0.000 O
ATOM     44  HD  BDP B   3      -5.994  -4.974  30.8230  0.00  0.00     0.000 HD
BRANCH 38 44
ATOM     44   C  BDP B   3      -2.266  -1.858  32.1580  0.00  0.00     0.000 C
ATOM     45   O  BDP B   3      -1.548  -1.551  33.1350  0.00  0.00     0.000 OA
ATOM     46   O  BDP B   3      -1.913  -1.654  30.9760  0.00  0.00     0.000 OA
ENDBRANCH 38 44
BRANCH 34 47
ATOM     47  O3  NAG B   4      -6.510  -0.945  31.9530  0.00  0.00     0.000 O
BRANCH 47 50
ATOM     48  C1  NAG B   4      -6.795   1.913  34.3820  0.00  0.00     0.000 C
ATOM     49  C2  NAG B   4      -6.785   0.468  33.9180  0.00  0.00     0.000 C
ATOM     50  C3  NAG B   4      -6.458   0.416  32.4300  0.00  0.00     0.000 C
ATOM     51  C4  NAG B   4      -7.415   1.274  31.6170  0.00  0.00     0.000 C
ATOM     52  C5  NAG B   4      -7.435   2.698  32.1740  0.00  0.00     0.000 C
ATOM     53  O5  NAG B   4      -7.713   2.681  33.5800  0.00  0.00     0.000 O
ATOM     54   O  NAG B   4      -6.995   1.273  30.2500  0.00  0.00     0.000 O
ATOM     56  HD  NAG B   4      -7.797   1.583  30.3520  0.00  0.00     0.000 HD
ATOM     56   C  NAG B   4      -8.476   3.555  31.4640  0.00  0.00     0.000 C
ATOM     57   O  NAG B   4      -9.771   2.969  31.6490  0.00  0.00     0.000 O
ATOM     59  HD  NAG B   4     -10.573   3.278  31.7510  0.00  0.00     0.000 HD
BRANCH 49 61
ATOM     59   N  NAG B   4      -8.015   0.095  34.6170  0.00  0.00     0.000 N
ATOM     61  HD  NAG B   4      -7.422  -0.273  34.1040  0.00  0.00     0.000 HD
ATOM     61   O  NAG B   4      -7.306  -1.917  35.3600  0.00  0.00     0.000 OA
ATOM     62   C  NAG B   4      -8.143  -1.027  35.3360  0.00  0.00     0.000 C
ATOM     63   C  NAG B   4      -9.393  -1.133  36.1510  0.00  0.00     0.000 C
ENDBRANCH 49 61
BRANCH 48 64
ATOM     64  O4  BDP B   5      -6.509   2.532  35.6330  0.00  0.00     0.000 O
BRANCH 64 68
ATOM     65  C1  BDP B   5      -3.905   0.980  38.4930  0.00  0.00     0.000 C
ATOM     66  C2  BDP B   5      -5.360   1.114  38.9200  0.00  0.00     0.000 C
ATOM     67  C3  BDP B   5      -6.243   1.271  37.6880  0.00  0.00     0.000 C
ATOM     68  C4  BDP B   5      -5.771   2.455  36.8520  0.00  0.00     0.000 C
ATOM     69  C5  BDP B   5      -4.288   2.368  36.5170  0.00  0.00     0.000 C
ATOM     70  O5  BDP B   5      -3.515   2.115  37.7040  0.00  0.00     0.000 O
ATOM     71   O  BDP B   5      -5.740  -0.029  39.7020  0.00  0.00     0.000 O
ATOM     73  HD  BDP B   5      -5.922  -0.747  40.1510  0.00  0.00     0.000 HD
ATOM     73   O  BDP B   5      -7.608   1.476  38.0700  0.00  0.00     0.000 O
ATOM     75  HD  BDP B   5      -7.790   0.757  38.5180  0.00  0.00     0.000 HD
BRANCH 69 75
ATOM     75   C  BDP B   5      -3.862   3.680  35.9090  0.00  0.00     0.000 C
ATOM     76   O  BDP B   5      -3.910   4.710  36.6110  0.00  0.00     0.000 OA
ATOM     77   O  BDP B   5      -3.470   3.699  34.7280  0.00  0.00     0.000 OA
ENDBRANCH 69 75
BRANCH 65 78
ATOM     78  O3  NAG B   6      -2.759   1.394  39.2420  0.00  0.00     0.000 O
BRANCH 78 81
ATOM     79  C1  NAG B   6       0.825   1.064  40.4190  0.00  0.00     0.000 C
ATOM     80  C2  NAG B   6      -0.616   1.600  40.3840  0.00  0.00     0.000 C
ATOM     81  C3  NAG B   6      -1.450   0.802  39.3940  0.00  0.00     0.000 C
ATOM     82  C4  NAG B   6      -0.752   0.721  38.0330  0.00  0.00     0.000 C
ATOM     83  C5  NAG B   6       0.655   0.164  38.2180  0.00  0.00     0.000 C
ATOM     84  O5  NAG B   6       1.361   1.053  39.0840  0.00  0.00     0.000 O
BRANCH 80 87
ATOM     85   N  NAG B   6      -1.700   1.595  41.3620  0.00  0.00     0.000 N
ATOM     87  HD  NAG B   6      -1.965   1.539  42.1850  0.00  0.00     0.000 HD
ATOM     87   C  NAG B   6      -1.872   2.541  42.2930  0.00  0.00     0.000 C
ATOM     88   C  NAG B   6      -3.066   2.369  43.1790  0.00  0.00     0.000 C
ATOM     89   O  NAG B   6      -1.121   3.500  42.4190  0.00  0.00     0.000 OA
ENDBRANCH 80 87
ATOM     90   O  NAG B   6       1.625  -1.375  36.6240  0.00  0.00     0.000 O
ATOM     92  HD  NAG B   6       1.598  -1.124  37.4530  0.00  0.00     0.000 HD
ATOM     92   O  NAG B   6       1.625  -1.375  36.6240  0.00  0.00     0.000 O
ATOM     94  HD  NAG B   6       1.598  -1.124  37.4530  0.00  0.00     0.000 HD
ENDBRANCH 78 81
ENDBRANCH 65 78
ENDBRANCH 64 68
ENDBRANCH 48 64
ENDBRANCH 47 50
ENDBRANCH 34 47
ENDBRANCH 33 37
ENDBRANCH 17 33
ENDBRANCH 16 19
ENDBRANCH 1 16
TORSDOF 16
ENDMDL
MODEL 63
REMARK VINA RESULT:      -9.0     28.733     35.321
ROOT
ATOM      1  C1  BDP B   1      -4.084 -43.353  44.7320  0.00  0.00     0.000 C
ATOM      2  C2  BDP B   1      -4.846 -44.278  45.6650  0.00  0.00     0.000 C
ATOM      3  C3  BDP B   1      -4.638 -43.917  47.1210  0.00  0.00     0.000 C
ATOM      4  C4  BDP B   1      -4.026 -42.537  47.3370  0.00  0.00     0.000 C
ATOM      5  C5  BDP B   1      -2.826 -42.275  46.4330  0.00  0.00     0.000 C
ATOM      6  O5  BDP B   1      -2.797 -43.160  45.3000  0.00  0.00     0.000 O
ATOM      7   O  BDP B   1      -6.243 -44.238  45.3550  0.00  0.00     0.000 O
ATOM      9  HD  BDP B   1      -6.895 -44.236  44.7850  0.00  0.00     0.000 HD
ATOM      9   O  BDP B   1      -3.774 -44.879  47.7450  0.00  0.00     0.000 O
ATOM     11  HD  BDP B   1      -4.426 -44.877  47.1750  0.00  0.00     0.000 HD
ATOM     11   O  BDP B   1      -5.012 -41.517  47.1400  0.00  0.00     0.000 O
ATOM     13  HD  BDP B   1      -5.664 -41.515  46.5700  0.00  0.00     0.000 HD
ENDROOT
BRANCH 5 13
ATOM     13   C  BDP B   1      -1.601 -42.473  47.2560  0.00  0.00     0.000 C
ATOM     14   O  BDP B   1      -1.148 -43.631  47.3700  0.00  0.00     0.000 OA
ATOM     15   O  BDP B   1      -1.055 -41.479  47.7820  0.00  0.00     0.000 OA
ENDBRANCH 5 13
BRANCH 1 16
ATOM     16  O3  NAG B   2      -4.548 -42.507  43.6820  0.00  0.00     0.000 O
BRANCH 16 19
ATOM     17  C1  NAG B   2      -5.623 -39.980  41.2920  0.00  0.00     0.000 C
ATOM     18  C2  NAG B   2      -4.747 -40.402  42.4720  0.00  0.00     0.000 C
ATOM     19  C3  NAG B   2      -4.432 -41.889  42.4000  0.00  0.00     0.000 C
ATOM     20  C4  NAG B   2      -5.333 -42.611  41.3940  0.00  0.00     0.000 C
ATOM     21  C5  NAG B   2      -6.770 -42.080  41.3080  0.00  0.00     0.000 C
ATOM     22  O5  NAG B   2      -6.865 -40.662  41.4840  0.00  0.00     0.000 O
ATOM     23   O  NAG B   2      -4.715 -42.550  40.1050  0.00  0.00     0.000 O
ATOM     25  HD  NAG B   2      -4.452 -41.729  40.1920  0.00  0.00     0.000 HD
ATOM     25   C  NAG B   2      -7.663 -42.764  42.3530  0.00  0.00     0.000 C
ATOM     26   O  NAG B   2      -8.180 -44.014  41.8740  0.00  0.00     0.000 O
ATOM     28  HD  NAG B   2      -7.918 -43.193  41.9610  0.00  0.00     0.000 HD
BRANCH 18 30
ATOM     28   N  NAG B   2      -3.989 -39.599  41.5140  0.00  0.00     0.000 N
ATOM     30  HD  NAG B   2      -3.712 -39.596  40.6940  0.00  0.00     0.000 HD
ATOM     30   C  NAG B   2      -2.669 -39.372  41.5780  0.00  0.00     0.000 C
ATOM     31   C  NAG B   2      -2.123 -38.504  40.4790  0.00  0.00     0.000 C
ATOM     32   O  NAG B   2      -1.955 -39.827  42.4410  0.00  0.00     0.000 OA
ENDBRANCH 18 30
BRANCH 17 33
ATOM     33  O4  BDP B   3      -6.569 -39.092  40.6570  0.00  0.00     0.000 O
BRANCH 33 37
ATOM     34  C1  BDP B   3      -7.859 -35.846  38.1990  0.00  0.00     0.000 C
ATOM     35  C2  BDP B   3      -6.491 -36.447  37.8980  0.00  0.00     0.000 C
ATOM     36  C3  BDP B   3      -6.284 -37.829  38.5070  0.00  0.00     0.000 C
ATOM     37  C4  BDP B   3      -6.760 -37.822  39.9680  0.00  0.00     0.000 C
ATOM     38  C5  BDP B   3      -8.231 -37.364  39.9670  0.00  0.00     0.000 C
ATOM     39  O5  BDP B   3      -8.207 -35.990  39.5810  0.00  0.00     0.000 O
ATOM     40   O  BDP B   3      -6.364 -36.458  36.4750  0.00  0.00     0.000 O
ATOM     42  HD  BDP B   3      -6.159 -35.633  36.6420  0.00  0.00     0.000 HD
ATOM     42   O  BDP B   3      -4.891 -38.117  38.4040  0.00  0.00     0.000 O
ATOM     44  HD  BDP B   3      -4.685 -37.293  38.5720  0.00  0.00     0.000 HD
BRANCH 38 44
ATOM     44   C  BDP B   3      -8.924 -37.508  41.2860  0.00  0.00     0.000 C
ATOM     45   O  BDP B   3      -8.500 -36.829  42.2480  0.00  0.00     0.000 OA
ATOM     46   O  BDP B   3      -9.894 -38.290  41.3930  0.00  0.00     0.000 OA
ENDBRANCH 38 44
BRANCH 34 47
ATOM     47  O3  NAG B   4      -7.786 -34.440  38.4260  0.00  0.00     0.000 O
BRANCH 47 50
ATOM     48  C1  NAG B   4      -9.829 -32.067  36.3410  0.00  0.00     0.000 C
ATOM     49  C2  NAG B   4      -8.700 -33.031  36.6630  0.00  0.00     0.000 C
ATOM     50  C3  NAG B   4      -8.885 -33.574  38.0760  0.00  0.00     0.000 C
ATOM     51  C4  NAG B   4      -8.993 -32.452  39.0970  0.00  0.00     0.000 C
ATOM     52  C5  NAG B   4     -10.096 -31.478  38.6830  0.00  0.00     0.000 C
ATOM     53  O5  NAG B   4      -9.888 -31.028  37.3380  0.00  0.00     0.000 O
ATOM     54   O  NAG B   4      -9.273 -33.016  40.3800  0.00  0.00     0.000 O
ATOM     56  HD  NAG B   4      -9.025 -32.188  40.4270  0.00  0.00     0.000 HD
ATOM     56   C  NAG B   4     -10.149 -30.274  39.6160  0.00  0.00     0.000 C
ATOM     57   O  NAG B   4      -8.890 -29.590  39.5700  0.00  0.00     0.000 O
ATOM     59  HD  NAG B   4      -8.642 -28.762  39.6170  0.00  0.00     0.000 HD
BRANCH 49 61
ATOM     59   N  NAG B   4      -8.709 -33.770  35.4010  0.00  0.00     0.000 N
ATOM     61  HD  NAG B   4      -8.299 -33.095  35.7560  0.00  0.00     0.000 HD
ATOM     61   O  NAG B   4      -6.471 -33.819  35.0990  0.00  0.00     0.000 OA
ATOM     62   C  NAG B   4      -7.596 -34.163  34.7680  0.00  0.00     0.000 C
ATOM     63   C  NAG B   4      -7.801 -35.089  33.6120  0.00  0.00     0.000 C
ENDBRANCH 49 61
BRANCH 48 64
ATOM     64  O4  BDP B   5     -10.471 -31.698  35.1250  0.00  0.00     0.000 O
BRANCH 64 68
ATOM     65  C1  BDP B   5     -14.541 -32.166  34.3590  0.00  0.00     0.000 C
ATOM     66  C2  BDP B   5     -13.596 -32.877  33.4000  0.00  0.00     0.000 C
ATOM     67  C3  BDP B   5     -12.212 -32.982  34.0280  0.00  0.00     0.000 C
ATOM     68  C4  BDP B   5     -11.708 -31.598  34.4200  0.00  0.00     0.000 C
ATOM     69  C5  BDP B   5     -12.706 -30.849  35.2950  0.00  0.00     0.000 C
ATOM     70  O5  BDP B   5     -14.016 -30.874  34.7020  0.00  0.00     0.000 O
ATOM     71   O  BDP B   5     -14.128 -34.170  33.0690  0.00  0.00     0.000 O
ATOM     73  HD  BDP B   5     -14.483 -34.945  32.9190  0.00  0.00     0.000 HD
ATOM     73   O  BDP B   5     -11.288 -33.579  33.1110  0.00  0.00     0.000 O
ATOM     75  HD  BDP B   5     -11.643 -34.355  32.9610  0.00  0.00     0.000 HD
BRANCH 69 75
ATOM     75   C  BDP B   5     -12.241 -29.421  35.4280  0.00  0.00     0.000 C
ATOM     76   O  BDP B   5     -12.237 -28.895  36.5600  0.00  0.00     0.000 OA
ATOM     77   O  BDP B   5     -11.871 -28.810  34.4090  0.00  0.00     0.000 OA
ENDBRANCH 69 75
BRANCH 65 78
ATOM     78  O3  NAG B   6     -15.668 -31.362  34.0000  0.00  0.00     0.000 O
BRANCH 78 81
ATOM     79  C1  NAG B   6     -19.441 -31.384  34.3160  0.00  0.00     0.000 C
ATOM     80  C2  NAG B   6     -18.063 -31.716  33.7220  0.00  0.00     0.000 C
ATOM     81  C3  NAG B   6     -16.959 -31.190  34.6250  0.00  0.00     0.000 C
ATOM     82  C4  NAG B   6     -17.185 -29.712  34.9600  0.00  0.00     0.000 C
ATOM     83  C5  NAG B   6     -18.580 -29.535  35.5500  0.00  0.00     0.000 C
ATOM     84  O5  NAG B   6     -19.523 -29.970  34.5700  0.00  0.00     0.000 O
BRANCH 80 87
ATOM     85   N  NAG B   6     -17.705 -32.419  32.4930  0.00  0.00     0.000 N
ATOM     87  HD  NAG B   6     -17.130 -32.873  32.0310  0.00  0.00     0.000 HD
ATOM     87   C  NAG B   6     -17.480 -33.737  32.4230  0.00  0.00     0.000 C
ATOM     88   C  NAG B   6     -17.160 -34.269  31.0620  0.00  0.00     0.000 C
ATOM     89   O  NAG B   6     -17.541 -34.479  33.3970  0.00  0.00     0.000 OA
ENDBRANCH 80 87
ATOM     90   O  NAG B   6     -18.995 -28.000  37.3730  0.00  0.00     0.000 O
ATOM     92  HD  NAG B   6     -19.233 -28.740  36.9900  0.00  0.00     0.000 HD
ATOM     92   O  NAG B   6     -18.995 -28.000  37.3730  0.00  0.00     0.000 O
ATOM     94  HD  NAG B   6     -19.233 -28.740  36.9900  0.00  0.00     0.000 HD
ENDBRANCH 78 81
ENDBRANCH 65 78
ENDBRANCH 64 68
ENDBRANCH 48 64
ENDBRANCH 47 50
ENDBRANCH 34 47
ENDBRANCH 33 37
ENDBRANCH 17 33
ENDBRANCH 16 19
ENDBRANCH 1 16
TORSDOF 16
ENDMDL
MODEL 64
REMARK VINA RESULT:      -8.9      9.370     19.068
ROOT
ATOM      1  C1  BDP B   1       1.838  -9.079  30.6900  0.00  0.00     0.000 C
ATOM      2  C2  BDP B   1       3.235  -8.619  30.3120  0.00  0.00     0.000 C
ATOM      3  C3  BDP B   1       4.258  -9.726  30.4570  0.00  0.00     0.000 C
ATOM      4  C4  BDP B   1       3.652 -11.118  30.5970  0.00  0.00     0.000 C
ATOM      5  C5  BDP B   1       2.508 -11.165  31.6060  0.00  0.00     0.000 C
ATOM      6  O5  BDP B   1       1.964  -9.861  31.8690  0.00  0.00     0.000 O
ATOM      7   O  BDP B   1       3.239  -8.134  28.9650  0.00  0.00     0.000 O
ATOM      9  HD  BDP B   1       2.886  -7.672  28.3230  0.00  0.00     0.000 HD
ATOM      9   O  BDP B   1       5.076  -9.488  31.6130  0.00  0.00     0.000 O
ATOM     11  HD  BDP B   1       4.723  -9.026  30.9710  0.00  0.00     0.000 HD
ATOM     11   O  BDP B   1       3.196 -11.594  29.3250  0.00  0.00     0.000 O
ATOM     13  HD  BDP B   1       2.843 -11.132  28.6830  0.00  0.00     0.000 HD
ENDROOT
BRANCH 5 13
ATOM     13   C  BDP B   1       3.054 -11.745  32.8630  0.00  0.00     0.000 C
ATOM     14   O  BDP B   1       2.382 -11.623  33.9090  0.00  0.00     0.000 OA
ATOM     15   O  BDP B   1       4.145 -12.354  32.8290  0.00  0.00     0.000 OA
ENDBRANCH 5 13
BRANCH 1 16
ATOM     16  O3  NAG B   2       0.632  -9.102  29.9300  0.00  0.00     0.000 O
BRANCH 16 19
ATOM     17  C1  NAG B   2      -1.231  -6.132  28.9460  0.00  0.00     0.000 C
ATOM     18  C2  NAG B   2      -0.236  -7.245  28.6130  0.00  0.00     0.000 C
ATOM     19  C3  NAG B   2      -0.555  -8.503  29.4070  0.00  0.00     0.000 C
ATOM     20  C4  NAG B   2      -1.537  -8.221  30.5470  0.00  0.00     0.000 C
ATOM     21  C5  NAG B   2      -1.375  -6.853  31.2240  0.00  0.00     0.000 C
ATOM     22  O5  NAG B   2      -0.990  -5.812  30.3180  0.00  0.00     0.000 O
ATOM     23   O  NAG B   2      -2.870  -8.357  30.0420  0.00  0.00     0.000 O
ATOM     25  HD  NAG B   2      -2.699  -7.967  29.2880  0.00  0.00     0.000 HD
ATOM     25   C  NAG B   2      -0.338  -6.928  32.3530  0.00  0.00     0.000 C
ATOM     26   O  NAG B   2      -0.923  -7.378  33.5830  0.00  0.00     0.000 O
ATOM     28  HD  NAG B   2      -0.753  -6.989  32.8290  0.00  0.00     0.000 HD
BRANCH 18 30
ATOM     28   N  NAG B   2      -1.015  -6.923  27.4190  0.00  0.00     0.000 N
ATOM     30  HD  NAG B   2      -1.825  -6.771  27.1520  0.00  0.00     0.000 HD
ATOM     30   C  NAG B   2      -1.218  -7.754  26.3870  0.00  0.00     0.000 C
ATOM     31   C  NAG B   2      -2.047  -7.186  25.2700  0.00  0.00     0.000 C
ATOM     32   O  NAG B   2      -0.781  -8.881  26.3440  0.00  0.00     0.000 OA
ENDBRANCH 18 30
BRANCH 17 33
ATOM     33  O4  BDP B   3      -1.616  -4.742  29.0150  0.00  0.00     0.000 O
BRANCH 33 37
ATOM     34  C1  BDP B   3      -0.967  -0.528  29.2570  0.00  0.00     0.000 C
ATOM     35  C2  BDP B   3       0.218  -1.393  28.8440  0.00  0.00     0.000 C
ATOM     36  C3  BDP B   3      -0.179  -2.788  28.3740  0.00  0.00     0.000 C
ATOM     37  C4  BDP B   3      -1.199  -3.387  29.3540  0.00  0.00     0.000 C
ATOM     38  C5  BDP B   3      -2.384  -2.406  29.4370  0.00  0.00     0.000 C
ATOM     39  O5  BDP B   3      -1.878  -1.246  30.0970  0.00  0.00     0.000 O
ATOM     40   O  BDP B   3       0.915  -0.659  27.8350  0.00  0.00     0.000 O
ATOM     42  HD  BDP B   3       1.222  -0.273  28.5470  0.00  0.00     0.000 HD
ATOM     42   O  BDP B   3       1.021  -3.558  28.3200  0.00  0.00     0.000 O
ATOM     44  HD  BDP B   3       1.327  -3.171  29.0320  0.00  0.00     0.000 HD
BRANCH 38 44
ATOM     44   C  BDP B   3      -3.573  -2.933  30.1780  0.00  0.00     0.000 C
ATOM     45   O  BDP B   3      -4.694  -2.835  29.6320  0.00  0.00     0.000 OA
ATOM     46   O  BDP B   3      -3.419  -3.449  31.3070  0.00  0.00     0.000 OA
ENDBRANCH 38 44
BRANCH 34 47
ATOM     47  O3  NAG B   4      -0.665   0.289  30.3860  0.00  0.00     0.000 O
BRANCH 47 50
ATOM     48  C1  NAG B   4      -1.892   3.838  30.1590  0.00  0.00     0.000 C
ATOM     49  C2  NAG B   4      -1.095   2.605  29.7700  0.00  0.00     0.000 C
ATOM     50  C3  NAG B   4      -1.461   1.451  30.6960  0.00  0.00     0.000 C
ATOM     51  C4  NAG B   4      -1.267   1.824  32.1580  0.00  0.00     0.000 C
ATOM     52  C5  NAG B   4      -2.035   3.108  32.4720  0.00  0.00     0.000 C
ATOM     53  O5  NAG B   4      -1.675   4.144  31.5500  0.00  0.00     0.000 O
ATOM     54   O  NAG B   4      -1.727   0.747  32.9780  0.00  0.00     0.000 O
ATOM     56  HD  NAG B   4      -1.254   1.323  33.4180  0.00  0.00     0.000 HD
ATOM     56   C  NAG B   4      -1.764   3.581  33.8960  0.00  0.00     0.000 C
ATOM     57   O  NAG B   4      -0.361   3.834  34.0450  0.00  0.00     0.000 O
ATOM     59  HD  NAG B   4       0.113   4.410  34.4850  0.00  0.00     0.000 HD
BRANCH 49 61
ATOM     59   N  NAG B   4       0.294   3.067  29.7720  0.00  0.00     0.000 N
ATOM     61  HD  NAG B   4      -0.156   2.363  29.5460  0.00  0.00     0.000 HD
ATOM     61   O  NAG B   4       0.853   2.258  27.7390  0.00  0.00     0.000 OA
ATOM     62   C  NAG B   4       1.122   2.918  28.7320  0.00  0.00     0.000 C
ATOM     63   C  NAG B   4       2.429   3.639  28.8360  0.00  0.00     0.000 C
ENDBRANCH 49 61
BRANCH 48 64
ATOM     64  O4  BDP B   5      -2.373   4.956  29.4190  0.00  0.00     0.000 O
BRANCH 64 68
ATOM     65  C1  BDP B   5      -0.947   8.851  29.8230  0.00  0.00     0.000 C
ATOM     66  C2  BDP B   5      -2.364   8.605  30.3230  0.00  0.00     0.000 C
ATOM     67  C3  BDP B   5      -2.587   7.110  30.5130  0.00  0.00     0.000 C
ATOM     68  C4  BDP B   5      -2.291   6.366  29.2160  0.00  0.00     0.000 C
ATOM     69  C5  BDP B   5      -0.911   6.698  28.6640  0.00  0.00     0.000 C
ATOM     70  O5  BDP B   5      -0.719   8.123  28.6060  0.00  0.00     0.000 O
ATOM     71   O  BDP B   5      -2.578   9.332  31.5420  0.00  0.00     0.000 O
ATOM     73  HD  BDP B   5      -2.647   9.774  32.2830  0.00  0.00     0.000 HD
ATOM     73   O  BDP B   5      -3.939   6.850  30.9100  0.00  0.00     0.000 O
ATOM     75  HD  BDP B   5      -4.008   7.292  31.6510  0.00  0.00     0.000 HD
BRANCH 69 75
ATOM     75   C  BDP B   5      -0.803   6.119  27.2770  0.00  0.00     0.000 C
ATOM     76   O  BDP B   5       0.283   5.620  26.9180  0.00  0.00     0.000 OA
ATOM     77   O  BDP B   5      -1.799   6.150  26.5310  0.00  0.00     0.000 OA
ENDBRANCH 69 75
BRANCH 65 78
ATOM     78  O3  NAG B   6      -0.517   9.932  28.9900  0.00  0.00     0.000 O
BRANCH 78 81
ATOM     79  C1  NAG B   6       1.750  12.962  29.0880  0.00  0.00     0.000 C
ATOM     80  C2  NAG B   6       0.466  12.142  29.2850  0.00  0.00     0.000 C
ATOM     81  C3  NAG B   6       0.718  10.680  28.9550  0.00  0.00     0.000 C
ATOM     82  C4  NAG B   6       1.377  10.537  27.5790  0.00  0.00     0.000 C
ATOM     83  C5  NAG B   6       2.640  11.390  27.5310  0.00  0.00     0.000 C
ATOM     84  O5  NAG B   6       2.254  12.746  27.7570  0.00  0.00     0.000 O
BRANCH 80 87
ATOM     85   N  NAG B   6      -0.768  12.753  29.7720  0.00  0.00     0.000 N
ATOM     87  HD  NAG B   6      -1.588  12.674  30.0380  0.00  0.00     0.000 HD
ATOM     87   C  NAG B   6      -1.277  12.543  30.9920  0.00  0.00     0.000 C
ATOM     88   C  NAG B   6      -2.532  13.293  31.3090  0.00  0.00     0.000 C
ATOM     89   O  NAG B   6      -0.756  11.800  31.8150  0.00  0.00     0.000 OA
ENDBRANCH 80 87
ATOM     90   O  NAG B   6       4.641  10.626  26.4090  0.00  0.00     0.000 O
ATOM     92  HD  NAG B   6       4.320  11.107  27.0540  0.00  0.00     0.000 HD
ATOM     92   O  NAG B   6       4.641  10.626  26.4090  0.00  0.00     0.000 O
ATOM     94  HD  NAG B   6       4.320  11.107  27.0540  0.00  0.00     0.000 HD
ENDBRANCH 78 81
ENDBRANCH 65 78
ENDBRANCH 64 68
ENDBRANCH 48 64
ENDBRANCH 47 50
ENDBRANCH 34 47
ENDBRANCH 33 37
ENDBRANCH 17 33
ENDBRANCH 16 19
ENDBRANCH 1 16
TORSDOF 16
ENDMDL
MODEL 65
REMARK VINA RESULT:      -8.9     10.508     20.483
ROOT
ATOM      1  C1  BDP B   1       1.521  -8.462  30.9070  0.00  0.00     0.000 C
ATOM      2  C2  BDP B   1       2.889  -7.858  30.6430  0.00  0.00     0.000 C
ATOM      3  C3  BDP B   1       3.950  -8.918  30.4410  0.00  0.00     0.000 C
ATOM      4  C4  BDP B   1       3.394 -10.316  30.1920  0.00  0.00     0.000 C
ATOM      5  C5  BDP B   1       2.288 -10.694  31.1720  0.00  0.00     0.000 C
ATOM      6  O5  BDP B   1       1.712  -9.541  31.8100  0.00  0.00     0.000 O
ATOM      7   O  BDP B   1       2.831  -7.010  29.4910  0.00  0.00     0.000 O
ATOM      9  HD  BDP B   1       2.443  -6.399  29.0160  0.00  0.00     0.000 HD
ATOM      9   O  BDP B   1       4.800  -8.987  31.5970  0.00  0.00     0.000 O
ATOM     11  HD  BDP B   1       4.411  -8.376  31.1220  0.00  0.00     0.000 HD
ATOM     11   O  BDP B   1       2.909 -10.428  28.8480  0.00  0.00     0.000 O
ATOM     13  HD  BDP B   1       2.520  -9.817  28.3740  0.00  0.00     0.000 HD
ENDROOT
BRANCH 5 13
ATOM     13   C  BDP B   1       2.894 -11.586  32.1980  0.00  0.00     0.000 C
ATOM     14   O  BDP B   1       3.839 -11.141  32.8810  0.00  0.00     0.000 OA
ATOM     15   O  BDP B   1       2.424 -12.733  32.3610  0.00  0.00     0.000 OA
ENDBRANCH 5 13
BRANCH 1 16
ATOM     16  O3  NAG B   2       0.290  -8.316  30.2010  0.00  0.00     0.000 O
BRANCH 16 19
ATOM     17  C1  NAG B   2      -2.176  -5.750  30.9660  0.00  0.00     0.000 C
ATOM     18  C2  NAG B   2      -0.856  -6.170  30.3180  0.00  0.00     0.000 C
ATOM     19  C3  NAG B   2      -0.916  -7.624  29.8760  0.00  0.00     0.000 C
ATOM     20  C4  NAG B   2      -2.113  -8.355  30.4920  0.00  0.00     0.000 C
ATOM     21  C5  NAG B   2      -2.476  -7.924  31.9190  0.00  0.00     0.000 C
ATOM     22  O5  NAG B   2      -2.271  -6.527  32.1620  0.00  0.00     0.000 O
ATOM     23   O  NAG B   2      -3.243  -8.182  29.6310  0.00  0.00     0.000 O
ATOM     25  HD  NAG B   2      -3.073  -7.351  29.4580  0.00  0.00     0.000 HD
ATOM     25   C  NAG B   2      -1.665  -8.724  32.9490  0.00  0.00     0.000 C
ATOM     26   O  NAG B   2      -2.286  -9.980  33.2550  0.00  0.00     0.000 O
ATOM     28  HD  NAG B   2      -2.116  -9.149  33.0820  0.00  0.00     0.000 HD
BRANCH 18 30
ATOM     28   N  NAG B   2      -1.641  -5.323  29.4210  0.00  0.00     0.000 N
ATOM     30  HD  NAG B   2      -2.364  -5.318  28.9440  0.00  0.00     0.000 HD
ATOM     30   C  NAG B   2      -1.262  -4.948  28.1910  0.00  0.00     0.000 C
ATOM     31   C  NAG B   2      -2.240  -4.066  27.4690  0.00  0.00     0.000 C
ATOM     32   O  NAG B   2      -0.220  -5.290  27.6820  0.00  0.00     0.000 OA
ENDBRANCH 18 30
BRANCH 17 33
ATOM     33  O4  BDP B   3      -2.961  -4.899  31.8310  0.00  0.00     0.000 O
BRANCH 33 37
ATOM     34  C1  BDP B   3      -5.765  -1.884  32.9660  0.00  0.00     0.000 C
ATOM     35  C2  BDP B   3      -6.307  -3.291  32.7410  0.00  0.00     0.000 C
ATOM     36  C3  BDP B   3      -5.230  -4.370  32.7610  0.00  0.00     0.000 C
ATOM     37  C4  BDP B   3      -4.035  -3.917  31.9100  0.00  0.00     0.000 C
ATOM     38  C5  BDP B   3      -3.560  -2.563  32.4720  0.00  0.00     0.000 C
ATOM     39  O5  BDP B   3      -4.600  -1.634  32.1700  0.00  0.00     0.000 O
ATOM     40   O  BDP B   3      -7.302  -3.501  33.7450  0.00  0.00     0.000 O
ATOM     42  HD  BDP B   3      -7.758  -3.044  33.1680  0.00  0.00     0.000 HD
ATOM     42   O  BDP B   3      -5.830  -5.557  32.2440  0.00  0.00     0.000 O
ATOM     44  HD  BDP B   3      -6.287  -5.100  31.6660  0.00  0.00     0.000 HD
BRANCH 38 44
ATOM     44   C  BDP B   3      -2.264  -2.077  31.9020  0.00  0.00     0.000 C
ATOM     45   O  BDP B   3      -1.352  -1.770  32.7010  0.00  0.00     0.000 OA
ATOM     46   O  BDP B   3      -2.128  -1.990  30.6630  0.00  0.00     0.000 OA
ENDBRANCH 38 44
BRANCH 34 47
ATOM     47  O3  NAG B   4      -6.444  -0.917  32.1670  0.00  0.00     0.000 O
BRANCH 47 50
ATOM     48  C1  NAG B   4      -8.287   1.870  33.8950  0.00  0.00     0.000 C
ATOM     49  C2  NAG B   4      -8.007   0.448  33.4400  0.00  0.00     0.000 C
ATOM     50  C3  NAG B   4      -6.694   0.413  32.6650  0.00  0.00     0.000 C
ATOM     51  C4  NAG B   4      -6.702   1.397  31.5060  0.00  0.00     0.000 C
ATOM     52  C5  NAG B   4      -7.058   2.794  32.0130  0.00  0.00     0.000 C
ATOM     53  O5  NAG B   4      -8.281   2.759  32.7600  0.00  0.00     0.000 O
ATOM     54   O  NAG B   4      -5.414   1.397  30.8870  0.00  0.00     0.000 O
ATOM     56  HD  NAG B   4      -6.016   1.788  30.4030  0.00  0.00     0.000 HD
ATOM     56   C  NAG B   4      -7.199   3.782  30.8610  0.00  0.00     0.000 C
ATOM     57   O  NAG B   4      -8.238   3.332  29.9830  0.00  0.00     0.000 O
ATOM     59  HD  NAG B   4      -8.841   3.722  29.4990  0.00  0.00     0.000 HD
BRANCH 49 61
ATOM     59   N  NAG B   4      -9.328   0.145  32.8880  0.00  0.00     0.000 N
ATOM     61  HD  NAG B   4      -8.569  -0.253  33.0150  0.00  0.00     0.000 HD
ATOM     61   O  NAG B   4      -9.533  -1.915  33.7930  0.00  0.00     0.000 OA
ATOM     62   C  NAG B   4     -10.005  -0.974  33.1710  0.00  0.00     0.000 C
ATOM     63   C  NAG B   4     -11.421  -1.012  32.6900  0.00  0.00     0.000 C
ENDBRANCH 49 61
BRANCH 48 64
ATOM     64  O4  BDP B   5      -8.984   2.411  35.0130  0.00  0.00     0.000 O
BRANCH 64 68
ATOM     65  C1  BDP B   5     -11.182   0.236  37.8070  0.00  0.00     0.000 C
ATOM     66  C2  BDP B   5     -11.854   1.488  37.2580  0.00  0.00     0.000 C
ATOM     67  C3  BDP B   5     -11.156   1.924  35.9760  0.00  0.00     0.000 C
ATOM     68  C4  BDP B   5      -9.667   2.128  36.2330  0.00  0.00     0.000 C
ATOM     69  C5  BDP B   5      -9.022   0.909  36.8800  0.00  0.00     0.000 C
ATOM     70  O5  BDP B   5      -9.784   0.481  38.0230  0.00  0.00     0.000 O
ATOM     71   O  BDP B   5     -13.250   1.230  37.0410  0.00  0.00     0.000 O
ATOM     73  HD  BDP B   5     -14.078   1.016  36.9100  0.00  0.00     0.000 HD
ATOM     73   O  BDP B   5     -11.723   3.144  35.4850  0.00  0.00     0.000 O
ATOM     75  HD  BDP B   5     -12.552   2.930  35.3540  0.00  0.00     0.000 HD
BRANCH 69 75
ATOM     75   C  BDP B   5      -7.629   1.285  37.3150  0.00  0.00     0.000 C
ATOM     76   O  BDP B   5      -6.820   0.376  37.5890  0.00  0.00     0.000 OA
ATOM     77   O  BDP B   5      -7.323   2.490  37.3850  0.00  0.00     0.000 OA
ENDBRANCH 69 75
BRANCH 65 78
ATOM     78  O3  NAG B   6     -11.095  -0.147  39.1820  0.00  0.00     0.000 O
BRANCH 78 81
ATOM     79  C1  NAG B   6     -12.504  -2.881  41.3890  0.00  0.00     0.000 C
ATOM     80  C2  NAG B   6     -12.490  -1.576  40.5790  0.00  0.00     0.000 C
ATOM     81  C3  NAG B   6     -11.179  -1.439  39.8220  0.00  0.00     0.000 C
ATOM     82  C4  NAG B   6      -9.984  -1.635  40.7620  0.00  0.00     0.000 C
ATOM     83  C5  NAG B   6     -10.123  -2.969  41.4860  0.00  0.00     0.000 C
ATOM     84  O5  NAG B   6     -11.340  -2.931  42.2330  0.00  0.00     0.000 O
BRANCH 80 87
ATOM     85   N  NAG B   6     -13.725  -1.598  39.7990  0.00  0.00     0.000 N
ATOM     87  HD  NAG B   6     -14.581  -1.476  39.7490  0.00  0.00     0.000 HD
ATOM     87   C  NAG B   6     -14.439  -0.507  39.4960  0.00  0.00     0.000 C
ATOM     88   C  NAG B   6     -15.655  -0.740  38.6570  0.00  0.00     0.000 C
ATOM     89   O  NAG B   6     -14.125   0.620  39.8610  0.00  0.00     0.000 OA
ENDBRANCH 80 87
ATOM     90   O  NAG B   6      -8.207  -4.379  41.9180  0.00  0.00     0.000 O
ATOM     92  HD  NAG B   6      -9.059  -4.355  41.7640  0.00  0.00     0.000 HD
ATOM     92   O  NAG B   6      -8.207  -4.379  41.9180  0.00  0.00     0.000 O
ATOM     94  HD  NAG B   6      -9.059  -4.355  41.7640  0.00  0.00     0.000 HD
ENDBRANCH 78 81
ENDBRANCH 65 78
ENDBRANCH 64 68
ENDBRANCH 48 64
ENDBRANCH 47 50
ENDBRANCH 34 47
ENDBRANCH 33 37
ENDBRANCH 17 33
ENDBRANCH 16 19
ENDBRANCH 1 16
TORSDOF 16
ENDMDL
MODEL 66
REMARK VINA RESULT:      -8.9     10.045     19.559
ROOT
ATOM      1  C1  BDP B   1       1.513  -8.459  31.1210  0.00  0.00     0.000 C
ATOM      2  C2  BDP B   1       2.835  -7.731  30.9540  0.00  0.00     0.000 C
ATOM      3  C3  BDP B   1       3.978  -8.683  30.6700  0.00  0.00     0.000 C
ATOM      4  C4  BDP B   1       3.533 -10.083  30.2640  0.00  0.00     0.000 C
ATOM      5  C5  BDP B   1       2.443 -10.643  31.1720  0.00  0.00     0.000 C
ATOM      6  O5  BDP B   1       1.771  -9.610  31.9120  0.00  0.00     0.000 O
ATOM      7   O  BDP B   1       2.733  -6.773  29.8950  0.00  0.00     0.000 O
ATOM      9  HD  BDP B   1       2.307  -6.146  29.4770  0.00  0.00     0.000 HD
ATOM      9   O  BDP B   1       4.811  -8.809  31.8330  0.00  0.00     0.000 O
ATOM     11  HD  BDP B   1       4.385  -8.182  31.4140  0.00  0.00     0.000 HD
ATOM     11   O  BDP B   1       3.081 -10.090  28.9050  0.00  0.00     0.000 O
ATOM     13  HD  BDP B   1       2.655  -9.463  28.4860  0.00  0.00     0.000 HD
ENDROOT
BRANCH 5 13
ATOM     13   C  BDP B   1       3.098 -11.591  32.1150  0.00  0.00     0.000 C
ATOM     14   O  BDP B   1       4.085 -11.188  32.7640  0.00  0.00     0.000 OA
ATOM     15   O  BDP B   1       2.627 -12.741  32.2460  0.00  0.00     0.000 OA
ENDBRANCH 5 13
BRANCH 1 16
ATOM     16  O3  NAG B   2       0.287  -8.330  30.4040  0.00  0.00     0.000 O
BRANCH 16 19
ATOM     17  C1  NAG B   2      -2.215  -5.776  31.0900  0.00  0.00     0.000 C
ATOM     18  C2  NAG B   2      -0.866  -6.186  30.4990  0.00  0.00     0.000 C
ATOM     19  C3  NAG B   2      -0.904  -7.634  30.0330  0.00  0.00     0.000 C
ATOM     20  C4  NAG B   2      -2.127  -8.374  30.5810  0.00  0.00     0.000 C
ATOM     21  C5  NAG B   2      -2.557  -7.965  31.9960  0.00  0.00     0.000 C
ATOM     22  O5  NAG B   2      -2.365  -6.572  32.2680  0.00  0.00     0.000 O
ATOM     23   O  NAG B   2      -3.216  -8.189  29.6700  0.00  0.00     0.000 O
ATOM     25  HD  NAG B   2      -3.038  -7.355  29.5180  0.00  0.00     0.000 HD
ATOM     25   C  NAG B   2      -1.795  -8.780  33.0500  0.00  0.00     0.000 C
ATOM     26   O  NAG B   2      -2.429 -10.040  33.3080  0.00  0.00     0.000 O
ATOM     28  HD  NAG B   2      -2.252  -9.206  33.1560  0.00  0.00     0.000 HD
BRANCH 18 30
ATOM     28   N  NAG B   2      -1.593  -5.297  29.5930  0.00  0.00     0.000 N
ATOM     30  HD  NAG B   2      -2.305  -5.256  29.1030  0.00  0.00     0.000 HD
ATOM     30   C  NAG B   2      -1.172  -4.933  28.3730  0.00  0.00     0.000 C
ATOM     31   C  NAG B   2      -2.094  -4.002  27.6390  0.00  0.00     0.000 C
ATOM     32   O  NAG B   2      -0.137  -5.320  27.8830  0.00  0.00     0.000 OA
ENDBRANCH 18 30
BRANCH 17 33
ATOM     33  O4  BDP B   3      -3.040  -4.939  31.9290  0.00  0.00     0.000 O
BRANCH 33 37
ATOM     34  C1  BDP B   3      -5.903  -1.946  32.9720  0.00  0.00     0.000 C
ATOM     35  C2  BDP B   3      -6.427  -3.356  32.7280  0.00  0.00     0.000 C
ATOM     36  C3  BDP B   3      -5.344  -4.428  32.7830  0.00  0.00     0.000 C
ATOM     37  C4  BDP B   3      -4.124  -3.965  31.9730  0.00  0.00     0.000 C
ATOM     38  C5  BDP B   3      -3.678  -2.608  32.5530  0.00  0.00     0.000 C
ATOM     39  O5  BDP B   3      -4.714  -1.686  32.2170  0.00  0.00     0.000 O
ATOM     40   O  BDP B   3      -7.454  -3.575  33.6980  0.00  0.00     0.000 O
ATOM     42  HD  BDP B   3      -7.894  -3.121  33.1060  0.00  0.00     0.000 HD
ATOM     42   O  BDP B   3      -5.917  -5.618  32.2450  0.00  0.00     0.000 O
ATOM     44  HD  BDP B   3      -6.358  -5.165  31.6530  0.00  0.00     0.000 HD
BRANCH 38 44
ATOM     44   C  BDP B   3      -2.367  -2.111  32.0270  0.00  0.00     0.000 C
ATOM     45   O  BDP B   3      -1.546  -1.646  32.8480  0.00  0.00     0.000 OA
ATOM     46   O  BDP B   3      -2.130  -2.172  30.8010  0.00  0.00     0.000 OA
ENDBRANCH 38 44
BRANCH 34 47
ATOM     47  O3  NAG B   4      -6.562  -0.983  32.1520  0.00  0.00     0.000 O
BRANCH 47 50
ATOM     48  C1  NAG B   4      -7.230   2.225  33.9980  0.00  0.00     0.000 C
ATOM     49  C2  NAG B   4      -7.260   0.730  33.7350  0.00  0.00     0.000 C
ATOM     50  C3  NAG B   4      -6.489   0.425  32.4560  0.00  0.00     0.000 C
ATOM     51  C4  NAG B   4      -7.020   1.227  31.2780  0.00  0.00     0.000 C
ATOM     52  C5  NAG B   4      -7.032   2.716  31.6270  0.00  0.00     0.000 C
ATOM     53  O5  NAG B   4      -7.740   2.936  32.8530  0.00  0.00     0.000 O
ATOM     54   O  NAG B   4      -6.193   0.982  30.1380  0.00  0.00     0.000 O
ATOM     56  HD  NAG B   4      -6.940   1.370  29.9320  0.00  0.00     0.000 HD
ATOM     56   C  NAG B   4      -7.675   3.539  30.5170  0.00  0.00     0.000 C
ATOM     57   O  NAG B   4      -9.026   3.098  30.3300  0.00  0.00     0.000 O
ATOM     59  HD  NAG B   4      -9.773   3.486  30.1240  0.00  0.00     0.000 HD
BRANCH 49 61
ATOM     59   N  NAG B   4      -8.681   0.589  34.0530  0.00  0.00     0.000 N
ATOM     61  HD  NAG B   4      -8.021   0.093  33.7920  0.00  0.00     0.000 HD
ATOM     61   O  NAG B   4      -8.514  -1.355  35.1920  0.00  0.00     0.000 OA
ATOM     62   C  NAG B   4      -9.173  -0.398  34.8120  0.00  0.00     0.000 C
ATOM     63   C  NAG B   4     -10.609  -0.258  35.2040  0.00  0.00     0.000 C
ENDBRANCH 49 61
BRANCH 48 64
ATOM     64  O4  BDP B   5      -7.277   3.001  35.1920  0.00  0.00     0.000 O
BRANCH 64 68
ATOM     65  C1  BDP B   5      -8.088   1.494  38.9930  0.00  0.00     0.000 C
ATOM     66  C2  BDP B   5      -8.949   2.667  38.5420  0.00  0.00     0.000 C
ATOM     67  C3  BDP B   5      -8.850   2.825  37.0310  0.00  0.00     0.000 C
ATOM     68  C4  BDP B   5      -7.391   2.982  36.6140  0.00  0.00     0.000 C
ATOM     69  C5  BDP B   5      -6.515   1.860  37.1570  0.00  0.00     0.000 C
ATOM     70  O5  BDP B   5      -6.730   1.688  38.5690  0.00  0.00     0.000 O
ATOM     71   O  BDP B   5     -10.306   2.459  38.9660  0.00  0.00     0.000 O
ATOM     73  HD  BDP B   5     -11.110   2.276  39.2270  0.00  0.00     0.000 HD
ATOM     73   O  BDP B   5      -9.591   3.971  36.5950  0.00  0.00     0.000 O
ATOM     75  HD  BDP B   5     -10.396   3.787  36.8560  0.00  0.00     0.000 HD
BRANCH 69 75
ATOM     75   C  BDP B   5      -5.073   2.222  36.9070  0.00  0.00     0.000 C
ATOM     76   O  BDP B   5      -4.580   3.184  37.5300  0.00  0.00     0.000 OA
ATOM     77   O  BDP B   5      -4.415   1.551  36.0910  0.00  0.00     0.000 OA
ENDBRANCH 69 75
BRANCH 65 78
ATOM     78  O3  NAG B   6      -7.435   1.357  40.2570  0.00  0.00     0.000 O
BRANCH 78 81
ATOM     79  C1  NAG B   6      -7.663  -0.842  43.3310  0.00  0.00     0.000 C
ATOM     80  C2  NAG B   6      -8.030   0.301  42.3720  0.00  0.00     0.000 C
ATOM     81  C3  NAG B   6      -7.208   0.204  41.0970  0.00  0.00     0.000 C
ATOM     82  C4  NAG B   6      -5.716   0.076  41.4180  0.00  0.00     0.000 C
ATOM     83  C5  NAG B   6      -5.499  -1.100  42.3640  0.00  0.00     0.000 C
ATOM     84  O5  NAG B   6      -6.242  -0.838  43.5550  0.00  0.00     0.000 O
BRANCH 80 87
ATOM     85   N  NAG B   6      -9.483   0.244  42.2330  0.00  0.00     0.000 N
ATOM     87  HD  NAG B   6     -10.272   0.414  42.5470  0.00  0.00     0.000 HD
ATOM     87   C  NAG B   6     -10.266   1.321  42.1000  0.00  0.00     0.000 C
ATOM     88   C  NAG B   6     -11.727   1.045  41.9360  0.00  0.00     0.000 C
ATOM     89   O  NAG B   6      -9.832   2.467  42.0950  0.00  0.00     0.000 OA
ENDBRANCH 80 87
ATOM     90   O  NAG B   6      -3.586  -2.562  42.1460  0.00  0.00     0.000 O
ATOM     92  HD  NAG B   6      -4.415  -2.498  42.3890  0.00  0.00     0.000 HD
ATOM     92   O  NAG B   6      -3.586  -2.562  42.1460  0.00  0.00     0.000 O
ATOM     94  HD  NAG B   6      -4.415  -2.498  42.3890  0.00  0.00     0.000 HD
ENDBRANCH 78 81
ENDBRANCH 65 78
ENDBRANCH 64 68
ENDBRANCH 48 64
ENDBRANCH 47 50
ENDBRANCH 34 47
ENDBRANCH 33 37
ENDBRANCH 17 33
ENDBRANCH 16 19
ENDBRANCH 1 16
TORSDOF 16
ENDMDL
MODEL 67
REMARK VINA RESULT:      -8.9     32.230     37.173
ROOT
ATOM      1  C1  BDP B   1      -9.106 -48.540  46.2960  0.00  0.00     0.000 C
ATOM      2  C2  BDP B   1      -9.021 -48.759  44.7960  0.00  0.00     0.000 C
ATOM      3  C3  BDP B   1     -10.342 -48.492  44.1050  0.00  0.00     0.000 C
ATOM      4  C4  BDP B   1     -11.350 -47.737  44.9640  0.00  0.00     0.000 C
ATOM      5  C5  BDP B   1     -11.467 -48.306  46.3750  0.00  0.00     0.000 C
ATOM      6  O5  BDP B   1     -10.331 -49.112  46.7300  0.00  0.00     0.000 O
ATOM      7   O  BDP B   1      -8.007 -47.917  44.2370  0.00  0.00     0.000 O
ATOM      9  HD  BDP B   1      -7.215 -47.567  44.2550  0.00  0.00     0.000 HD
ATOM      9   O  BDP B   1     -10.948 -49.733  43.7100  0.00  0.00     0.000 O
ATOM     11  HD  BDP B   1     -10.156 -49.383  43.7280  0.00  0.00     0.000 HD
ATOM     11   O  BDP B   1     -11.009 -46.347  45.0300  0.00  0.00     0.000 O
ATOM     13  HD  BDP B   1     -10.217 -45.997  45.0480  0.00  0.00     0.000 HD
ENDROOT
BRANCH 5 13
ATOM     13   C  BDP B   1     -12.703 -49.136  46.4150  0.00  0.00     0.000 C
ATOM     14   O  BDP B   1     -12.599 -50.359  46.1850  0.00  0.00     0.000 OA
ATOM     15   O  BDP B   1     -13.791 -48.592  46.7000  0.00  0.00     0.000 OA
ENDBRANCH 5 13
BRANCH 1 16
ATOM     16  O3  NAG B   2      -8.373 -47.660  47.1470  0.00  0.00     0.000 O
BRANCH 16 19
ATOM     17  C1  NAG B   2      -7.477 -44.184  46.5400  0.00  0.00     0.000 C
ATOM     18  C2  NAG B   2      -8.541 -45.265  46.7310  0.00  0.00     0.000 C
ATOM     19  C3  NAG B   2      -8.026 -46.367  47.6450  0.00  0.00     0.000 C
ATOM     20  C4  NAG B   2      -6.510 -46.279  47.8410  0.00  0.00     0.000 C
ATOM     21  C5  NAG B   2      -5.720 -45.807  46.6130  0.00  0.00     0.000 C
ATOM     22  O5  NAG B   2      -6.413 -44.825  45.8330  0.00  0.00     0.000 O
ATOM     23   O  NAG B   2      -6.245 -45.414  48.9500  0.00  0.00     0.000 O
ATOM     25  HD  NAG B   2      -6.856 -44.838  48.7370  0.00  0.00     0.000 HD
ATOM     25   C  NAG B   2      -5.370 -46.995  45.7060  0.00  0.00     0.000 C
ATOM     26   O  NAG B   2      -4.167 -47.651  46.1290  0.00  0.00     0.000 O
ATOM     28  HD  NAG B   2      -4.778 -47.075  45.9160  0.00  0.00     0.000 HD
BRANCH 18 30
ATOM     28   N  NAG B   2      -8.842 -44.080  47.5330  0.00  0.00     0.000 N
ATOM     30  HD  NAG B   2      -8.590 -43.654  48.2440  0.00  0.00     0.000 HD
ATOM     30   C  NAG B   2      -9.951 -43.912  48.2680  0.00  0.00     0.000 C
ATOM     31   C  NAG B   2     -10.033 -42.601  48.9960  0.00  0.00     0.000 C
ATOM     32   O  NAG B   2     -10.825 -44.743  48.3550  0.00  0.00     0.000 OA
ENDBRANCH 18 30
BRANCH 17 33
ATOM     33  O4  BDP B   3      -6.886 -43.090  45.8060  0.00  0.00     0.000 O
BRANCH 33 37
ATOM     34  C1  BDP B   3      -3.172 -41.085  45.1460  0.00  0.00     0.000 C
ATOM     35  C2  BDP B   3      -3.567 -41.362  46.5910  0.00  0.00     0.000 C
ATOM     36  C3  BDP B   3      -4.652 -42.424  46.7360  0.00  0.00     0.000 C
ATOM     37  C4  BDP B   3      -5.775 -42.149  45.7240  0.00  0.00     0.000 C
ATOM     38  C5  BDP B   3      -5.132 -42.112  44.3250  0.00  0.00     0.000 C
ATOM     39  O5  BDP B   3      -4.321 -40.937  44.3030  0.00  0.00     0.000 O
ATOM     40   O  BDP B   3      -2.364 -41.722  47.2720  0.00  0.00     0.000 O
ATOM     42  HD  BDP B   3      -2.290 -40.859  47.2750  0.00  0.00     0.000 HD
ATOM     42   O  BDP B   3      -5.120 -42.351  48.0810  0.00  0.00     0.000 O
ATOM     44  HD  BDP B   3      -5.046 -41.488  48.0830  0.00  0.00     0.000 HD
BRANCH 38 44
ATOM     44   C  BDP B   3      -6.111 -42.073  43.1940  0.00  0.00     0.000 C
ATOM     45   O  BDP B   3      -6.696 -40.992  42.9630  0.00  0.00     0.000 OA
ATOM     46   O  BDP B   3      -6.319 -43.106  42.5200  0.00  0.00     0.000 OA
ENDBRANCH 38 44
BRANCH 34 47
ATOM     47  O3  NAG B   4      -2.905 -39.702  44.9210  0.00  0.00     0.000 O
BRANCH 47 50
ATOM     48  C1  NAG B   4       0.221 -39.006  42.9490  0.00  0.00     0.000 C
ATOM     49  C2  NAG B   4      -0.619 -39.527  44.1010  0.00  0.00     0.000 C
ATOM     50  C3  NAG B   4      -2.093 -39.274  43.8080  0.00  0.00     0.000 C
ATOM     51  C4  NAG B   4      -2.363 -37.806  43.5180  0.00  0.00     0.000 C
ATOM     52  C5  NAG B   4      -1.440 -37.320  42.4000  0.00  0.00     0.000 C
ATOM     53  O5  NAG B   4      -0.074 -37.614  42.7160  0.00  0.00     0.000 O
ATOM     54   O  NAG B   4      -3.734 -37.649  43.1450  0.00  0.00     0.000 O
ATOM     56  HD  NAG B   4      -3.350 -36.895  43.3300  0.00  0.00     0.000 HD
ATOM     56   C  NAG B   4      -1.594 -35.822  42.1670  0.00  0.00     0.000 C
ATOM     57   O  NAG B   4      -1.262 -35.125  43.3750  0.00  0.00     0.000 O
ATOM     59  HD  NAG B   4      -0.877 -34.371  43.5600  0.00  0.00     0.000 HD
BRANCH 49 61
ATOM     59   N  NAG B   4      -0.170 -38.873  45.3310  0.00  0.00     0.000 N
ATOM     61  HD  NAG B   4      -0.681 -39.531  45.0940  0.00  0.00     0.000 HD
ATOM     61   O  NAG B   4       0.175 -40.755  46.5300  0.00  0.00     0.000 OA
ATOM     62   C  NAG B   4       0.256 -39.541  46.4090  0.00  0.00     0.000 C
ATOM     63   C  NAG B   4       0.874 -38.707  47.4850  0.00  0.00     0.000 C
ENDBRANCH 49 61
BRANCH 48 64
ATOM     64  O4  BDP B   5       1.482 -39.397  42.4130  0.00  0.00     0.000 O
BRANCH 64 68
ATOM     65  C1  BDP B   5       5.090 -41.438  41.9800  0.00  0.00     0.000 C
ATOM     66  C2  BDP B   5       4.298 -41.744  43.2440  0.00  0.00     0.000 C
ATOM     67  C3  BDP B   5       2.857 -41.285  43.0690  0.00  0.00     0.000 C
ATOM     68  C4  BDP B   5       2.818 -39.805  42.7040  0.00  0.00     0.000 C
ATOM     69  C5  BDP B   5       3.696 -39.487  41.5010  0.00  0.00     0.000 C
ATOM     70  O5  BDP B   5       5.014 -40.036  41.6770  0.00  0.00     0.000 O
ATOM     71   O  BDP B   5       4.376 -43.148  43.5330  0.00  0.00     0.000 O
ATOM     73  HD  BDP B   5       4.439 -44.004  43.6490  0.00  0.00     0.000 HD
ATOM     73   O  BDP B   5       2.113 -41.493  44.2760  0.00  0.00     0.000 O
ATOM     75  HD  BDP B   5       2.176 -42.349  44.3930  0.00  0.00     0.000 HD
BRANCH 69 75
ATOM     75   C  BDP B   5       3.789 -37.988  41.3650  0.00  0.00     0.000 C
ATOM     76   O  BDP B   5       4.543 -37.362  42.1370  0.00  0.00     0.000 OA
ATOM     77   O  BDP B   5       3.115 -37.419  40.4870  0.00  0.00     0.000 OA
ENDBRANCH 69 75
BRANCH 65 78
ATOM     78  O3  NAG B   6       6.488 -41.147  41.9030  0.00  0.00     0.000 O
BRANCH 78 81
ATOM     79  C1  NAG B   6       9.304 -42.431  39.7220  0.00  0.00     0.000 C
ATOM     80  C2  NAG B   6       8.212 -42.472  40.8030  0.00  0.00     0.000 C
ATOM     81  C3  NAG B   6       7.413 -41.179  40.7940  0.00  0.00     0.000 C
ATOM     82  C4  NAG B   6       8.342 -39.962  40.8530  0.00  0.00     0.000 C
ATOM     83  C5  NAG B   6       9.360 -40.047  39.7210  0.00  0.00     0.000 C
ATOM     84  O5  NAG B   6      10.108 -41.251  39.9010  0.00  0.00     0.000 O
BRANCH 80 87
ATOM     85   N  NAG B   6       7.476 -43.711  40.5670  0.00  0.00     0.000 N
ATOM     87  HD  NAG B   6       7.416 -44.572  40.6420  0.00  0.00     0.000 HD
ATOM     87   C  NAG B   6       6.960 -44.472  41.5400  0.00  0.00     0.000 C
ATOM     88   C  NAG B   6       6.210 -45.684  41.0860  0.00  0.00     0.000 C
ATOM     89   O  NAG B   6       7.070 -44.202  42.7300  0.00  0.00     0.000 OA
ENDBRANCH 80 87
ATOM     90   O  NAG B   6      10.060 -38.080  38.5000  0.00  0.00     0.000 O
ATOM     92  HD  NAG B   6       9.926 -38.935  38.4650  0.00  0.00     0.000 HD
ATOM     92   O  NAG B   6      10.060 -38.080  38.5000  0.00  0.00     0.000 O
ATOM     94  HD  NAG B   6       9.926 -38.935  38.4650  0.00  0.00     0.000 HD
ENDBRANCH 78 81
ENDBRANCH 65 78
ENDBRANCH 64 68
ENDBRANCH 48 64
ENDBRANCH 47 50
ENDBRANCH 34 47
ENDBRANCH 33 37
ENDBRANCH 17 33
ENDBRANCH 16 19
ENDBRANCH 1 16
TORSDOF 16
ENDMDL
MODEL 68
REMARK VINA RESULT:      -8.9     31.572     39.577
ROOT
ATOM      1  C1  BDP B   1      17.213 -34.512  47.8670  0.00  0.00     0.000 C
ATOM      2  C2  BDP B   1      16.148 -35.495  47.4140  0.00  0.00     0.000 C
ATOM      3  C3  BDP B   1      16.257 -35.812  45.9380  0.00  0.00     0.000 C
ATOM      4  C4  BDP B   1      17.576 -35.385  45.3050  0.00  0.00     0.000 C
ATOM      5  C5  BDP B   1      17.981 -33.964  45.6880  0.00  0.00     0.000 C
ATOM      6  O5  BDP B   1      17.300 -33.506  46.8680  0.00  0.00     0.000 O
ATOM      7   O  BDP B   1      16.248 -36.704  48.1740  0.00  0.00     0.000 O
ATOM      9  HD  BDP B   1      16.350 -37.123  48.9250  0.00  0.00     0.000 HD
ATOM      9   O  BDP B   1      15.197 -35.162  45.2180  0.00  0.00     0.000 O
ATOM     11  HD  BDP B   1      15.299 -35.581  45.9690  0.00  0.00     0.000 HD
ATOM     11   O  BDP B   1      18.621 -36.298  45.6630  0.00  0.00     0.000 O
ATOM     13  HD  BDP B   1      18.723 -36.717  46.4140  0.00  0.00     0.000 HD
ENDROOT
BRANCH 5 13
ATOM     13   C  BDP B   1      17.640 -33.084  44.5370  0.00  0.00     0.000 C
ATOM     14   O  BDP B   1      17.303 -33.622  43.4630  0.00  0.00     0.000 OA
ATOM     15   O  BDP B   1      17.675 -31.844  44.6890  0.00  0.00     0.000 OA
ENDBRANCH 5 13
BRANCH 1 16
ATOM     16  O3  NAG B   2      18.227 -34.636  48.8620  0.00  0.00     0.000 O
BRANCH 16 19
ATOM     17  C1  NAG B   2      18.899 -35.149  52.4030  0.00  0.00     0.000 C
ATOM     18  C2  NAG B   2      18.057 -35.432  51.1590  0.00  0.00     0.000 C
ATOM     19  C3  NAG B   2      18.910 -35.337  49.9020  0.00  0.00     0.000 C
ATOM     20  C4  NAG B   2      20.257 -34.663  50.1810  0.00  0.00     0.000 C
ATOM     21  C5  NAG B   2      20.219 -33.538  51.2240  0.00  0.00     0.000 C
ATOM     22  O5  NAG B   2      19.291 -33.779  52.2880  0.00  0.00     0.000 O
ATOM     23   O  NAG B   2      21.193 -35.668  50.5840  0.00  0.00     0.000 O
ATOM     25  HD  NAG B   2      20.625 -36.099  51.0770  0.00  0.00     0.000 HD
ATOM     25   C  NAG B   2      19.870 -32.198  50.5620  0.00  0.00     0.000 C
ATOM     26   O  NAG B   2      21.032 -31.552  50.0240  0.00  0.00     0.000 O
ATOM     28  HD  NAG B   2      20.464 -31.983  50.5160  0.00  0.00     0.000 HD
BRANCH 18 30
ATOM     28   N  NAG B   2      18.635 -36.766  51.3110  0.00  0.00     0.000 N
ATOM     30  HD  NAG B   2      19.040 -37.390  50.8670  0.00  0.00     0.000 HD
ATOM     30   C  NAG B   2      17.932 -37.886  51.5350  0.00  0.00     0.000 C
ATOM     31   C  NAG B   2      18.758 -39.134  51.6650  0.00  0.00     0.000 C
ATOM     32   O  NAG B   2      16.727 -37.910  51.6230  0.00  0.00     0.000 OA
ENDBRANCH 18 30
BRANCH 17 33
ATOM     33  O4  BDP B   3      19.044 -34.748  53.7830  0.00  0.00     0.000 O
BRANCH 33 37
ATOM     34  C1  BDP B   3      17.866 -33.911  57.8020  0.00  0.00     0.000 C
ATOM     35  C2  BDP B   3      17.164 -35.064  57.0960  0.00  0.00     0.000 C
ATOM     36  C3  BDP B   3      17.906 -35.569  55.8630  0.00  0.00     0.000 C
ATOM     37  C4  BDP B   3      18.355 -34.372  55.0120  0.00  0.00     0.000 C
ATOM     38  C5  BDP B   3      19.210 -33.462  55.9150  0.00  0.00     0.000 C
ATOM     39  O5  BDP B   3      18.306 -32.913  56.8740  0.00  0.00     0.000 O
ATOM     40   O  BDP B   3      16.989 -36.087  58.0790  0.00  0.00     0.000 O
ATOM     42  HD  BDP B   3      16.322 -35.571  58.2730  0.00  0.00     0.000 HD
ATOM     42   O  BDP B   3      16.999 -36.413  55.1560  0.00  0.00     0.000 O
ATOM     44  HD  BDP B   3      16.332 -35.896  55.3510  0.00  0.00     0.000 HD
BRANCH 38 44
ATOM     44   C  BDP B   3      19.915 -32.358  55.1920  0.00  0.00     0.000 C
ATOM     45   O  BDP B   3      19.283 -31.299  54.9810  0.00  0.00     0.000 OA
ATOM     46   O  BDP B   3      21.098 -32.518  54.8210  0.00  0.00     0.000 OA
ENDBRANCH 38 44
BRANCH 34 47
ATOM     47  O3  NAG B   4      16.940 -32.949  58.3040  0.00  0.00     0.000 O
BRANCH 47 50
ATOM     48  C1  NAG B   4      16.330 -32.323  61.9630  0.00  0.00     0.000 C
ATOM     49  C2  NAG B   4      16.177 -33.007  60.6160  0.00  0.00     0.000 C
ATOM     50  C3  NAG B   4      17.118 -32.357  59.6080  0.00  0.00     0.000 C
ATOM     51  C4  NAG B   4      16.892 -30.856  59.5190  0.00  0.00     0.000 C
ATOM     52  C5  NAG B   4      16.988 -30.234  60.9120  0.00  0.00     0.000 C
ATOM     53  O5  NAG B   4      16.108 -30.906  61.8220  0.00  0.00     0.000 O
ATOM     54   O  NAG B   4      17.871 -30.289  58.6430  0.00  0.00     0.000 O
ATOM     56  HD  NAG B   4      17.220 -29.744  58.8140  0.00  0.00     0.000 HD
ATOM     56   C  NAG B   4      16.644 -28.749  60.8790  0.00  0.00     0.000 C
ATOM     57   O  NAG B   4      15.304 -28.590  60.3940  0.00  0.00     0.000 O
ATOM     59  HD  NAG B   4      14.653 -28.045  60.5650  0.00  0.00     0.000 HD
BRANCH 49 61
ATOM     59   N  NAG B   4      16.097 -34.353  61.1840  0.00  0.00     0.000 N
ATOM     61  HD  NAG B   4      15.561 -33.734  60.9030  0.00  0.00     0.000 HD
ATOM     61   O  NAG B   4      14.464 -35.124  59.8280  0.00  0.00     0.000 OA
ATOM     62   C  NAG B   4      15.303 -35.314  60.6960  0.00  0.00     0.000 C
ATOM     63   C  NAG B   4      15.514 -36.680  61.2680  0.00  0.00     0.000 C
ENDBRANCH 49 61
BRANCH 48 64
ATOM     64  O4  BDP B   5      16.165 -32.773  63.3040  0.00  0.00     0.000 O
BRANCH 64 68
ATOM     65  C1  BDP B   5      14.812 -33.788  67.1130  0.00  0.00     0.000 C
ATOM     66  C2  BDP B   5      13.854 -34.080  65.9660  0.00  0.00     0.000 C
ATOM     67  C3  BDP B   5      14.617 -34.071  64.6470  0.00  0.00     0.000 C
ATOM     68  C4  BDP B   5      15.346 -32.743  64.4720  0.00  0.00     0.000 C
ATOM     69  C5  BDP B   5      16.222 -32.406  65.6710  0.00  0.00     0.000 C
ATOM     70  O5  BDP B   5      15.476 -32.533  66.8950  0.00  0.00     0.000 O
ATOM     71   O  BDP B   5      13.201 -35.339  66.1920  0.00  0.00     0.000 O
ATOM     73  HD  BDP B   5      12.851 -36.112  66.3670  0.00  0.00     0.000 HD
ATOM     73   O  BDP B   5      13.721 -34.267  63.5470  0.00  0.00     0.000 O
ATOM     75  HD  BDP B   5      13.372 -35.040  63.7210  0.00  0.00     0.000 HD
BRANCH 69 75
ATOM     75   C  BDP B   5      16.703 -30.985  65.5210  0.00  0.00     0.000 C
ATOM     76   O  BDP B   5      17.900 -30.729  65.7630  0.00  0.00     0.000 OA
ATOM     77   O  BDP B   5      15.896 -30.110  65.1570  0.00  0.00     0.000 OA
ENDBRANCH 69 75
BRANCH 65 78
ATOM     78  O3  NAG B   6      14.486 -33.142  68.3470  0.00  0.00     0.000 O
BRANCH 78 81
ATOM     79  C1  NAG B   6      15.851 -33.470  71.8630  0.00  0.00     0.000 C
ATOM     80  C2  NAG B   6      15.123 -33.891  70.5760  0.00  0.00     0.000 C
ATOM     81  C3  NAG B   6      15.291 -32.827  69.5040  0.00  0.00     0.000 C
ATOM     82  C4  NAG B   6      14.913 -31.443  70.0430  0.00  0.00     0.000 C
ATOM     83  C5  NAG B   6      15.717 -31.155  71.3060  0.00  0.00     0.000 C
ATOM     84  O5  NAG B   6      15.395 -32.165  72.2630  0.00  0.00     0.000 O
BRANCH 80 87
ATOM     85   N  NAG B   6      14.348 -35.089  70.2680  0.00  0.00     0.000 N
ATOM     87  HD  NAG B   6      14.025 -35.642  69.6850  0.00  0.00     0.000 HD
ATOM     87   C  NAG B   6      14.868 -36.200  69.7300  0.00  0.00     0.000 C
ATOM     88   C  NAG B   6      13.911 -37.330  69.5240  0.00  0.00     0.000 C
ATOM     89   O  NAG B   6      16.052 -36.307  69.4330  0.00  0.00     0.000 OA
ENDBRANCH 80 87
ATOM     90   O  NAG B   6      16.592 -28.949  71.7720  0.00  0.00     0.000 O
ATOM     92  HD  NAG B   6      16.706 -29.802  71.8740  0.00  0.00     0.000 HD
ATOM     92   O  NAG B   6      16.592 -28.949  71.7720  0.00  0.00     0.000 O
ATOM     94  HD  NAG B   6      16.706 -29.802  71.8740  0.00  0.00     0.000 HD
ENDBRANCH 78 81
ENDBRANCH 65 78
ENDBRANCH 64 68
ENDBRANCH 48 64
ENDBRANCH 47 50
ENDBRANCH 34 47
ENDBRANCH 33 37
ENDBRANCH 17 33
ENDBRANCH 16 19
ENDBRANCH 1 16
TORSDOF 16
ENDMDL
MODEL 69
REMARK VINA RESULT:      -8.9     28.348     31.980
ROOT
ATOM      1  C1  BDP B   1       3.043  15.479  14.7600  0.00  0.00     0.000 C
ATOM      2  C2  BDP B   1       2.060  14.645  15.5610  0.00  0.00     0.000 C
ATOM      3  C3  BDP B   1       0.713  15.323  15.6930  0.00  0.00     0.000 C
ATOM      4  C4  BDP B   1       0.506  16.488  14.7300  0.00  0.00     0.000 C
ATOM      5  C5  BDP B   1       1.700  17.436  14.6860  0.00  0.00     0.000 C
ATOM      6  O5  BDP B   1       2.898  16.823  15.1940  0.00  0.00     0.000 O
ATOM      7   O  BDP B   1       1.894  13.363  14.9460  0.00  0.00     0.000 O
ATOM      9  HD  BDP B   1       2.218  12.657  14.5630  0.00  0.00     0.000 HD
ATOM      9   O  BDP B   1       0.546  15.827  17.0280  0.00  0.00     0.000 O
ATOM     11  HD  BDP B   1       0.869  15.121  16.6440  0.00  0.00     0.000 HD
ATOM     11   O  BDP B   1       0.225  16.002  13.4120  0.00  0.00     0.000 O
ATOM     13  HD  BDP B   1       0.549  15.296  13.0290  0.00  0.00     0.000 HD
ENDROOT
BRANCH 5 13
ATOM     13   C  BDP B   1       1.352  18.622  15.5160  0.00  0.00     0.000 C
ATOM     14   O  BDP B   1       2.221  19.504  15.6770  0.00  0.00     0.000 OA
ATOM     15   O  BDP B   1       0.203  18.710  15.9980  0.00  0.00     0.000 OA
ENDBRANCH 5 13
BRANCH 1 16
ATOM     16  O3  NAG B   2       3.753  15.177  13.5600  0.00  0.00     0.000 O
BRANCH 16 19
ATOM     17  C1  NAG B   2       6.985  14.682  11.9590  0.00  0.00     0.000 C
ATOM     18  C2  NAG B   2       6.082  14.565  13.1870  0.00  0.00     0.000 C
ATOM     19  C3  NAG B   2       4.632  14.376  12.7680  0.00  0.00     0.000 C
ATOM     20  C4  NAG B   2       4.423  14.693  11.2850  0.00  0.00     0.000 C
ATOM     21  C5  NAG B   2       5.284  15.839  10.7370  0.00  0.00     0.000 C
ATOM     22  O5  NAG B   2       6.592  15.898  11.3190  0.00  0.00     0.000 O
ATOM     23   O  NAG B   2       4.662  13.502  10.5280  0.00  0.00     0.000 O
ATOM     25  HD  NAG B   2       5.347  13.257  10.9970  0.00  0.00     0.000 HD
ATOM     25   C  NAG B   2       4.590  17.191  10.9560  0.00  0.00     0.000 C
ATOM     26   O  NAG B   2       3.663  17.489   9.9030  0.00  0.00     0.000 O
ATOM     28  HD  NAG B   2       4.347  17.243  10.3720  0.00  0.00     0.000 HD
BRANCH 18 30
ATOM     28   N  NAG B   2       6.028  13.110  13.0540  0.00  0.00     0.000 N
ATOM     30  HD  NAG B   2       5.518  12.428  13.2110  0.00  0.00     0.000 HD
ATOM     30   C  NAG B   2       6.782  12.247  13.7500  0.00  0.00     0.000 C
ATOM     31   C  NAG B   2       6.548  10.799  13.4250  0.00  0.00     0.000 C
ATOM     32   O  NAG B   2       7.587  12.588  14.5850  0.00  0.00     0.000 OA
ENDBRANCH 18 30
BRANCH 17 33
ATOM     33  O4  BDP B   3       8.204  15.099  11.3050  0.00  0.00     0.000 O
BRANCH 33 37
ATOM     34  C1  BDP B   3      11.241  12.978   9.1790  0.00  0.00     0.000 C
ATOM     35  C2  BDP B   3      11.596  13.499  10.5670  0.00  0.00     0.000 C
ATOM     36  C3  BDP B   3      10.380  13.854  11.4150  0.00  0.00     0.000 C
ATOM     37  C4  BDP B   3       9.390  14.673  10.5730  0.00  0.00     0.000 C
ATOM     38  C5  BDP B   3       9.047  13.834   9.3260  0.00  0.00     0.000 C
ATOM     39  O5  BDP B   3      10.244  13.791   8.5490  0.00  0.00     0.000 O
ATOM     40   O  BDP B   3      12.404  12.490  11.1770  0.00  0.00     0.000 O
ATOM     42  HD  BDP B   3      12.997  12.888  10.6860  0.00  0.00     0.000 HD
ATOM     42   O  BDP B   3      10.863  14.595  12.5340  0.00  0.00     0.000 O
ATOM     44  HD  BDP B   3      11.456  14.992  12.0430  0.00  0.00     0.000 HD
BRANCH 38 44
ATOM     44   C  BDP B   3       7.926  14.383   8.5000  0.00  0.00     0.000 C
ATOM     45   O  BDP B   3       6.869  13.717   8.4320  0.00  0.00     0.000 OA
ATOM     46   O  BDP B   3       8.071  15.474   7.9080  0.00  0.00     0.000 OA
ENDBRANCH 38 44
BRANCH 34 47
ATOM     47  O3  NAG B   4      12.156  13.439   8.1870  0.00  0.00     0.000 O
BRANCH 47 50
ATOM     48  C1  NAG B   4      13.535  10.813   5.8730  0.00  0.00     0.000 C
ATOM     49  C2  NAG B   4      13.289  11.528   7.1900  0.00  0.00     0.000 C
ATOM     50  C3  NAG B   4      12.350  12.706   6.9590  0.00  0.00     0.000 C
ATOM     51  C4  NAG B   4      12.884  13.644   5.8880  0.00  0.00     0.000 C
ATOM     52  C5  NAG B   4      13.179  12.858   4.6100  0.00  0.00     0.000 C
ATOM     53  O5  NAG B   4      14.037  11.745   4.8950  0.00  0.00     0.000 O
ATOM     54   O  NAG B   4      11.915  14.666   5.6390  0.00  0.00     0.000 O
ATOM     56  HD  NAG B   4      12.690  14.852   5.3010  0.00  0.00     0.000 HD
ATOM     56   C  NAG B   4      13.833  13.742   3.5550  0.00  0.00     0.000 C
ATOM     57   O  NAG B   4      15.065  14.258   4.0740  0.00  0.00     0.000 O
ATOM     59  HD  NAG B   4      15.840  14.444   3.7370  0.00  0.00     0.000 HD
BRANCH 49 61
ATOM     59   N  NAG B   4      13.137  10.306   7.9810  0.00  0.00     0.000 N
ATOM     61  HD  NAG B   4      13.754  10.881   7.7870  0.00  0.00     0.000 HD
ATOM     61   O  NAG B   4      14.321  10.995   9.7770  0.00  0.00     0.000 OA
ATOM     62   C  NAG B   4      13.601  10.173   9.2290  0.00  0.00     0.000 C
ATOM     63   C  NAG B   4      13.167   8.938   9.9530  0.00  0.00     0.000 C
ENDBRANCH 49 61
BRANCH 48 64
ATOM     64  O4  BDP B   5      13.834   9.459   5.5450  0.00  0.00     0.000 O
BRANCH 64 68
ATOM     65  C1  BDP B   5      15.193   5.863   3.9350  0.00  0.00     0.000 C
ATOM     66  C2  BDP B   5      16.270   6.852   4.3620  0.00  0.00     0.000 C
ATOM     67  C3  BDP B   5      15.668   7.892   5.2990  0.00  0.00     0.000 C
ATOM     68  C4  BDP B   5      14.482   8.577   4.6300  0.00  0.00     0.000 C
ATOM     69  C5  BDP B   5      13.458   7.577   4.1120  0.00  0.00     0.000 C
ATOM     70  O5  BDP B   5      14.098   6.560   3.3200  0.00  0.00     0.000 O
ATOM     71   O  BDP B   5      17.355   6.145   4.9800  0.00  0.00     0.000 O
ATOM     73  HD  BDP B   5      17.972   5.672   5.3620  0.00  0.00     0.000 HD
ATOM     73   O  BDP B   5      16.647   8.877   5.6510  0.00  0.00     0.000 O
ATOM     75  HD  BDP B   5      17.264   8.404   6.0330  0.00  0.00     0.000 HD
BRANCH 69 75
ATOM     75   C  BDP B   5      12.457   8.320   3.2630  0.00  0.00     0.000 C
ATOM     76   O  BDP B   5      12.849   8.860   2.2090  0.00  0.00     0.000 OA
ATOM     77   O  BDP B   5      11.270   8.370   3.6340  0.00  0.00     0.000 OA
ENDBRANCH 69 75
BRANCH 65 78
ATOM     78  O3  NAG B   6      15.138   5.150   2.6970  0.00  0.00     0.000 O
BRANCH 78 81
ATOM     79  C1  NAG B   6      15.268   1.542   1.5570  0.00  0.00     0.000 C
ATOM     80  C2  NAG B   6      15.801   2.894   2.0570  0.00  0.00     0.000 C
ATOM     81  C3  NAG B   6      14.646   3.830   2.3740  0.00  0.00     0.000 C
ATOM     82  C4  NAG B   6      13.669   3.910   1.1960  0.00  0.00     0.000 C
ATOM     83  C5  NAG B   6      13.216   2.505   0.8180  0.00  0.00     0.000 C
ATOM     84  O5  NAG B   6      14.378   1.761   0.4490  0.00  0.00     0.000 O
BRANCH 80 87
ATOM     85   N  NAG B   6      16.705   2.587   3.1620  0.00  0.00     0.000 N
ATOM     87  HD  NAG B   6      17.476   2.310   3.4440  0.00  0.00     0.000 HD
ATOM     87   C  NAG B   6      17.841   3.253   3.4080  0.00  0.00     0.000 C
ATOM     88   C  NAG B   6      18.608   2.804   4.6110  0.00  0.00     0.000 C
ATOM     89   O  NAG B   6      18.235   4.182   2.7130  0.00  0.00     0.000 OA
ENDBRANCH 80 87
ATOM     90   O  NAG B   6      10.936   2.047   0.1550  0.00  0.00     0.000 O
ATOM     92  HD  NAG B   6      11.649   1.733   0.5330  0.00  0.00     0.000 HD
ATOM     92   O  NAG B   6      10.936   2.047   0.1550  0.00  0.00     0.000 O
ATOM     94  HD  NAG B   6      11.649   1.733   0.5330  0.00  0.00     0.000 HD
ENDBRANCH 78 81
ENDBRANCH 65 78
ENDBRANCH 64 68
ENDBRANCH 48 64
ENDBRANCH 47 50
ENDBRANCH 34 47
ENDBRANCH 33 37
ENDBRANCH 17 33
ENDBRANCH 16 19
ENDBRANCH 1 16
TORSDOF 16
ENDMDL
MODEL 70
REMARK VINA RESULT:      -8.8     30.411     36.769
ROOT
ATOM      1  C1  BDP B   1      -5.336 -46.257  46.1930  0.00  0.00     0.000 C
ATOM      2  C2  BDP B   1      -6.096 -47.346  46.9290  0.00  0.00     0.000 C
ATOM      3  C3  BDP B   1      -5.176 -48.425  47.4590  0.00  0.00     0.000 C
ATOM      4  C4  BDP B   1      -3.702 -48.035  47.4670  0.00  0.00     0.000 C
ATOM      5  C5  BDP B   1      -3.253 -47.396  46.1560  0.00  0.00     0.000 C
ATOM      6  O5  BDP B   1      -4.363 -46.903  45.3860  0.00  0.00     0.000 O
ATOM      7   O  BDP B   1      -6.841 -46.775  48.0100  0.00  0.00     0.000 O
ATOM      9  HD  BDP B   1      -7.357 -46.161  48.3350  0.00  0.00     0.000 HD
ATOM      9   O  BDP B   1      -5.308 -49.615  46.6670  0.00  0.00     0.000 O
ATOM     11  HD  BDP B   1      -5.824 -49.001  46.9930  0.00  0.00     0.000 HD
ATOM     11   O  BDP B   1      -3.425 -47.147  48.5570  0.00  0.00     0.000 O
ATOM     13  HD  BDP B   1      -3.942 -46.533  48.8830  0.00  0.00     0.000 HD
ENDROOT
BRANCH 5 13
ATOM     13   C  BDP B   1      -2.529 -48.441  45.3820  0.00  0.00     0.000 C
ATOM     14   O  BDP B   1      -2.007 -48.114  44.2960  0.00  0.00     0.000 OA
ATOM     15   O  BDP B   1      -2.445 -49.597  45.8510  0.00  0.00     0.000 OA
ENDBRANCH 5 13
BRANCH 1 16
ATOM     16  O3  NAG B   2      -5.263 -44.853  46.4340  0.00  0.00     0.000 O
BRANCH 16 19
ATOM     17  C1  NAG B   2      -6.217 -41.956  44.4460  0.00  0.00     0.000 C
ATOM     18  C2  NAG B   2      -6.565 -43.305  45.0750  0.00  0.00     0.000 C
ATOM     19  C3  NAG B   2      -5.771 -43.520  46.3550  0.00  0.00     0.000 C
ATOM     20  C4  NAG B   2      -4.617 -42.521  46.4810  0.00  0.00     0.000 C
ATOM     21  C5  NAG B   2      -3.939 -42.137  45.1590  0.00  0.00     0.000 C
ATOM     22  O5  NAG B   2      -4.847 -42.067  44.0530  0.00  0.00     0.000 O
ATOM     23   O  NAG B   2      -5.105 -41.345  47.1350  0.00  0.00     0.000 O
ATOM     25  HD  NAG B   2      -5.861 -41.337  46.7120  0.00  0.00     0.000 HD
ATOM     25   C  NAG B   2      -2.823 -43.133  44.8140  0.00  0.00     0.000 C
ATOM     26   O  NAG B   2      -1.587 -42.789  45.4560  0.00  0.00     0.000 O
ATOM     28  HD  NAG B   2      -2.343 -42.782  45.0330  0.00  0.00     0.000 HD
BRANCH 18 30
ATOM     28   N  NAG B   2      -7.596 -42.311  45.3680  0.00  0.00     0.000 N
ATOM     30  HD  NAG B   2      -7.766 -41.634  45.8820  0.00  0.00     0.000 HD
ATOM     30   C  NAG B   2      -8.780 -42.577  45.9380  0.00  0.00     0.000 C
ATOM     31   C  NAG B   2      -9.673 -41.384  46.1260  0.00  0.00     0.000 C
ATOM     32   O  NAG B   2      -9.117 -43.685  46.2860  0.00  0.00     0.000 OA
ENDBRANCH 18 30
BRANCH 17 33
ATOM     33  O4  BDP B   3      -6.140 -41.053  43.3220  0.00  0.00     0.000 O
BRANCH 33 37
ATOM     34  C1  BDP B   3      -8.260 -37.851  41.4510  0.00  0.00     0.000 C
ATOM     35  C2  BDP B   3      -9.047 -39.117  41.7670  0.00  0.00     0.000 C
ATOM     36  C3  BDP B   3      -8.365 -40.022  42.7870  0.00  0.00     0.000 C
ATOM     37  C4  BDP B   3      -6.879 -40.171  42.4260  0.00  0.00     0.000 C
ATOM     38  C5  BDP B   3      -6.279 -38.753  42.3620  0.00  0.00     0.000 C
ATOM     39  O5  BDP B   3      -6.875 -38.134  41.2220  0.00  0.00     0.000 O
ATOM     40   O  BDP B   3     -10.338 -38.687  42.2040  0.00  0.00     0.000 O
ATOM     42  HD  BDP B   3     -10.438 -38.630  41.3460  0.00  0.00     0.000 HD
ATOM     42   O  BDP B   3      -9.049 -41.273  42.7480  0.00  0.00     0.000 O
ATOM     44  HD  BDP B   3      -9.149 -41.216  41.8890  0.00  0.00     0.000 HD
BRANCH 38 44
ATOM     44   C  BDP B   3      -4.788 -38.717  42.2380  0.00  0.00     0.000 C
ATOM     45   O  BDP B   3      -4.128 -38.325  43.2250  0.00  0.00     0.000 OA
ATOM     46   O  BDP B   3      -4.248 -39.073  41.1680  0.00  0.00     0.000 OA
ENDBRANCH 38 44
BRANCH 34 47
ATOM     47  O3  NAG B   4      -8.353 -37.495  40.0730  0.00  0.00     0.000 O
BRANCH 47 50
ATOM     48  C1  NAG B   4      -9.317 -33.971  39.1770  0.00  0.00     0.000 C
ATOM     49  C2  NAG B   4      -9.509 -35.385  39.6970  0.00  0.00     0.000 C
ATOM     50  C3  NAG B   4      -8.178 -36.128  39.6460  0.00  0.00     0.000 C
ATOM     51  C4  NAG B   4      -7.578 -36.106  38.2490  0.00  0.00     0.000 C
ATOM     52  C5  NAG B   4      -7.475 -34.664  37.7520  0.00  0.00     0.000 C
ATOM     53  O5  NAG B   4      -8.745 -34.008  37.8550  0.00  0.00     0.000 O
ATOM     54   O  NAG B   4      -6.288 -36.720  38.2870  0.00  0.00     0.000 O
ATOM     56  HD  NAG B   4      -6.586 -36.620  37.4800  0.00  0.00     0.000 HD
ATOM     56   C  NAG B   4      -6.994 -34.609  36.3070  0.00  0.00     0.000 C
ATOM     57   O  NAG B   4      -7.925 -35.318  35.4770  0.00  0.00     0.000 O
ATOM     59  HD  NAG B   4      -8.223 -35.218  34.6710  0.00  0.00     0.000 HD
BRANCH 49 61
ATOM     59   N  NAG B   4     -10.733 -35.663  38.9450  0.00  0.00     0.000 N
ATOM     61  HD  NAG B   4     -10.214 -36.062  39.5130  0.00  0.00     0.000 HD
ATOM     61   O  NAG B   4     -11.852 -36.691  40.6170  0.00  0.00     0.000 OA
ATOM     62   C  NAG B   4     -11.821 -36.223  39.4880  0.00  0.00     0.000 C
ATOM     63   C  NAG B   4     -13.043 -36.232  38.6250  0.00  0.00     0.000 C
ENDBRANCH 49 61
BRANCH 48 64
ATOM     64  O4  BDP B   5      -9.971 -32.738  39.4600  0.00  0.00     0.000 O
BRANCH 64 68
ATOM     65  C1  BDP B   5     -12.129 -30.399  36.7680  0.00  0.00     0.000 C
ATOM     66  C2  BDP B   5     -10.670 -30.012  36.9670  0.00  0.00     0.000 C
ATOM     67  C3  BDP B   5      -9.916 -31.169  37.6110  0.00  0.00     0.000 C
ATOM     68  C4  BDP B   5     -10.592 -31.574  38.9160  0.00  0.00     0.000 C
ATOM     69  C5  BDP B   5     -12.077 -31.859  38.7290  0.00  0.00     0.000 C
ATOM     70  O5  BDP B   5     -12.714 -30.779  38.0240  0.00  0.00     0.000 O
ATOM     71   O  BDP B   5     -10.094 -29.640  35.7060  0.00  0.00     0.000 O
ATOM     73  HD  BDP B   5      -9.791 -29.445  34.9180  0.00  0.00     0.000 HD
ATOM     73   O  BDP B   5      -8.558 -30.797  37.8780  0.00  0.00     0.000 O
ATOM     75  HD  BDP B   5      -8.256 -30.603  37.0900  0.00  0.00     0.000 HD
BRANCH 69 75
ATOM     75   C  BDP B   5     -12.705 -32.010  40.0910  0.00  0.00     0.000 C
ATOM     76   O  BDP B   5     -12.846 -30.995  40.8030  0.00  0.00     0.000 OA
ATOM     77   O  BDP B   5     -13.068 -33.141  40.4660  0.00  0.00     0.000 OA
ENDBRANCH 69 75
BRANCH 65 78
ATOM     78  O3  NAG B   6     -13.251 -29.512  36.7720  0.00  0.00     0.000 O
BRANCH 78 81
ATOM     79  C1  NAG B   6     -16.034 -29.731  34.2160  0.00  0.00     0.000 C
ATOM     80  C2  NAG B   6     -14.594 -29.730  34.7510  0.00  0.00     0.000 C
ATOM     81  C3  NAG B   6     -14.596 -29.668  36.2700  0.00  0.00     0.000 C
ATOM     82  C4  NAG B   6     -15.477 -28.518  36.7680  0.00  0.00     0.000 C
ATOM     83  C5  NAG B   6     -16.873 -28.655  36.1710  0.00  0.00     0.000 C
ATOM     84  O5  NAG B   6     -16.743 -28.598  34.7500  0.00  0.00     0.000 O
BRANCH 80 87
ATOM     85   N  NAG B   6     -13.843 -30.928  34.3850  0.00  0.00     0.000 N
ATOM     87  HD  NAG B   6     -13.517 -31.450  33.7760  0.00  0.00     0.000 HD
ATOM     87   C  NAG B   6     -12.663 -30.908  33.7530  0.00  0.00     0.000 C
ATOM     88   C  NAG B   6     -12.040 -32.244  33.5010  0.00  0.00     0.000 C
ATOM     89   O  NAG B   6     -12.106 -29.872  33.4090  0.00  0.00     0.000 OA
ENDBRANCH 80 87
ATOM     90   O  NAG B   6     -18.855 -28.149  37.4600  0.00  0.00     0.000 O
ATOM     92  HD  NAG B   6     -18.518 -28.629  36.8230  0.00  0.00     0.000 HD
ATOM     92   O  NAG B   6     -18.855 -28.149  37.4600  0.00  0.00     0.000 O
ATOM     94  HD  NAG B   6     -18.518 -28.629  36.8230  0.00  0.00     0.000 HD
ENDBRANCH 78 81
ENDBRANCH 65 78
ENDBRANCH 64 68
ENDBRANCH 48 64
ENDBRANCH 47 50
ENDBRANCH 34 47
ENDBRANCH 33 37
ENDBRANCH 17 33
ENDBRANCH 16 19
ENDBRANCH 1 16
TORSDOF 16
ENDMDL
MODEL 71
REMARK VINA RESULT:      -8.8     10.549     19.678
ROOT
ATOM      1  C1  BDP B   1       1.892  -8.929  29.2110  0.00  0.00     0.000 C
ATOM      2  C2  BDP B   1       2.460  -9.418  27.8910  0.00  0.00     0.000 C
ATOM      3  C3  BDP B   1       3.030 -10.817  27.9990  0.00  0.00     0.000 C
ATOM      4  C4  BDP B   1       2.611 -11.562  29.2610  0.00  0.00     0.000 C
ATOM      5  C5  BDP B   1       2.749 -10.714  30.5210  0.00  0.00     0.000 C
ATOM      6  O5  BDP B   1       2.812  -9.309  30.2240  0.00  0.00     0.000 O
ATOM      7   O  BDP B   1       1.443  -9.390  26.8830  0.00  0.00     0.000 O
ATOM      9  HD  BDP B   1       0.782  -9.001  26.4820  0.00  0.00     0.000 HD
ATOM      9   O  BDP B   1       4.465 -10.764  27.9800  0.00  0.00     0.000 O
ATOM     11  HD  BDP B   1       3.803 -10.374  27.5790  0.00  0.00     0.000 HD
ATOM     11   O  BDP B   1       1.263 -12.032  29.1400  0.00  0.00     0.000 O
ATOM     13  HD  BDP B   1       0.601 -11.643  28.7390  0.00  0.00     0.000 HD
ENDROOT
BRANCH 5 13
ATOM     13   C  BDP B   1       4.002 -11.139  31.2040  0.00  0.00     0.000 C
ATOM     14   O  BDP B   1       4.040 -11.086  32.4510  0.00  0.00     0.000 OA
ATOM     15   O  BDP B   1       4.957 -11.557  30.5160  0.00  0.00     0.000 OA
ENDBRANCH 5 13
BRANCH 1 16
ATOM     16  O3  NAG B   2       0.576  -8.495  29.5500  0.00  0.00     0.000 O
BRANCH 16 19
ATOM     17  C1  NAG B   2      -1.631  -5.601  29.6160  0.00  0.00     0.000 C
ATOM     18  C2  NAG B   2      -0.528  -6.412  28.9360  0.00  0.00     0.000 C
ATOM     19  C3  NAG B   2      -0.683  -7.893  29.2480  0.00  0.00     0.000 C
ATOM     20  C4  NAG B   2      -1.660  -8.130  30.4040  0.00  0.00     0.000 C
ATOM     21  C5  NAG B   2      -1.632  -7.065  31.5090  0.00  0.00     0.000 C
ATOM     22  O5  NAG B   2      -1.390  -5.741  31.0180  0.00  0.00     0.000 O
ATOM     23   O  NAG B   2      -2.982  -8.237  29.8670  0.00  0.00     0.000 O
ATOM     25  HD  NAG B   2      -2.877  -7.597  29.2930  0.00  0.00     0.000 HD
ATOM     25   C  NAG B   2      -0.562  -7.401  32.5580  0.00  0.00     0.000 C
ATOM     26   O  NAG B   2      -1.060  -8.307  33.5530  0.00  0.00     0.000 O
ATOM     28  HD  NAG B   2      -0.955  -7.667  32.9790  0.00  0.00     0.000 HD
BRANCH 18 30
ATOM     28   N  NAG B   2      -1.455  -5.869  27.9440  0.00  0.00     0.000 N
ATOM     30  HD  NAG B   2      -2.294  -5.853  27.7300  0.00  0.00     0.000 HD
ATOM     30   C  NAG B   2      -1.508  -6.242  26.6570  0.00  0.00     0.000 C
ATOM     31   C  NAG B   2      -2.543  -5.527  25.8350  0.00  0.00     0.000 C
ATOM     32   O  NAG B   2      -0.792  -7.091  26.1800  0.00  0.00     0.000 OA
ENDBRANCH 18 30
BRANCH 17 33
ATOM     33  O4  BDP B   3      -2.167  -4.370  30.1500  0.00  0.00     0.000 O
BRANCH 33 37
ATOM     34  C1  BDP B   3      -5.212  -2.669  32.6150  0.00  0.00     0.000 C
ATOM     35  C2  BDP B   3      -5.602  -3.859  31.7460  0.00  0.00     0.000 C
ATOM     36  C3  BDP B   3      -4.410  -4.660  31.2370  0.00  0.00     0.000 C
ATOM     37  C4  BDP B   3      -3.338  -3.700  30.6990  0.00  0.00     0.000 C
ATOM     38  C5  BDP B   3      -2.984  -2.726  31.8400  0.00  0.00     0.000 C
ATOM     39  O5  BDP B   3      -4.144  -1.915  32.0290  0.00  0.00     0.000 O
ATOM     40   O  BDP B   3      -6.492  -4.653  32.5330  0.00  0.00     0.000 O
ATOM     42  HD  BDP B   3      -7.039  -4.044  32.2490  0.00  0.00     0.000 HD
ATOM     42   O  BDP B   3      -4.904  -5.528  30.2170  0.00  0.00     0.000 O
ATOM     44  HD  BDP B   3      -5.451  -4.918  29.9340  0.00  0.00     0.000 HD
BRANCH 38 44
ATOM     44   C  BDP B   3      -1.797  -1.856  31.5640  0.00  0.00     0.000 C
ATOM     45   O  BDP B   3      -0.660  -2.343  31.7470  0.00  0.00     0.000 OA
ATOM     46   O  BDP B   3      -1.969  -0.683  31.1660  0.00  0.00     0.000 OA
ENDBRANCH 38 44
BRANCH 34 47
ATOM     47  O3  NAG B   4      -6.053  -1.540  32.3840  0.00  0.00     0.000 O
BRANCH 47 50
ATOM     48  C1  NAG B   4      -7.487   0.298  35.3360  0.00  0.00     0.000 C
ATOM     49  C2  NAG B   4      -7.314  -0.841  34.3460  0.00  0.00     0.000 C
ATOM     50  C3  NAG B   4      -6.189  -0.501  33.3750  0.00  0.00     0.000 C
ATOM     51  C4  NAG B   4      -6.430   0.831  32.6830  0.00  0.00     0.000 C
ATOM     52  C5  NAG B   4      -6.666   1.923  33.7270  0.00  0.00     0.000 C
ATOM     53  O5  NAG B   4      -7.710   1.534  34.6290  0.00  0.00     0.000 O
ATOM     54   O  NAG B   4      -5.295   1.146  31.8710  0.00  0.00     0.000 O
ATOM     56  HD  NAG B   4      -5.983   1.641  31.6910  0.00  0.00     0.000 HD
ATOM     56   C  NAG B   4      -7.035   3.248  33.0690  0.00  0.00     0.000 C
ATOM     57   O  NAG B   4      -8.235   3.072  32.3050  0.00  0.00     0.000 O
ATOM     59  HD  NAG B   4      -8.922   3.567  32.1250  0.00  0.00     0.000 HD
BRANCH 49 61
ATOM     59   N  NAG B   4      -7.331  -1.971  35.2750  0.00  0.00     0.000 N
ATOM     61  HD  NAG B   4      -7.889  -1.521  34.7890  0.00  0.00     0.000 HD
ATOM     61   O  NAG B   4      -8.749  -3.273  34.0920  0.00  0.00     0.000 OA
ATOM     62   C  NAG B   4      -7.985  -3.114  35.0340  0.00  0.00     0.000 C
ATOM     63   C  NAG B   4      -7.713  -4.230  35.9920  0.00  0.00     0.000 C
ENDBRANCH 49 61
BRANCH 48 64
ATOM     64  O4  BDP B   5      -7.937   0.348  36.6870  0.00  0.00     0.000 O
BRANCH 64 68
ATOM     65  C1  BDP B   5      -8.097  -0.028  40.8340  0.00  0.00     0.000 C
ATOM     66  C2  BDP B   5      -6.791  -0.453  40.1760  0.00  0.00     0.000 C
ATOM     67  C3  BDP B   5      -6.714   0.127  38.7700  0.00  0.00     0.000 C
ATOM     68  C4  BDP B   5      -7.936  -0.294  37.9610  0.00  0.00     0.000 C
ATOM     69  C5  BDP B   5      -9.240   0.040  38.6740  0.00  0.00     0.000 C
ATOM     70  O5  BDP B   5      -9.213  -0.441  40.0290  0.00  0.00     0.000 O
ATOM     71   O  BDP B   5      -5.683  -0.030  40.9860  0.00  0.00     0.000 O
ATOM     73  HD  BDP B   5      -5.052   0.264  41.5000  0.00  0.00     0.000 HD
ATOM     73   O  BDP B   5      -5.529  -0.324  38.1040  0.00  0.00     0.000 O
ATOM     75  HD  BDP B   5      -4.898  -0.030  38.6180  0.00  0.00     0.000 HD
BRANCH 69 75
ATOM     75   C  BDP B   5     -10.371  -0.622  37.9280  0.00  0.00     0.000 C
ATOM     76   O  BDP B   5     -11.539  -0.243  38.1500  0.00  0.00     0.000 OA
ATOM     77   O  BDP B   5     -10.108  -1.523  37.1100  0.00  0.00     0.000 OA
ENDBRANCH 69 75
BRANCH 65 78
ATOM     78  O3  NAG B   6      -8.828  -0.761  41.8210  0.00  0.00     0.000 O
BRANCH 78 81
ATOM     79  C1  NAG B   6     -10.144  -0.188  45.3240  0.00  0.00     0.000 C
ATOM     80  C2  NAG B   6      -9.114  -0.494  44.2260  0.00  0.00     0.000 C
ATOM     81  C3  NAG B   6      -9.742  -0.328  42.8520  0.00  0.00     0.000 C
ATOM     82  C4  NAG B   6     -11.053  -1.116  42.7530  0.00  0.00     0.000 C
ATOM     83  C5  NAG B   6     -11.979  -0.702  43.8910  0.00  0.00     0.000 C
ATOM     84  O5  NAG B   6     -11.315  -1.000  45.1190  0.00  0.00     0.000 O
BRANCH 80 87
ATOM     85   N  NAG B   6      -7.719  -0.880  44.4270  0.00  0.00     0.000 N
ATOM     87  HD  NAG B   6      -6.921  -0.993  44.1110  0.00  0.00     0.000 HD
ATOM     87   C  NAG B   6      -6.687  -0.033  44.3300  0.00  0.00     0.000 C
ATOM     88   C  NAG B   6      -5.339  -0.619  44.6070  0.00  0.00     0.000 C
ATOM     89   O  NAG B   6      -6.818   1.152  44.0470  0.00  0.00     0.000 OA
ENDBRANCH 80 87
ATOM     90   O  NAG B   6     -14.363  -0.466  43.5590  0.00  0.00     0.000 O
ATOM     92  HD  NAG B   6     -13.671  -0.193  44.0010  0.00  0.00     0.000 HD
ATOM     92   O  NAG B   6     -14.363  -0.466  43.5590  0.00  0.00     0.000 O
ATOM     94  HD  NAG B   6     -13.671  -0.193  44.0010  0.00  0.00     0.000 HD
ENDBRANCH 78 81
ENDBRANCH 65 78
ENDBRANCH 64 68
ENDBRANCH 48 64
ENDBRANCH 47 50
ENDBRANCH 34 47
ENDBRANCH 33 37
ENDBRANCH 17 33
ENDBRANCH 16 19
ENDBRANCH 1 16
TORSDOF 16
ENDMDL
MODEL 72
REMARK VINA RESULT:      -8.8     35.676     40.308
ROOT
ATOM      1  C1  BDP B   1       1.552  -4.899  76.4710  0.00  0.00     0.000 C
ATOM      2  C2  BDP B   1       1.506  -6.249  77.1650  0.00  0.00     0.000 C
ATOM      3  C3  BDP B   1       0.108  -6.829  77.1900  0.00  0.00     0.000 C
ATOM      4  C4  BDP B   1      -0.866  -6.146  76.2360  0.00  0.00     0.000 C
ATOM      5  C5  BDP B   1      -0.801  -4.624  76.3180  0.00  0.00     0.000 C
ATOM      6  O5  BDP B   1       0.422  -4.164  76.9180  0.00  0.00     0.000 O
ATOM      7   O  BDP B   1       2.394  -7.162  76.5120  0.00  0.00     0.000 O
ATOM      9  HD  BDP B   1       3.156  -7.350  76.1450  0.00  0.00     0.000 HD
ATOM      9   O  BDP B   1      -0.439  -6.733  78.5150  0.00  0.00     0.000 O
ATOM     11  HD  BDP B   1       0.322  -6.920  78.1470  0.00  0.00     0.000 HD
ATOM     11   O  BDP B   1      -0.625  -6.569  74.8890  0.00  0.00     0.000 O
ATOM     13  HD  BDP B   1       0.137  -6.756  74.5220  0.00  0.00     0.000 HD
ENDROOT
BRANCH 5 13
ATOM     13   C  BDP B   1      -1.961  -4.176  77.1370  0.00  0.00     0.000 C
ATOM     14   O  BDP B   1      -3.069  -4.055  76.5730  0.00  0.00     0.000 OA
ATOM     15   O  BDP B   1      -1.798  -3.965  78.3570  0.00  0.00     0.000 OA
ENDBRANCH 5 13
BRANCH 1 16
ATOM     16  O3  NAG B   2       2.296  -4.466  75.3340  0.00  0.00     0.000 O
BRANCH 16 19
ATOM     17  C1  NAG B   2       4.018  -3.501  72.2750  0.00  0.00     0.000 C
ATOM     18  C2  NAG B   2       3.366  -3.123  73.6050  0.00  0.00     0.000 C
ATOM     19  C3  NAG B   2       3.511  -4.255  74.6120  0.00  0.00     0.000 C
ATOM     20  C4  NAG B   2       3.946  -5.560  73.9410  0.00  0.00     0.000 C
ATOM     21  C5  NAG B   2       3.374  -5.792  72.5350  0.00  0.00     0.000 C
ATOM     22  O5  NAG B   2       3.238  -4.588  71.7700  0.00  0.00     0.000 O
ATOM     23   O  NAG B   2       5.376  -5.593  73.8940  0.00  0.00     0.000 O
ATOM     25  HD  NAG B   2       5.458  -4.756  73.6870  0.00  0.00     0.000 HD
ATOM     25   C  NAG B   2       2.004  -6.479  72.6140  0.00  0.00     0.000 C
ATOM     26   O  NAG B   2       2.130  -7.905  72.7110  0.00  0.00     0.000 O
ATOM     28  HD  NAG B   2       2.212  -7.068  72.5040  0.00  0.00     0.000 HD
BRANCH 18 30
ATOM     28   N  NAG B   2       4.716  -2.801  74.0660  0.00  0.00     0.000 N
ATOM     30  HD  NAG B   2       5.237  -2.867  74.7540  0.00  0.00     0.000 HD
ATOM     30   C  NAG B   2       5.173  -1.561  74.2960  0.00  0.00     0.000 C
ATOM     31   C  NAG B   2       6.602  -1.490  74.7540  0.00  0.00     0.000 C
ATOM     32   O  NAG B   2       4.500  -0.567  74.1570  0.00  0.00     0.000 OA
ENDBRANCH 18 30
BRANCH 17 33
ATOM     33  O4  BDP B   3       4.177  -3.363  70.8460  0.00  0.00     0.000 O
BRANCH 33 37
ATOM     34  C1  BDP B   3       3.132  -2.168  66.8810  0.00  0.00     0.000 C
ATOM     35  C2  BDP B   3       2.509  -1.387  68.0320  0.00  0.00     0.000 C
ATOM     36  C3  BDP B   3       3.231  -1.576  69.3610  0.00  0.00     0.000 C
ATOM     37  C4  BDP B   3       3.520  -3.069  69.5790  0.00  0.00     0.000 C
ATOM     38  C5  BDP B   3       4.328  -3.561  68.3630  0.00  0.00     0.000 C
ATOM     39  O5  BDP B   3       3.426  -3.519  67.2580  0.00  0.00     0.000 O
ATOM     40   O  BDP B   3       2.484  -0.019  67.6190  0.00  0.00     0.000 O
ATOM     42  HD  BDP B   3       1.781  -0.317  67.2090  0.00  0.00     0.000 HD
ATOM     42   O  BDP B   3       2.375  -1.047  70.3710  0.00  0.00     0.000 O
ATOM     44  HD  BDP B   3       1.672  -1.345  69.9620  0.00  0.00     0.000 HD
BRANCH 38 44
ATOM     44   C  BDP B   3       4.886  -4.943  68.5100  0.00  0.00     0.000 C
ATOM     45   O  BDP B   3       6.099  -5.113  68.2600  0.00  0.00     0.000 OA
ATOM     46   O  BDP B   3       4.137  -5.877  68.8710  0.00  0.00     0.000 OA
ENDBRANCH 38 44
BRANCH 34 47
ATOM     47  O3  NAG B   4       2.145  -2.694  65.9960  0.00  0.00     0.000 O
BRANCH 47 50
ATOM     48  C1  NAG B   4       3.342  -3.434  62.5070  0.00  0.00     0.000 C
ATOM     49  C2  NAG B   4       3.018  -2.587  63.7260  0.00  0.00     0.000 C
ATOM     50  C3  NAG B   4       2.522  -3.487  64.8510  0.00  0.00     0.000 C
ATOM     51  C4  NAG B   4       1.339  -4.334  64.4100  0.00  0.00     0.000 C
ATOM     52  C5  NAG B   4       1.700  -5.109  63.1420  0.00  0.00     0.000 C
ATOM     53  O5  NAG B   4       2.191  -4.216  62.1340  0.00  0.00     0.000 O
ATOM     54   O  NAG B   4       0.988  -5.231  65.4670  0.00  0.00     0.000 O
ATOM     56  HD  NAG B   4       0.377  -5.180  64.8560  0.00  0.00     0.000 HD
ATOM     56   C  NAG B   4       0.498  -5.873  62.5990  0.00  0.00     0.000 C
ATOM     57   O  NAG B   4      -0.547  -4.942  62.2890  0.00  0.00     0.000 O
ATOM     59  HD  NAG B   4      -1.158  -4.891  61.6780  0.00  0.00     0.000 HD
BRANCH 49 61
ATOM     59   N  NAG B   4       2.150  -1.560  63.1480  0.00  0.00     0.000 N
ATOM     61  HD  NAG B   4       2.528  -1.741  63.9060  0.00  0.00     0.000 HD
ATOM     61   O  NAG B   4       3.172   0.221  64.0890  0.00  0.00     0.000 OA
ATOM     62   C  NAG B   4       2.346  -0.247  63.3190  0.00  0.00     0.000 C
ATOM     63   C  NAG B   4       1.490   0.649  62.4810  0.00  0.00     0.000 C
ENDBRANCH 49 61
BRANCH 48 64
ATOM     64  O4  BDP B   5       4.273  -3.283  61.4400  0.00  0.00     0.000 O
BRANCH 64 68
ATOM     65  C1  BDP B   5       8.163  -3.455  59.9540  0.00  0.00     0.000 C
ATOM     66  C2  BDP B   5       7.050  -3.503  58.9160  0.00  0.00     0.000 C
ATOM     67  C3  BDP B   5       5.750  -3.007  59.5360  0.00  0.00     0.000 C
ATOM     68  C4  BDP B   5       5.418  -3.822  60.7810  0.00  0.00     0.000 C
ATOM     69  C5  BDP B   5       6.576  -3.857  61.7700  0.00  0.00     0.000 C
ATOM     70  O5  BDP B   5       7.797  -4.230  61.1060  0.00  0.00     0.000 O
ATOM     71   O  BDP B   5       7.424  -2.720  57.7710  0.00  0.00     0.000 O
ATOM     73  HD  BDP B   5       7.690  -2.220  57.1160  0.00  0.00     0.000 HD
ATOM     73   O  BDP B   5       4.672  -3.116  58.5990  0.00  0.00     0.000 O
ATOM     75  HD  BDP B   5       4.938  -2.616  57.9430  0.00  0.00     0.000 HD
BRANCH 69 75
ATOM     75   C  BDP B   5       6.255  -4.870  62.8390  0.00  0.00     0.000 C
ATOM     76   O  BDP B   5       6.404  -4.548  64.0350  0.00  0.00     0.000 OA
ATOM     77   O  BDP B   5       5.846  -5.996  62.5000  0.00  0.00     0.000 OA
ENDBRANCH 69 75
BRANCH 65 78
ATOM     78  O3  NAG B   6       9.302  -4.318  60.0170  0.00  0.00     0.000 O
BRANCH 78 81
ATOM     79  C1  NAG B   6      12.940  -4.344  61.0660  0.00  0.00     0.000 C
ATOM     80  C2  NAG B   6      11.730  -4.156  60.1360  0.00  0.00     0.000 C
ATOM     81  C3  NAG B   6      10.436  -4.341  60.9110  0.00  0.00     0.000 C
ATOM     82  C4  NAG B   6      10.455  -5.656  61.6980  0.00  0.00     0.000 C
ATOM     83  C5  NAG B   6      11.696  -5.699  62.5820  0.00  0.00     0.000 C
ATOM     84  O5  NAG B   6      12.838  -5.617  61.7290  0.00  0.00     0.000 O
BRANCH 80 87
ATOM     85   N  NAG B   6      11.239  -2.958  59.4610  0.00  0.00     0.000 N
ATOM     87  HD  NAG B   6      11.389  -2.178  59.1150  0.00  0.00     0.000 HD
ATOM     87   C  NAG B   6      11.588  -2.601  58.2190  0.00  0.00     0.000 C
ATOM     88   C  NAG B   6      10.946  -1.356  57.6960  0.00  0.00     0.000 C
ATOM     89   O  NAG B   6      12.371  -3.248  57.5330  0.00  0.00     0.000 OA
ENDBRANCH 80 87
ATOM     90   O  NAG B   6      11.625  -6.625  64.8150  0.00  0.00     0.000 O
ATOM     92  HD  NAG B   6      11.999  -6.046  64.2910  0.00  0.00     0.000 HD
ATOM     92   O  NAG B   6      11.625  -6.625  64.8150  0.00  0.00     0.000 O
ATOM     94  HD  NAG B   6      11.999  -6.046  64.2910  0.00  0.00     0.000 HD
ENDBRANCH 78 81
ENDBRANCH 65 78
ENDBRANCH 64 68
ENDBRANCH 48 64
ENDBRANCH 47 50
ENDBRANCH 34 47
ENDBRANCH 33 37
ENDBRANCH 17 33
ENDBRANCH 16 19
ENDBRANCH 1 16
TORSDOF 16
ENDMDL
MODEL 73
REMARK VINA RESULT:      -8.8     28.406     31.321
ROOT
ATOM      1  C1  BDP B   1       1.825  18.709  16.3210  0.00  0.00     0.000 C
ATOM      2  C2  BDP B   1       3.015  19.135  17.1620  0.00  0.00     0.000 C
ATOM      3  C3  BDP B   1       2.961  18.558  18.5600  0.00  0.00     0.000 C
ATOM      4  C4  BDP B   1       1.959  17.421  18.7250  0.00  0.00     0.000 C
ATOM      5  C5  BDP B   1       0.600  17.738  18.1080  0.00  0.00     0.000 C
ATOM      6  O5  BDP B   1       0.676  18.807  17.1500  0.00  0.00     0.000 O
ATOM      7   O  BDP B   1       4.232  18.732  16.5220  0.00  0.00     0.000 O
ATOM      9  HD  BDP B   1       4.728  18.650  15.8170  0.00  0.00     0.000 HD
ATOM      9   O  BDP B   1       2.613  19.585  19.5010  0.00  0.00     0.000 O
ATOM     11  HD  BDP B   1       3.110  19.503  18.7960  0.00  0.00     0.000 HD
ATOM     11   O  BDP B   1       2.477  16.212  18.1570  0.00  0.00     0.000 O
ATOM     13  HD  BDP B   1       2.973  16.129  17.4520  0.00  0.00     0.000 HD
ENDROOT
BRANCH 5 13
ATOM     13   C  BDP B   1      -0.309  18.126  19.2210  0.00  0.00     0.000 C
ATOM     14   O  BDP B   1      -1.495  18.404  18.9440  0.00  0.00     0.000 OA
ATOM     15   O  BDP B   1       0.131  18.134  20.3910  0.00  0.00     0.000 OA
ENDBRANCH 5 13
BRANCH 1 16
ATOM     16  O3  NAG B   2       1.769  18.002  15.0830  0.00  0.00     0.000 O
BRANCH 16 19
ATOM     17  C1  NAG B   2       2.997  14.978  13.4710  0.00  0.00     0.000 C
ATOM     18  C2  NAG B   2       2.442  15.691  14.7040  0.00  0.00     0.000 C
ATOM     19  C3  NAG B   2       1.529  16.837  14.2930  0.00  0.00     0.000 C
ATOM     20  C4  NAG B   2       1.682  17.180  12.8080  0.00  0.00     0.000 C
ATOM     21  C5  NAG B   2       3.103  17.033  12.2490  0.00  0.00     0.000 C
ATOM     22  O5  NAG B   2       3.832  15.942  12.8240  0.00  0.00     0.000 O
ATOM     23   O  NAG B   2       0.778  16.362  12.0570  0.00  0.00     0.000 O
ATOM     25  HD  NAG B   2       0.924  15.648  12.5260  0.00  0.00     0.000 HD
ATOM     25   C  NAG B   2       3.905  18.324  12.4620  0.00  0.00     0.000 C
ATOM     26   O  NAG B   2       3.675  19.273  11.4110  0.00  0.00     0.000 O
ATOM     28  HD  NAG B   2       3.821  18.559  11.8790  0.00  0.00     0.000 HD
BRANCH 18 30
ATOM     28   N  NAG B   2       1.112  15.183  15.0400  0.00  0.00     0.000 N
ATOM     30  HD  NAG B   2       0.517  15.191  15.6690  0.00  0.00     0.000 HD
ATOM     30   C  NAG B   2       0.820  13.897  15.2790  0.00  0.00     0.000 C
ATOM     31   C  NAG B   2      -0.624  13.625  15.5940  0.00  0.00     0.000 C
ATOM     32   O  NAG B   2       1.642  13.011  15.2530  0.00  0.00     0.000 OA
ENDBRANCH 18 30
BRANCH 17 33
ATOM     33  O4  BDP B   3       3.977  14.149  12.8080  0.00  0.00     0.000 O
BRANCH 33 37
ATOM     34  C1  BDP B   3       7.768  12.394  11.9170  0.00  0.00     0.000 C
ATOM     35  C2  BDP B   3       7.249  12.247  13.3420  0.00  0.00     0.000 C
ATOM     36  C3  BDP B   3       5.754  12.508  13.4790  0.00  0.00     0.000 C
ATOM     37  C4  BDP B   3       5.385  13.786  12.7090  0.00  0.00     0.000 C
ATOM     38  C5  BDP B   3       5.846  13.591  11.2520  0.00  0.00     0.000 C
ATOM     39  O5  BDP B   3       7.273  13.586  11.2960  0.00  0.00     0.000 O
ATOM     40   O  BDP B   3       7.609  10.929  13.7640  0.00  0.00     0.000 O
ATOM     42  HD  BDP B   3       8.358  11.343  13.8930  0.00  0.00     0.000 HD
ATOM     42   O  BDP B   3       5.485  12.633  14.8740  0.00  0.00     0.000 O
ATOM     44  HD  BDP B   3       6.235  13.047  15.0040  0.00  0.00     0.000 HD
BRANCH 38 44
ATOM     44   C  BDP B   3       5.371  14.650  10.3060  0.00  0.00     0.000 C
ATOM     45   O  BDP B   3       4.351  14.410   9.6240  0.00  0.00     0.000 OA
ATOM     46   O  BDP B   3       5.997  15.729  10.2220  0.00  0.00     0.000 OA
ENDBRANCH 38 44
BRANCH 34 47
ATOM     47  O3  NAG B   4       9.065  12.986  11.8790  0.00  0.00     0.000 O
BRANCH 47 50
ATOM     48  C1  NAG B   4      11.469  13.274   9.0000  0.00  0.00     0.000 C
ATOM     49  C2  NAG B   4      10.863  12.690  10.2640  0.00  0.00     0.000 C
ATOM     50  C3  NAG B   4       9.618  13.483  10.6430  0.00  0.00     0.000 C
ATOM     51  C4  NAG B   4       9.922  14.966  10.7840  0.00  0.00     0.000 C
ATOM     52  C5  NAG B   4      10.593  15.482   9.5110  0.00  0.00     0.000 C
ATOM     53  O5  NAG B   4      11.734  14.678   9.1870  0.00  0.00     0.000 O
ATOM     54   O  NAG B   4       8.701  15.670  11.0320  0.00  0.00     0.000 O
ATOM     56  HD  NAG B   4       9.403  16.152  11.1930  0.00  0.00     0.000 HD
ATOM     56   C  NAG B   4      11.025  16.936   9.6620  0.00  0.00     0.000 C
ATOM     57   O  NAG B   4      11.956  17.036  10.7480  0.00  0.00     0.000 O
ATOM     59  HD  NAG B   4      12.658  17.518  10.9090  0.00  0.00     0.000 HD
BRANCH 49 61
ATOM     59   N  NAG B   4      11.438  11.419   9.8210  0.00  0.00     0.000 N
ATOM     61  HD  NAG B   4      11.569  12.011  10.4390  0.00  0.00     0.000 HD
ATOM     61   O  NAG B   4      11.735  10.524  11.8740  0.00  0.00     0.000 OA
ATOM     62   C  NAG B   4      11.755  10.422  10.6560  0.00  0.00     0.000 C
ATOM     63   C  NAG B   4      12.126   9.127  10.0060  0.00  0.00     0.000 C
ENDBRANCH 49 61
BRANCH 48 64
ATOM     64  O4  BDP B   5      12.231  12.708   7.9380  0.00  0.00     0.000 O
BRANCH 64 68
ATOM     65  C1  BDP B   5      15.668  10.368   7.6510  0.00  0.00     0.000 C
ATOM     66  C2  BDP B   5      15.863  11.776   8.1980  0.00  0.00     0.000 C
ATOM     67  C3  BDP B   5      14.522  12.342   8.6450  0.00  0.00     0.000 C
ATOM     68  C4  BDP B   5      13.524  12.300   7.4940  0.00  0.00     0.000 C
ATOM     69  C5  BDP B   5      13.411  10.909   6.8820  0.00  0.00     0.000 C
ATOM     70  O5  BDP B   5      14.715  10.384   6.5770  0.00  0.00     0.000 O
ATOM     71   O  BDP B   5      16.813  11.748   9.2740  0.00  0.00     0.000 O
ATOM     73  HD  BDP B   5      17.375  11.671   9.9290  0.00  0.00     0.000 HD
ATOM     73   O  BDP B   5      14.671  13.696   9.0920  0.00  0.00     0.000 O
ATOM     75  HD  BDP B   5      15.233  13.619   9.7460  0.00  0.00     0.000 HD
BRANCH 69 75
ATOM     75   C  BDP B   5      12.601  11.014   5.6150  0.00  0.00     0.000 C
ATOM     76   O  BDP B   5      13.184  10.893   4.5190  0.00  0.00     0.000 OA
ATOM     77   O  BDP B   5      11.375  11.213   5.6980  0.00  0.00     0.000 OA
ENDBRANCH 69 75
BRANCH 65 78
ATOM     78  O3  NAG B   6      16.456   9.733   6.6410  0.00  0.00     0.000 O
BRANCH 78 81
ATOM     79  C1  NAG B   6      18.882   6.853   6.2510  0.00  0.00     0.000 C
ATOM     80  C2  NAG B   6      18.410   8.279   6.5750  0.00  0.00     0.000 C
ATOM     81  C3  NAG B   6      16.895   8.366   6.4890  0.00  0.00     0.000 C
ATOM     82  C4  NAG B   6      16.392   7.799   5.1570  0.00  0.00     0.000 C
ATOM     83  C5  NAG B   6      16.924   6.382   4.9760  0.00  0.00     0.000 C
ATOM     84  O5  NAG B   6      18.350   6.453   4.9760  0.00  0.00     0.000 O
BRANCH 80 87
ATOM     85   N  NAG B   6      18.928   8.641   7.8920  0.00  0.00     0.000 N
ATOM     87  HD  NAG B   6      19.595   8.856   8.4010  0.00  0.00     0.000 HD
ATOM     87   C  NAG B   6      19.457   9.835   8.1870  0.00  0.00     0.000 C
ATOM     88   C  NAG B   6      19.898  10.016   9.6050  0.00  0.00     0.000 C
ATOM     89   O  NAG B   6      19.568  10.738   7.3670  0.00  0.00     0.000 OA
ENDBRANCH 80 87
ATOM     90   O  NAG B   6      15.564   4.636   4.0010  0.00  0.00     0.000 O
ATOM     92  HD  NAG B   6      16.201   4.822   4.5570  0.00  0.00     0.000 HD
ATOM     92   O  NAG B   6      15.564   4.636   4.0010  0.00  0.00     0.000 O
ATOM     94  HD  NAG B   6      16.201   4.822   4.5570  0.00  0.00     0.000 HD
ENDBRANCH 78 81
ENDBRANCH 65 78
ENDBRANCH 64 68
ENDBRANCH 48 64
ENDBRANCH 47 50
ENDBRANCH 34 47
ENDBRANCH 33 37
ENDBRANCH 17 33
ENDBRANCH 16 19
ENDBRANCH 1 16
TORSDOF 16
ENDMDL
MODEL 74
REMARK VINA RESULT:      -8.8      9.277     20.152
ROOT
ATOM      1  C1  BDP B   1       1.566  -8.484  30.4990  0.00  0.00     0.000 C
ATOM      2  C2  BDP B   1       2.981  -8.104  30.0990  0.00  0.00     0.000 C
ATOM      3  C3  BDP B   1       3.938  -9.272  30.2090  0.00  0.00     0.000 C
ATOM      4  C4  BDP B   1       3.251 -10.627  30.3420  0.00  0.00     0.000 C
ATOM      5  C5  BDP B   1       2.126 -10.620  31.3720  0.00  0.00     0.000 C
ATOM      6  O5  BDP B   1       1.667  -9.289  31.6640  0.00  0.00     0.000 O
ATOM      7   O  BDP B   1       2.989  -7.599  28.7590  0.00  0.00     0.000 O
ATOM      9  HD  BDP B   1       2.653  -7.107  28.1310  0.00  0.00     0.000 HD
ATOM      9   O  BDP B   1       4.790  -9.101  31.3520  0.00  0.00     0.000 O
ATOM     11  HD  BDP B   1       4.454  -8.609  30.7230  0.00  0.00     0.000 HD
ATOM     11   O  BDP B   1       2.743 -11.055  29.0730  0.00  0.00     0.000 O
ATOM     13  HD  BDP B   1       2.407 -10.563  28.4440  0.00  0.00     0.000 HD
ENDROOT
BRANCH 5 13
ATOM     13   C  BDP B   1       2.658 -11.251  32.6100  0.00  0.00     0.000 C
ATOM     14   O  BDP B   1       3.520 -12.147  32.4920  0.00  0.00     0.000 OA
ATOM     15   O  BDP B   1       2.250 -10.850  33.7210  0.00  0.00     0.000 OA
ENDBRANCH 5 13
BRANCH 1 16
ATOM     16  O3  NAG B   2       0.347  -8.422  29.7620  0.00  0.00     0.000 O
BRANCH 16 19
ATOM     17  C1  NAG B   2      -1.900  -5.558  29.8060  0.00  0.00     0.000 C
ATOM     18  C2  NAG B   2      -0.614  -6.227  29.3210  0.00  0.00     0.000 C
ATOM     19  C3  NAG B   2      -0.793  -7.736  29.2420  0.00  0.00     0.000 C
ATOM     20  C4  NAG B   2      -2.054  -8.197  29.9780  0.00  0.00     0.000 C
ATOM     21  C5  NAG B   2      -2.394  -7.403  31.2470  0.00  0.00     0.000 C
ATOM     22  O5  NAG B   2      -2.074  -6.011  31.1500  0.00  0.00     0.000 O
ATOM     23   O  NAG B   2      -3.156  -8.149  29.0660  0.00  0.00     0.000 O
ATOM     25  HD  NAG B   2      -2.914  -7.401  28.7030  0.00  0.00     0.000 HD
ATOM     25   C  NAG B   2      -1.666  -7.990  32.4640  0.00  0.00     0.000 C
ATOM     26   O  NAG B   2      -2.396  -9.080  33.0450  0.00  0.00     0.000 O
ATOM     28  HD  NAG B   2      -2.153  -8.332  32.6820  0.00  0.00     0.000 HD
BRANCH 18 30
ATOM     28   N  NAG B   2      -0.753  -5.240  28.2500  0.00  0.00     0.000 N
ATOM     30  HD  NAG B   2      -1.300  -4.648  27.9340  0.00  0.00     0.000 HD
ATOM     30   C  NAG B   2      -0.891  -5.533  26.9490  0.00  0.00     0.000 C
ATOM     31   C  NAG B   2      -1.005  -4.341  26.0420  0.00  0.00     0.000 C
ATOM     32   O  NAG B   2      -0.929  -6.663  26.5210  0.00  0.00     0.000 OA
ENDBRANCH 18 30
BRANCH 17 33
ATOM     33  O4  BDP B   3      -2.619  -4.462  30.4140  0.00  0.00     0.000 O
BRANCH 33 37
ATOM     34  C1  BDP B   3      -3.924  -1.725  33.4210  0.00  0.00     0.000 C
ATOM     35  C2  BDP B   3      -2.469  -1.631  32.9780  0.00  0.00     0.000 C
ATOM     36  C3  BDP B   3      -2.190  -2.319  31.6460  0.00  0.00     0.000 C
ATOM     37  C4  BDP B   3      -2.857  -3.702  31.6350  0.00  0.00     0.000 C
ATOM     38  C5  BDP B   3      -4.357  -3.490  31.9160  0.00  0.00     0.000 C
ATOM     39  O5  BDP B   3      -4.437  -3.054  33.2730  0.00  0.00     0.000 O
ATOM     40   O  BDP B   3      -2.149  -0.239  32.9460  0.00  0.00     0.000 O
ATOM     42  HD  BDP B   3      -2.063  -0.397  33.7930  0.00  0.00     0.000 HD
ATOM     42   O  BDP B   3      -0.772  -2.412  31.5210  0.00  0.00     0.000 O
ATOM     44  HD  BDP B   3      -0.687  -2.570  32.3680  0.00  0.00     0.000 HD
BRANCH 38 44
ATOM     44   C  BDP B   3      -5.202  -4.711  31.7260  0.00  0.00     0.000 C
ATOM     45   O  BDP B   3      -6.012  -4.719  30.7720  0.00  0.00     0.000 OA
ATOM     46   O  BDP B   3      -5.081  -5.675  32.5120  0.00  0.00     0.000 OA
ENDBRANCH 38 44
BRANCH 34 47
ATOM     47  O3  NAG B   4      -4.042  -1.901  34.8320  0.00  0.00     0.000 O
BRANCH 47 50
ATOM     48  C1  NAG B   4      -7.005  -0.173  36.3770  0.00  0.00     0.000 C
ATOM     49  C2  NAG B   4      -5.695  -0.295  35.6170  0.00  0.00     0.000 C
ATOM     50  C3  NAG B   4      -5.318  -1.767  35.4920  0.00  0.00     0.000 C
ATOM     51  C4  NAG B   4      -5.260  -2.447  36.8510  0.00  0.00     0.000 C
ATOM     52  C5  NAG B   4      -6.577  -2.230  37.5960  0.00  0.00     0.000 C
ATOM     53  O5  NAG B   4      -6.896  -0.834  37.6520  0.00  0.00     0.000 O
ATOM     54   O  NAG B   4      -5.009  -3.842  36.6630  0.00  0.00     0.000 O
ATOM     56  HD  NAG B   4      -4.894  -3.590  37.4840  0.00  0.00     0.000 HD
ATOM     56   C  NAG B   4      -6.511  -2.791  39.0120  0.00  0.00     0.000 C
ATOM     57   O  NAG B   4      -5.461  -2.128  39.7290  0.00  0.00     0.000 O
ATOM     59  HD  NAG B   4      -5.346  -1.876  40.5490  0.00  0.00     0.000 HD
BRANCH 49 61
ATOM     59   N  NAG B   4      -4.940   0.722  36.3500  0.00  0.00     0.000 N
ATOM     61  HD  NAG B   4      -4.827   0.186  35.6800  0.00  0.00     0.000 HD
ATOM     61   O  NAG B   4      -4.008   1.719  34.5510  0.00  0.00     0.000 OA
ATOM     62   C  NAG B   4      -4.224   1.682  35.7530  0.00  0.00     0.000 C
ATOM     63   C  NAG B   4      -3.699   2.753  36.6550  0.00  0.00     0.000 C
ENDBRANCH 49 61
BRANCH 48 64
ATOM     64  O4  BDP B   5      -8.061   0.783  36.3410  0.00  0.00     0.000 O
BRANCH 64 68
ATOM     65  C1  BDP B   5      -9.527   2.895  33.0610  0.00  0.00     0.000 C
ATOM     66  C2  BDP B   5      -9.523   3.642  34.3880  0.00  0.00     0.000 C
ATOM     67  C3  BDP B   5      -8.593   2.940  35.3690  0.00  0.00     0.000 C
ATOM     68  C4  BDP B   5      -9.001   1.480  35.5260  0.00  0.00     0.000 C
ATOM     69  C5  BDP B   5      -9.105   0.765  34.1850  0.00  0.00     0.000 C
ATOM     70  O5  BDP B   5      -9.909   1.526  33.2660  0.00  0.00     0.000 O
ATOM     71   O  BDP B   5      -9.134   5.007  34.1710  0.00  0.00     0.000 O
ATOM     73  HD  BDP B   5      -8.875   5.813  33.9880  0.00  0.00     0.000 HD
ATOM     73   O  BDP B   5      -8.634   3.582  36.6480  0.00  0.00     0.000 O
ATOM     75  HD  BDP B   5      -8.375   4.388  36.4650  0.00  0.00     0.000 HD
BRANCH 69 75
ATOM     75   C  BDP B   5      -9.742  -0.582  34.4140  0.00  0.00     0.000 C
ATOM     76   O  BDP B   5     -10.789  -0.644  35.0890  0.00  0.00     0.000 OA
ATOM     77   O  BDP B   5      -9.208  -1.594  33.9210  0.00  0.00     0.000 OA
ENDBRANCH 69 75
BRANCH 65 78
ATOM     78  O3  NAG B   6     -10.611   2.821  32.1310  0.00  0.00     0.000 O
BRANCH 78 81
ATOM     79  C1  NAG B   6     -11.408   3.704  28.5370  0.00  0.00     0.000 C
ATOM     80  C2  NAG B   6     -11.240   3.920  30.0490  0.00  0.00     0.000 C
ATOM     81  C3  NAG B   6     -10.630   2.686  30.6930  0.00  0.00     0.000 C
ATOM     82  C4  NAG B   6     -11.405   1.425  30.2970  0.00  0.00     0.000 C
ATOM     83  C5  NAG B   6     -11.481   1.334  28.7770  0.00  0.00     0.000 C
ATOM     84  O5  NAG B   6     -12.160   2.499  28.3080  0.00  0.00     0.000 O
BRANCH 80 87
ATOM     85   N  NAG B   6     -10.584   5.222  30.1310  0.00  0.00     0.000 N
ATOM     87  HD  NAG B   6     -10.636   6.086  30.1610  0.00  0.00     0.000 HD
ATOM     87   C  NAG B   6     -10.705   6.058  31.1700  0.00  0.00     0.000 C
ATOM     88   C  NAG B   6      -9.923   7.329  31.0740  0.00  0.00     0.000 C
ATOM     89   O  NAG B   6     -11.395   5.809  32.1510  0.00  0.00     0.000 OA
ENDBRANCH 80 87
ATOM     90   O  NAG B   6     -11.282  -0.784  27.6260  0.00  0.00     0.000 O
ATOM     92  HD  NAG B   6     -11.145   0.070  27.5840  0.00  0.00     0.000 HD
ATOM     92   O  NAG B   6     -11.282  -0.784  27.6260  0.00  0.00     0.000 O
ATOM     94  HD  NAG B   6     -11.145   0.070  27.5840  0.00  0.00     0.000 HD
ENDBRANCH 78 81
ENDBRANCH 65 78
ENDBRANCH 64 68
ENDBRANCH 48 64
ENDBRANCH 47 50
ENDBRANCH 34 47
ENDBRANCH 33 37
ENDBRANCH 17 33
ENDBRANCH 16 19
ENDBRANCH 1 16
TORSDOF 16
ENDMDL
MODEL 75
REMARK VINA RESULT:      -8.7     28.322     31.403
ROOT
ATOM      1  C1  BDP B   1       1.869  18.632  16.5280  0.00  0.00     0.000 C
ATOM      2  C2  BDP B   1       3.023  19.126  17.3820  0.00  0.00     0.000 C
ATOM      3  C3  BDP B   1       3.018  18.503  18.7620  0.00  0.00     0.000 C
ATOM      4  C4  BDP B   1       2.111  17.284  18.8900  0.00  0.00     0.000 C
ATOM      5  C5  BDP B   1       0.730  17.509  18.2830  0.00  0.00     0.000 C
ATOM      6  O5  BDP B   1       0.717  18.610  17.3580  0.00  0.00     0.000 O
ATOM      7   O  BDP B   1       4.266  18.843  16.7310  0.00  0.00     0.000 O
ATOM      9  HD  BDP B   1       4.766  18.823  16.0240  0.00  0.00     0.000 HD
ATOM      9   O  BDP B   1       2.590  19.469  19.7340  0.00  0.00     0.000 O
ATOM     11  HD  BDP B   1       3.090  19.449  19.0270  0.00  0.00     0.000 HD
ATOM     11   O  BDP B   1       2.724  16.139  18.2840  0.00  0.00     0.000 O
ATOM     13  HD  BDP B   1       3.224  16.119  17.5780  0.00  0.00     0.000 HD
ENDROOT
BRANCH 5 13
ATOM     13   C  BDP B   1      -0.206  17.787  19.4070  0.00  0.00     0.000 C
ATOM     14   O  BDP B   1       0.271  18.211  20.4800  0.00  0.00     0.000 OA
ATOM     15   O  BDP B   1      -1.431  17.614  19.2350  0.00  0.00     0.000 OA
ENDBRANCH 5 13
BRANCH 1 16
ATOM     16  O3  NAG B   2       1.868  17.962  15.2690  0.00  0.00     0.000 O
BRANCH 16 19
ATOM     17  C1  NAG B   2       3.023  14.995  13.5030  0.00  0.00     0.000 C
ATOM     18  C2  NAG B   2       2.487  15.658  14.7720  0.00  0.00     0.000 C
ATOM     19  C3  NAG B   2       1.599  16.843  14.4220  0.00  0.00     0.000 C
ATOM     20  C4  NAG B   2       1.755  17.256  12.9560  0.00  0.00     0.000 C
ATOM     21  C5  NAG B   2       3.172  17.105  12.3830  0.00  0.00     0.000 C
ATOM     22  O5  NAG B   2       3.877  15.971  12.9010  0.00  0.00     0.000 O
ATOM     23   O  NAG B   2       0.831  16.497  12.1690  0.00  0.00     0.000 O
ATOM     25  HD  NAG B   2       0.962  15.758  12.6010  0.00  0.00     0.000 HD
ATOM     25   C  NAG B   2       4.003  18.366  12.6580  0.00  0.00     0.000 C
ATOM     26   O  NAG B   2       3.791  19.370  11.6560  0.00  0.00     0.000 O
ATOM     28  HD  NAG B   2       3.922  18.631  12.0880  0.00  0.00     0.000 HD
BRANCH 18 30
ATOM     28   N  NAG B   2       1.138  15.158  15.0320  0.00  0.00     0.000 N
ATOM     30  HD  NAG B   2       0.506  15.173  15.6240  0.00  0.00     0.000 HD
ATOM     30   C  NAG B   2       0.827  13.874  15.2640  0.00  0.00     0.000 C
ATOM     31   C  NAG B   2      -0.634  13.610  15.4940  0.00  0.00     0.000 C
ATOM     32   O  NAG B   2       1.645  12.985  15.2950  0.00  0.00     0.000 OA
ENDBRANCH 18 30
BRANCH 17 33
ATOM     33  O4  BDP B   3       3.982  14.178  12.7960  0.00  0.00     0.000 O
BRANCH 33 37
ATOM     34  C1  BDP B   3       7.744  12.456  11.7360  0.00  0.00     0.000 C
ATOM     35  C2  BDP B   3       7.246  12.222  13.1570  0.00  0.00     0.000 C
ATOM     36  C3  BDP B   3       5.755  12.486  13.3330  0.00  0.00     0.000 C
ATOM     37  C4  BDP B   3       5.385  13.812  12.6520  0.00  0.00     0.000 C
ATOM     38  C5  BDP B   3       5.822  13.706  11.1780  0.00  0.00     0.000 C
ATOM     39  O5  BDP B   3       7.249  13.689  11.1990  0.00  0.00     0.000 O
ATOM     40   O  BDP B   3       7.601  10.878  13.4890  0.00  0.00     0.000 O
ATOM     42  HD  BDP B   3       8.356  11.278  13.6320  0.00  0.00     0.000 HD
ATOM     42   O  BDP B   3       5.509  12.524  14.7380  0.00  0.00     0.000 O
ATOM     44  HD  BDP B   3       6.264  12.923  14.8820  0.00  0.00     0.000 HD
BRANCH 38 44
ATOM     44   C  BDP B   3       5.342  14.826  10.3090  0.00  0.00     0.000 C
ATOM     45   O  BDP B   3       5.979  15.902  10.3350  0.00  0.00     0.000 OA
ATOM     46   O  BDP B   3       4.331  14.662   9.5900  0.00  0.00     0.000 OA
ENDBRANCH 38 44
BRANCH 34 47
ATOM     47  O3  NAG B   4       9.045  13.040  11.7150  0.00  0.00     0.000 O
BRANCH 47 50
ATOM     48  C1  NAG B   4      11.594  12.770   8.9620  0.00  0.00     0.000 C
ATOM     49  C2  NAG B   4      10.872  12.390  10.2430  0.00  0.00     0.000 C
ATOM     50  C3  NAG B   4       9.703  13.342  10.4680  0.00  0.00     0.000 C
ATOM     51  C4  NAG B   4      10.157  14.793  10.4720  0.00  0.00     0.000 C
ATOM     52  C5  NAG B   4      10.936  15.097   9.1920  0.00  0.00     0.000 C
ATOM     53  O5  NAG B   4      11.998  14.151   9.0170  0.00  0.00     0.000 O
ATOM     54   O  NAG B   4       9.009  15.639  10.5770  0.00  0.00     0.000 O
ATOM     56  HD  NAG B   4       9.750  16.062  10.7260  0.00  0.00     0.000 HD
ATOM     56   C  NAG B   4      11.513  16.507   9.2170  0.00  0.00     0.000 C
ATOM     57   O  NAG B   4      12.400  16.630  10.3370  0.00  0.00     0.000 O
ATOM     59  HD  NAG B   4      13.141  17.053  10.4860  0.00  0.00     0.000 HD
BRANCH 49 61
ATOM     59   N  NAG B   4      11.675  11.184  10.0350  0.00  0.00     0.000 N
ATOM     61  HD  NAG B   4      11.557  11.789  10.6430  0.00  0.00     0.000 HD
ATOM     61   O  NAG B   4      11.434  10.335  12.1140  0.00  0.00     0.000 OA
ATOM     62   C  NAG B   4      11.825  10.229  10.9600  0.00  0.00     0.000 C
ATOM     63   C  NAG B   4      12.499   8.977  10.4950  0.00  0.00     0.000 C
ENDBRANCH 49 61
BRANCH 48 64
ATOM     64  O4  BDP B   5      12.337  12.017   8.0080  0.00  0.00     0.000 O
BRANCH 64 68
ATOM     65  C1  BDP B   5      14.748   9.307   5.9550  0.00  0.00     0.000 C
ATOM     66  C2  BDP B   5      13.303   8.881   6.1740  0.00  0.00     0.000 C
ATOM     67  C3  BDP B   5      12.458  10.097   6.5300  0.00  0.00     0.000 C
ATOM     68  C4  BDP B   5      13.045  10.806   7.7460  0.00  0.00     0.000 C
ATOM     69  C5  BDP B   5      14.521  11.137   7.5610  0.00  0.00     0.000 C
ATOM     70  O5  BDP B   5      15.248   9.975   7.1240  0.00  0.00     0.000 O
ATOM     71   O  BDP B   5      12.812   8.219   4.9980  0.00  0.00     0.000 O
ATOM     73  HD  BDP B   5      12.560   7.847   4.2580  0.00  0.00     0.000 HD
ATOM     73   O  BDP B   5      11.110   9.707   6.8170  0.00  0.00     0.000 O
ATOM     75  HD  BDP B   5      10.858   9.335   6.0760  0.00  0.00     0.000 HD
BRANCH 69 75
ATOM     75   C  BDP B   5      15.070  11.606   8.8840  0.00  0.00     0.000 C
ATOM     76   O  BDP B   5      15.112  10.801   9.8360  0.00  0.00     0.000 OA
ATOM     77   O  BDP B   5      15.470  12.781   8.9880  0.00  0.00     0.000 OA
ENDBRANCH 69 75
BRANCH 65 78
ATOM     78  O3  NAG B   6      15.913   8.511   6.1890  0.00  0.00     0.000 O
BRANCH 78 81
ATOM     79  C1  NAG B   6      18.745   7.009   4.1750  0.00  0.00     0.000 C
ATOM     80  C2  NAG B   6      17.330   7.136   4.7620  0.00  0.00     0.000 C
ATOM     81  C3  NAG B   6      17.185   8.452   5.5070  0.00  0.00     0.000 C
ATOM     82  C4  NAG B   6      18.326   8.639   6.5120  0.00  0.00     0.000 C
ATOM     83  C5  NAG B   6      19.663   8.502   5.7920  0.00  0.00     0.000 C
ATOM     84  O5  NAG B   6      19.714   7.193   5.2230  0.00  0.00     0.000 O
BRANCH 80 87
ATOM     85   N  NAG B   6      16.292   6.126   4.5770  0.00  0.00     0.000 N
ATOM     87  HD  NAG B   6      15.467   5.877   4.6590  0.00  0.00     0.000 HD
ATOM     87   C  NAG B   6      15.247   6.268   3.7530  0.00  0.00     0.000 C
ATOM     88   C  NAG B   6      14.313   5.102   3.6810  0.00  0.00     0.000 C
ATOM     89   O  NAG B   6      15.057   7.275   3.0810  0.00  0.00     0.000 OA
ENDBRANCH 80 87
ATOM     90   O  NAG B   6      21.548   9.911   6.3460  0.00  0.00     0.000 O
ATOM     92  HD  NAG B   6      21.148   9.462   5.7230  0.00  0.00     0.000 HD
ATOM     92   O  NAG B   6      21.548   9.911   6.3460  0.00  0.00     0.000 O
ATOM     94  HD  NAG B   6      21.148   9.462   5.7230  0.00  0.00     0.000 HD
ENDBRANCH 78 81
ENDBRANCH 65 78
ENDBRANCH 64 68
ENDBRANCH 48 64
ENDBRANCH 47 50
ENDBRANCH 34 47
ENDBRANCH 33 37
ENDBRANCH 17 33
ENDBRANCH 16 19
ENDBRANCH 1 16
TORSDOF 16
ENDMDL
MODEL 76
REMARK VINA RESULT:      -8.7     35.337     40.318
ROOT
ATOM      1  C1  BDP B   1       1.509  -4.847  76.5360  0.00  0.00     0.000 C
ATOM      2  C2  BDP B   1       1.494  -6.226  77.1710  0.00  0.00     0.000 C
ATOM      3  C3  BDP B   1       0.110  -6.838  77.1720  0.00  0.00     0.000 C
ATOM      4  C4  BDP B   1      -0.880  -6.137  76.2480  0.00  0.00     0.000 C
ATOM      5  C5  BDP B   1      -0.850  -4.618  76.3940  0.00  0.00     0.000 C
ATOM      6  O5  BDP B   1       0.363  -4.158  77.0130  0.00  0.00     0.000 O
ATOM      7   O  BDP B   1       2.402  -7.091  76.4800  0.00  0.00     0.000 O
ATOM      9  HD  BDP B   1       3.167  -7.245  76.1060  0.00  0.00     0.000 HD
ATOM      9   O  BDP B   1      -0.438  -6.810  78.4990  0.00  0.00     0.000 O
ATOM     11  HD  BDP B   1       0.327  -6.965  78.1240  0.00  0.00     0.000 HD
ATOM     11   O  BDP B   1      -0.631  -6.496  74.8840  0.00  0.00     0.000 O
ATOM     13  HD  BDP B   1       0.134  -6.651  74.5090  0.00  0.00     0.000 HD
ENDROOT
BRANCH 5 13
ATOM     13   C  BDP B   1      -2.019  -4.232  77.2310  0.00  0.00     0.000 C
ATOM     14   O  BDP B   1      -1.988  -4.507  78.4490  0.00  0.00     0.000 OA
ATOM     15   O  BDP B   1      -2.974  -3.628  76.7000  0.00  0.00     0.000 OA
ENDBRANCH 5 13
BRANCH 1 16
ATOM     16  O3  NAG B   2       2.242  -4.350  75.4180  0.00  0.00     0.000 O
BRANCH 16 19
ATOM     17  C1  NAG B   2       3.939  -3.229  72.3970  0.00  0.00     0.000 C
ATOM     18  C2  NAG B   2       3.278  -2.918  73.7400  0.00  0.00     0.000 C
ATOM     19  C3  NAG B   2       3.451  -4.082  74.7050  0.00  0.00     0.000 C
ATOM     20  C4  NAG B   2       3.919  -5.350  73.9860  0.00  0.00     0.000 C
ATOM     21  C5  NAG B   2       3.353  -5.543  72.5720  0.00  0.00     0.000 C
ATOM     22  O5  NAG B   2       3.187  -4.316  71.8530  0.00  0.00     0.000 O
ATOM     23   O  NAG B   2       5.349  -5.344  73.9390  0.00  0.00     0.000 O
ATOM     25  HD  NAG B   2       5.410  -4.498  73.7630  0.00  0.00     0.000 HD
ATOM     25   C  NAG B   2       2.001  -6.268  72.6250  0.00  0.00     0.000 C
ATOM     26   O  NAG B   2       2.163  -7.693  72.6690  0.00  0.00     0.000 O
ATOM     28  HD  NAG B   2       2.224  -6.847  72.4930  0.00  0.00     0.000 HD
BRANCH 18 30
ATOM     28   N  NAG B   2       4.582  -2.264  73.6390  0.00  0.00     0.000 N
ATOM     30  HD  NAG B   2       5.431  -2.418  73.7140  0.00  0.00     0.000 HD
ATOM     30   C  NAG B   2       5.044  -1.337  74.4890  0.00  0.00     0.000 C
ATOM     31   C  NAG B   2       6.412  -0.807  74.1640  0.00  0.00     0.000 C
ATOM     32   O  NAG B   2       4.426  -0.949  75.4530  0.00  0.00     0.000 OA
ENDBRANCH 18 30
BRANCH 17 33
ATOM     33  O4  BDP B   3       4.094  -3.035  70.9750  0.00  0.00     0.000 O
BRANCH 33 37
ATOM     34  C1  BDP B   3       2.993  -2.286  66.9170  0.00  0.00     0.000 C
ATOM     35  C2  BDP B   3       2.434  -1.343  67.9760  0.00  0.00     0.000 C
ATOM     36  C3  BDP B   3       3.184  -1.401  69.3020  0.00  0.00     0.000 C
ATOM     37  C4  BDP B   3       3.415  -2.868  69.6960  0.00  0.00     0.000 C
ATOM     38  C5  BDP B   3       4.168  -3.541  68.5330  0.00  0.00     0.000 C
ATOM     39  O5  BDP B   3       3.239  -3.593  67.4500  0.00  0.00     0.000 O
ATOM     40   O  BDP B   3       2.456  -0.036  67.3980  0.00  0.00     0.000 O
ATOM     42  HD  BDP B   3       1.730  -0.349  67.0440  0.00  0.00     0.000 HD
ATOM     42   O  BDP B   3       2.379  -0.714  70.2580  0.00  0.00     0.000 O
ATOM     44  HD  BDP B   3       1.653  -1.028  69.9050  0.00  0.00     0.000 HD
BRANCH 38 44
ATOM     44   C  BDP B   3       4.671  -4.918  68.8350  0.00  0.00     0.000 C
ATOM     45   O  BDP B   3       3.878  -5.875  68.6930  0.00  0.00     0.000 OA
ATOM     46   O  BDP B   3       5.851  -5.075  69.2180  0.00  0.00     0.000 OA
ENDBRANCH 38 44
BRANCH 34 47
ATOM     47  O3  NAG B   4       1.960  -2.871  66.1250  0.00  0.00     0.000 O
BRANCH 47 50
ATOM     48  C1  NAG B   4       2.427  -3.066  62.3980  0.00  0.00     0.000 C
ATOM     49  C2  NAG B   4       2.185  -2.408  63.7450  0.00  0.00     0.000 C
ATOM     50  C3  NAG B   4       2.254  -3.464  64.8430  0.00  0.00     0.000 C
ATOM     51  C4  NAG B   4       1.288  -4.608  64.5800  0.00  0.00     0.000 C
ATOM     52  C5  NAG B   4       1.532  -5.183  63.1840  0.00  0.00     0.000 C
ATOM     53  O5  NAG B   4       1.489  -4.141  62.2010  0.00  0.00     0.000 O
ATOM     54   O  NAG B   4       1.474  -5.613  65.5800  0.00  0.00     0.000 O
ATOM     56  HD  NAG B   4       0.743  -5.723  65.1280  0.00  0.00     0.000 HD
ATOM     56   C  NAG B   4       0.500  -6.249  62.8370  0.00  0.00     0.000 C
ATOM     57   O  NAG B   4      -0.808  -5.664  62.8720  0.00  0.00     0.000 O
ATOM     59  HD  NAG B   4      -1.539  -5.773  62.4210  0.00  0.00     0.000 HD
BRANCH 49 61
ATOM     59   N  NAG B   4       3.089  -1.261  63.6560  0.00  0.00     0.000 N
ATOM     61  HD  NAG B   4       2.264  -1.454  63.4760  0.00  0.00     0.000 HD
ATOM     61   O  NAG B   4       1.623   0.297  64.3820  0.00  0.00     0.000 OA
ATOM     62   C  NAG B   4       2.755  -0.026  64.0490  0.00  0.00     0.000 C
ATOM     63   C  NAG B   4       3.872   0.967  64.0830  0.00  0.00     0.000 C
ENDBRANCH 49 61
BRANCH 48 64
ATOM     64  O4  BDP B   5       2.988  -2.595  61.1760  0.00  0.00     0.000 O
BRANCH 64 68
ATOM     65  C1  BDP B   5       5.699  -1.512  58.2010  0.00  0.00     0.000 C
ATOM     66  C2  BDP B   5       6.296  -2.154  59.4460  0.00  0.00     0.000 C
ATOM     67  C3  BDP B   5       5.203  -2.872  60.2270  0.00  0.00     0.000 C
ATOM     68  C4  BDP B   5       4.072  -1.904  60.5580  0.00  0.00     0.000 C
ATOM     69  C5  BDP B   5       3.550  -1.186  59.3200  0.00  0.00     0.000 C
ATOM     70  O5  BDP B   5       4.637  -0.618  58.5680  0.00  0.00     0.000 O
ATOM     71   O  BDP B   5       7.353  -3.049  59.0680  0.00  0.00     0.000 O
ATOM     73  HD  BDP B   5       7.966  -3.591  58.7840  0.00  0.00     0.000 HD
ATOM     73   O  BDP B   5       5.729  -3.417  61.4430  0.00  0.00     0.000 O
ATOM     75  HD  BDP B   5       6.342  -3.958  61.1590  0.00  0.00     0.000 HD
BRANCH 69 75
ATOM     75   C  BDP B   5       2.619  -0.088  59.7670  0.00  0.00     0.000 C
ATOM     76   O  BDP B   5       2.915   0.574  60.7830  0.00  0.00     0.000 OA
ATOM     77   O  BDP B   5       1.585   0.131  59.1100  0.00  0.00     0.000 OA
ENDBRANCH 69 75
BRANCH 65 78
ATOM     78  O3  NAG B   6       6.166  -0.327  57.5500  0.00  0.00     0.000 O
BRANCH 78 81
ATOM     79  C1  NAG B   6       7.326   0.500  54.0420  0.00  0.00     0.000 C
ATOM     80  C2  NAG B   6       7.382  -0.116  55.4490  0.00  0.00     0.000 C
ATOM     81  C3  NAG B   6       6.068   0.112  56.1780  0.00  0.00     0.000 C
ATOM     82  C4  NAG B   6       5.666   1.590  56.1290  0.00  0.00     0.000 C
ATOM     83  C5  NAG B   6       5.638   2.060  54.6790  0.00  0.00     0.000 C
ATOM     84  O5  NAG B   6       6.951   1.885  54.1430  0.00  0.00     0.000 O
BRANCH 80 87
ATOM     85   N  NAG B   6       7.727  -1.528  55.3080  0.00  0.00     0.000 N
ATOM     87  HD  NAG B   6       8.312  -2.141  55.1280  0.00  0.00     0.000 HD
ATOM     87   C  NAG B   6       8.596  -2.170  56.0980  0.00  0.00     0.000 C
ATOM     88   C  NAG B   6       8.784  -3.625  55.8090  0.00  0.00     0.000 C
ATOM     89   O  NAG B   6       9.197  -1.621  57.0140  0.00  0.00     0.000 OA
ENDBRANCH 80 87
ATOM     90   O  NAG B   6       3.941   3.583  53.8750  0.00  0.00     0.000 O
ATOM     92  HD  NAG B   6       4.473   2.931  53.6710  0.00  0.00     0.000 HD
ATOM     92   O  NAG B   6       3.941   3.583  53.8750  0.00  0.00     0.000 O
ATOM     94  HD  NAG B   6       4.473   2.931  53.6710  0.00  0.00     0.000 HD
ENDBRANCH 78 81
ENDBRANCH 65 78
ENDBRANCH 64 68
ENDBRANCH 48 64
ENDBRANCH 47 50
ENDBRANCH 34 47
ENDBRANCH 33 37
ENDBRANCH 17 33
ENDBRANCH 16 19
ENDBRANCH 1 16
TORSDOF 16
ENDMDL
MODEL 77
REMARK VINA RESULT:      -8.7     30.471     38.563
ROOT
ATOM      1  C1  BDP B   1      16.920 -34.002  46.6550  0.00  0.00     0.000 C
ATOM      2  C2  BDP B   1      15.830 -35.034  46.4240  0.00  0.00     0.000 C
ATOM      3  C3  BDP B   1      15.643 -35.346  44.9550  0.00  0.00     0.000 C
ATOM      4  C4  BDP B   1      16.782 -34.859  44.0660  0.00  0.00     0.000 C
ATOM      5  C5  BDP B   1      17.194 -33.422  44.3690  0.00  0.00     0.000 C
ATOM      6  O5  BDP B   1      16.753 -32.994  45.6690  0.00  0.00     0.000 O
ATOM      7   O  BDP B   1      16.139 -36.236  47.1370  0.00  0.00     0.000 O
ATOM      9  HD  BDP B   1      16.414 -36.650  47.8460  0.00  0.00     0.000 HD
ATOM      9   O  BDP B   1      14.429 -34.746  44.4760  0.00  0.00     0.000 O
ATOM     11  HD  BDP B   1      14.704 -35.159  45.1860  0.00  0.00     0.000 HD
ATOM     11   O  BDP B   1      17.918 -35.724  44.1910  0.00  0.00     0.000 O
ATOM     13  HD  BDP B   1      18.192 -36.137  44.9010  0.00  0.00     0.000 HD
ENDROOT
BRANCH 5 13
ATOM     13   C  BDP B   1      16.581 -32.558  43.3220  0.00  0.00     0.000 C
ATOM     14   O  BDP B   1      16.622 -31.320  43.4810  0.00  0.00     0.000 OA
ATOM     15   O  BDP B   1      16.074 -33.093  42.3130  0.00  0.00     0.000 OA
ENDBRANCH 5 13
BRANCH 1 16
ATOM     16  O3  NAG B   2      18.123 -34.080  47.4170  0.00  0.00     0.000 O
BRANCH 16 19
ATOM     17  C1  NAG B   2      18.972 -34.070  50.9570  0.00  0.00     0.000 C
ATOM     18  C2  NAG B   2      18.122 -34.592  49.7990  0.00  0.00     0.000 C
ATOM     19  C3  NAG B   2      18.915 -34.569  48.5000  0.00  0.00     0.000 C
ATOM     20  C4  NAG B   2      20.190 -33.731  48.6290  0.00  0.00     0.000 C
ATOM     21  C5  NAG B   2      20.068 -32.493  49.5280  0.00  0.00     0.000 C
ATOM     22  O5  NAG B   2      19.209 -32.692  50.6570  0.00  0.00     0.000 O
ATOM     23   O  NAG B   2      21.243 -34.575  49.1050  0.00  0.00     0.000 O
ATOM     25  HD  NAG B   2      20.743 -34.997  49.6740  0.00  0.00     0.000 HD
ATOM     25   C  NAG B   2      19.552 -31.290  48.7260  0.00  0.00     0.000 C
ATOM     26   O  NAG B   2      20.618 -30.601  48.0570  0.00  0.00     0.000 O
ATOM     28  HD  NAG B   2      20.118 -31.023  48.6250  0.00  0.00     0.000 HD
BRANCH 18 30
ATOM     28   N  NAG B   2      18.610 -35.964  49.6660  0.00  0.00     0.000 N
ATOM     30  HD  NAG B   2      18.556 -36.662  49.1570  0.00  0.00     0.000 HD
ATOM     30   C  NAG B   2      18.277 -36.979  50.4770  0.00  0.00     0.000 C
ATOM     31   C  NAG B   2      18.920 -38.294  50.1390  0.00  0.00     0.000 C
ATOM     32   O  NAG B   2      17.514 -36.865  51.4080  0.00  0.00     0.000 OA
ENDBRANCH 18 30
BRANCH 17 33
ATOM     33  O4  BDP B   3      19.121 -33.485  52.2690  0.00  0.00     0.000 O
BRANCH 33 37
ATOM     34  C1  BDP B   3      17.968 -33.381  56.3800  0.00  0.00     0.000 C
ATOM     35  C2  BDP B   3      16.997 -34.029  55.4000  0.00  0.00     0.000 C
ATOM     36  C3  BDP B   3      17.635 -34.408  54.0680  0.00  0.00     0.000 C
ATOM     37  C4  BDP B   3      18.494 -33.239  53.5620  0.00  0.00     0.000 C
ATOM     38  C5  BDP B   3      19.519 -32.913  54.6650  0.00  0.00     0.000 C
ATOM     39  O5  BDP B   3      18.762 -32.371  55.7470  0.00  0.00     0.000 O
ATOM     40   O  BDP B   3      16.443 -35.160  56.0750  0.00  0.00     0.000 O
ATOM     42  HD  BDP B   3      15.956 -34.527  56.4090  0.00  0.00     0.000 HD
ATOM     42   O  BDP B   3      16.567 -34.708  53.1730  0.00  0.00     0.000 O
ATOM     44  HD  BDP B   3      16.080 -34.075  53.5060  0.00  0.00     0.000 HD
BRANCH 38 44
ATOM     44   C  BDP B   3      20.583 -31.942  54.2550  0.00  0.00     0.000 C
ATOM     45   O  BDP B   3      21.570 -32.386  53.6290  0.00  0.00     0.000 OA
ATOM     46   O  BDP B   3      20.460 -30.732  54.5440  0.00  0.00     0.000 OA
ENDBRANCH 38 44
BRANCH 34 47
ATOM     47  O3  NAG B   4      17.350 -32.338  57.1320  0.00  0.00     0.000 O
BRANCH 47 50
ATOM     48  C1  NAG B   4      17.569 -32.369  60.8870  0.00  0.00     0.000 C
ATOM     49  C2  NAG B   4      17.101 -32.804  59.5090  0.00  0.00     0.000 C
ATOM     50  C3  NAG B   4      17.829 -31.988  58.4470  0.00  0.00     0.000 C
ATOM     51  C4  NAG B   4      17.652 -30.494  58.6700  0.00  0.00     0.000 C
ATOM     52  C5  NAG B   4      18.071 -30.128  60.0940  0.00  0.00     0.000 C
ATOM     53  O5  NAG B   4      17.381 -30.949  61.0450  0.00  0.00     0.000 O
ATOM     54   O  NAG B   4      18.441 -29.783  57.7130  0.00  0.00     0.000 O
ATOM     56  HD  NAG B   4      17.865 -29.275  58.1130  0.00  0.00     0.000 HD
ATOM     56   C  NAG B   4      17.790 -28.661  60.3950  0.00  0.00     0.000 C
ATOM     57   O  NAG B   4      16.385 -28.415  60.2500  0.00  0.00     0.000 O
ATOM     59  HD  NAG B   4      15.809 -27.907  60.6510  0.00  0.00     0.000 HD
BRANCH 49 61
ATOM     59   N  NAG B   4      17.172 -34.254  59.6910  0.00  0.00     0.000 N
ATOM     61  HD  NAG B   4      16.591 -33.617  59.7700  0.00  0.00     0.000 HD
ATOM     61   O  NAG B   4      15.172 -34.743  58.7630  0.00  0.00     0.000 OA
ATOM     62   C  NAG B   4      16.240 -35.100  59.2390  0.00  0.00     0.000 C
ATOM     63   C  NAG B   4      16.587 -36.553  59.3270  0.00  0.00     0.000 C
ENDBRANCH 49 61
BRANCH 48 64
ATOM     64  O4  BDP B   5      17.678 -33.050  62.1340  0.00  0.00     0.000 O
BRANCH 64 68
ATOM     65  C1  BDP B   5      16.865 -34.593  65.9190  0.00  0.00     0.000 C
ATOM     66  C2  BDP B   5      17.180 -35.616  64.8360  0.00  0.00     0.000 C
ATOM     67  C3  BDP B   5      17.862 -34.925  63.6620  0.00  0.00     0.000 C
ATOM     68  C4  BDP B   5      16.992 -33.783  63.1480  0.00  0.00     0.000 C
ATOM     69  C5  BDP B   5      16.593 -32.820  64.2580  0.00  0.00     0.000 C
ATOM     70  O5  BDP B   5      16.052 -33.538  65.3810  0.00  0.00     0.000 O
ATOM     71   O  BDP B   5      17.998 -36.661  65.3840  0.00  0.00     0.000 O
ATOM     73  HD  BDP B   5      18.505 -37.254  65.7590  0.00  0.00     0.000 HD
ATOM     73   O  BDP B   5      18.098 -35.855  62.5990  0.00  0.00     0.000 O
ATOM     75  HD  BDP B   5      18.605 -36.449  62.9740  0.00  0.00     0.000 HD
BRANCH 69 75
ATOM     75   C  BDP B   5      15.550 -31.877  63.7140  0.00  0.00     0.000 C
ATOM     76   O  BDP B   5      15.529 -30.701  64.1300  0.00  0.00     0.000 OA
ATOM     77   O  BDP B   5      14.742 -32.296  62.8640  0.00  0.00     0.000 OA
ENDBRANCH 69 75
BRANCH 65 78
ATOM     78  O3  NAG B   6      15.779 -34.648  66.8480  0.00  0.00     0.000 O
BRANCH 78 81
ATOM     79  C1  NAG B   6      14.924 -34.797  70.5330  0.00  0.00     0.000 C
ATOM     80  C2  NAG B   6      15.201 -35.325  69.1170  0.00  0.00     0.000 C
ATOM     81  C3  NAG B   6      15.665 -34.193  68.2140  0.00  0.00     0.000 C
ATOM     82  C4  NAG B   6      14.701 -33.004  68.2910  0.00  0.00     0.000 C
ATOM     83  C5  NAG B   6      14.532 -32.581  69.7450  0.00  0.00     0.000 C
ATOM     84  O5  NAG B   6      14.000 -33.697  70.4610  0.00  0.00     0.000 O
BRANCH 80 87
ATOM     85   N  NAG B   6      15.065 -36.754  68.8530  0.00  0.00     0.000 N
ATOM     87  HD  NAG B   6      15.113 -37.422  68.3030  0.00  0.00     0.000 HD
ATOM     87   C  NAG B   6      16.088 -37.558  68.5350  0.00  0.00     0.000 C
ATOM     88   C  NAG B   6      15.744 -39.000  68.3380  0.00  0.00     0.000 C
ATOM     89   O  NAG B   6      17.242 -37.159  68.4240  0.00  0.00     0.000 OA
ENDBRANCH 80 87
ATOM     90   O  NAG B   6      14.371 -30.252  70.3750  0.00  0.00     0.000 O
ATOM     92  HD  NAG B   6      14.625 -31.044  70.6170  0.00  0.00     0.000 HD
ATOM     92   O  NAG B   6      14.371 -30.252  70.3750  0.00  0.00     0.000 O
ATOM     94  HD  NAG B   6      14.625 -31.044  70.6170  0.00  0.00     0.000 HD
ENDBRANCH 78 81
ENDBRANCH 65 78
ENDBRANCH 64 68
ENDBRANCH 48 64
ENDBRANCH 47 50
ENDBRANCH 34 47
ENDBRANCH 33 37
ENDBRANCH 17 33
ENDBRANCH 16 19
ENDBRANCH 1 16
TORSDOF 16
ENDMDL
MODEL 78
REMARK VINA RESULT:      -8.7     30.750     34.754
ROOT
ATOM      1  C1  BDP B   1     -22.203 -20.501  41.9140  0.00  0.00     0.000 C
ATOM      2  C2  BDP B   1     -20.889 -20.754  41.1970  0.00  0.00     0.000 C
ATOM      3  C3  BDP B   1     -20.884 -20.180  39.7960  0.00  0.00     0.000 C
ATOM      4  C4  BDP B   1     -22.011 -19.189  39.5270  0.00  0.00     0.000 C
ATOM      5  C5  BDP B   1     -23.368 -19.693  40.0080  0.00  0.00     0.000 C
ATOM      6  O5  BDP B   1     -23.241 -20.749  40.9760  0.00  0.00     0.000 O
ATOM      7   O  BDP B   1     -19.808 -20.194  41.9510  0.00  0.00     0.000 O
ATOM      9  HD  BDP B   1     -19.400 -20.050  42.7000  0.00  0.00     0.000 HD
ATOM      9   O  BDP B   1     -20.994 -21.238  38.8320  0.00  0.00     0.000 O
ATOM     11  HD  BDP B   1     -20.585 -21.094  39.5820  0.00  0.00     0.000 HD
ATOM     11   O  BDP B   1     -21.721 -17.925  40.1350  0.00  0.00     0.000 O
ATOM     13  HD  BDP B   1     -21.312 -17.780  40.8850  0.00  0.00     0.000 HD
ENDROOT
BRANCH 5 13
ATOM     13   C  BDP B   1     -24.101 -20.193  38.8130  0.00  0.00     0.000 C
ATOM     14   O  BDP B   1     -23.962 -21.392  38.4950  0.00  0.00     0.000 OA
ATOM     15   O  BDP B   1     -24.848 -19.411  38.1870  0.00  0.00     0.000 OA
ENDBRANCH 5 13
BRANCH 1 16
ATOM     16  O3  NAG B   2     -22.477 -19.817  43.1350  0.00  0.00     0.000 O
BRANCH 16 19
ATOM     17  C1  NAG B   2     -21.853 -17.106  45.4830  0.00  0.00     0.000 C
ATOM     18  C2  NAG B   2     -21.871 -17.643  44.0520  0.00  0.00     0.000 C
ATOM     19  C3  NAG B   2     -22.951 -18.702  43.8910  0.00  0.00     0.000 C
ATOM     20  C4  NAG B   2     -23.480 -19.183  45.2450  0.00  0.00     0.000 C
ATOM     21  C5  NAG B   2     -22.433 -19.253  46.3660  0.00  0.00     0.000 C
ATOM     22  O5  NAG B   2     -21.452 -18.213  46.2940  0.00  0.00     0.000 O
ATOM     23   O  NAG B   2     -24.558 -18.329  45.6410  0.00  0.00     0.000 O
ATOM     25  HD  NAG B   2     -24.173 -17.601  45.3730  0.00  0.00     0.000 HD
ATOM     25   C  NAG B   2     -21.713 -20.609  46.3480  0.00  0.00     0.000 C
ATOM     26   O  NAG B   2     -22.442 -21.607  47.0750  0.00  0.00     0.000 O
ATOM     28  HD  NAG B   2     -22.057 -20.880  46.8060  0.00  0.00     0.000 HD
BRANCH 18 30
ATOM     28   N  NAG B   2     -22.509 -16.329  44.1310  0.00  0.00     0.000 N
ATOM     30  HD  NAG B   2     -23.233 -15.937  44.3990  0.00  0.00     0.000 HD
ATOM     30   C  NAG B   2     -22.951 -15.626  43.0780  0.00  0.00     0.000 C
ATOM     31   C  NAG B   2     -23.562 -14.296  43.4190  0.00  0.00     0.000 C
ATOM     32   O  NAG B   2     -22.879 -16.018  41.9370  0.00  0.00     0.000 OA
ENDBRANCH 18 30
BRANCH 17 33
ATOM     33  O4  BDP B   3     -21.199 -16.457  46.5960  0.00  0.00     0.000 O
BRANCH 33 37
ATOM     34  C1  BDP B   3     -20.305 -12.373  47.4700  0.00  0.00     0.000 C
ATOM     35  C2  BDP B   3     -19.137 -13.279  47.1010  0.00  0.00     0.000 C
ATOM     36  C3  BDP B   3     -19.559 -14.568  46.4050  0.00  0.00     0.000 C
ATOM     37  C4  BDP B   3     -20.741 -15.194  47.1600  0.00  0.00     0.000 C
ATOM     38  C5  BDP B   3     -21.857 -14.133  47.2210  0.00  0.00     0.000 C
ATOM     39  O5  BDP B   3     -21.369 -13.109  48.0870  0.00  0.00     0.000 O
ATOM     40   O  BDP B   3     -18.260 -12.490  46.2930  0.00  0.00     0.000 O
ATOM     42  HD  BDP B   3     -18.028 -12.220  47.0830  0.00  0.00     0.000 HD
ATOM     42   O  BDP B   3     -18.418 -15.424  46.4020  0.00  0.00     0.000 O
ATOM     44  HD  BDP B   3     -18.186 -15.154  47.1910  0.00  0.00     0.000 HD
BRANCH 38 44
ATOM     44   C  BDP B   3     -23.169 -14.644  47.7300  0.00  0.00     0.000 C
ATOM     45   O  BDP B   3     -24.046 -14.944  46.8910  0.00  0.00     0.000 OA
ATOM     46   O  BDP B   3     -23.353 -14.756  48.9620  0.00  0.00     0.000 OA
ENDBRANCH 38 44
BRANCH 34 47
ATOM     47  O3  NAG B   4     -20.105 -11.728  48.7260  0.00  0.00     0.000 O
BRANCH 47 50
ATOM     48  C1  NAG B   4     -20.136  -7.996  49.1960  0.00  0.00     0.000 C
ATOM     49  C2  NAG B   4     -19.559  -9.358  48.8540  0.00  0.00     0.000 C
ATOM     50  C3  NAG B   4     -20.649 -10.417  48.9820  0.00  0.00     0.000 C
ATOM     51  C4  NAG B   4     -21.291 -10.394  50.3600  0.00  0.00     0.000 C
ATOM     52  C5  NAG B   4     -21.789  -8.984  50.6780  0.00  0.00     0.000 C
ATOM     53  O5  NAG B   4     -20.733  -8.031  50.5080  0.00  0.00     0.000 O
ATOM     54   O  NAG B   4     -22.372 -11.330  50.3860  0.00  0.00     0.000 O
ATOM     56  HD  NAG B   4     -22.144 -11.062  51.1770  0.00  0.00     0.000 HD
ATOM     56   C  NAG B   4     -22.327  -8.894  52.1020  0.00  0.00     0.000 C
ATOM     57   O  NAG B   4     -21.278  -9.231  53.0190  0.00  0.00     0.000 O
ATOM     59  HD  NAG B   4     -21.049  -8.964  53.8110  0.00  0.00     0.000 HD
BRANCH 49 61
ATOM     59   N  NAG B   4     -18.849  -9.030  47.6170  0.00  0.00     0.000 N
ATOM     61  HD  NAG B   4     -18.690  -9.069  48.4680  0.00  0.00     0.000 HD
ATOM     61   O  NAG B   4     -16.920 -10.091  48.1210  0.00  0.00     0.000 OA
ATOM     62   C  NAG B   4     -17.624  -9.484  47.3280  0.00  0.00     0.000 C
ATOM     63   C  NAG B   4     -17.149  -9.221  45.9340  0.00  0.00     0.000 C
ENDBRANCH 49 61
BRANCH 48 64
ATOM     64  O4  BDP B   5     -19.819  -6.674  48.7720  0.00  0.00     0.000 O
BRANCH 64 68
ATOM     65  C1  BDP B   5     -18.370  -2.799  48.2600  0.00  0.00     0.000 C
ATOM     66  C2  BDP B   5     -17.318  -3.888  48.4270  0.00  0.00     0.000 C
ATOM     67  C3  BDP B   5     -17.948  -5.252  48.1720  0.00  0.00     0.000 C
ATOM     68  C4  BDP B   5     -19.146  -5.456  49.0920  0.00  0.00     0.000 C
ATOM     69  C5  BDP B   5     -20.145  -4.310  48.9980  0.00  0.00     0.000 C
ATOM     70  O5  BDP B   5     -19.478  -3.044  49.1410  0.00  0.00     0.000 O
ATOM     71   O  BDP B   5     -16.219  -3.637  47.5370  0.00  0.00     0.000 O
ATOM     73  HD  BDP B   5     -15.593  -3.450  46.9690  0.00  0.00     0.000 HD
ATOM     73   O  BDP B   5     -16.994  -6.296  48.3990  0.00  0.00     0.000 O
ATOM     75  HD  BDP B   5     -16.368  -6.109  47.8310  0.00  0.00     0.000 HD
BRANCH 69 75
ATOM     75   C  BDP B   5     -21.158  -4.473  50.1020  0.00  0.00     0.000 C
ATOM     76   O  BDP B   5     -22.347  -4.699  49.7970  0.00  0.00     0.000 OA
ATOM     77   O  BDP B   5     -20.781  -4.382  51.2850  0.00  0.00     0.000 OA
ENDBRANCH 69 75
BRANCH 65 78
ATOM     78  O3  NAG B   6     -18.403  -1.540  48.9370  0.00  0.00     0.000 O
BRANCH 78 81
ATOM     79  C1  NAG B   6     -19.110   2.171  48.6900  0.00  0.00     0.000 C
ATOM     80  C2  NAG B   6     -18.269   0.889  48.7990  0.00  0.00     0.000 C
ATOM     81  C3  NAG B   6     -19.161  -0.337  48.6830  0.00  0.00     0.000 C
ATOM     82  C4  NAG B   6     -20.341  -0.247  49.6560  0.00  0.00     0.000 C
ATOM     83  C5  NAG B   6     -21.088   1.062  49.4270  0.00  0.00     0.000 C
ATOM     84  O5  NAG B   6     -20.170   2.130  49.6620  0.00  0.00     0.000 O
BRANCH 80 87
ATOM     85   N  NAG B   6     -17.215   0.146  48.1140  0.00  0.00     0.000 N
ATOM     87  HD  NAG B   6     -16.657   0.074  47.4550  0.00  0.00     0.000 HD
ATOM     87   C  NAG B   6     -15.957   0.583  47.9790  0.00  0.00     0.000 C
ATOM     88   C  NAG B   6     -15.020  -0.345  47.2730  0.00  0.00     0.000 C
ATOM     89   O  NAG B   6     -15.575   1.664  48.4110  0.00  0.00     0.000 OA
ENDBRANCH 80 87
ATOM     90   O  NAG B   6     -23.500   1.178  49.5440  0.00  0.00     0.000 O
ATOM     92  HD  NAG B   6     -22.784   1.505  49.1840  0.00  0.00     0.000 HD
ATOM     92   O  NAG B   6     -23.500   1.178  49.5440  0.00  0.00     0.000 O
ATOM     94  HD  NAG B   6     -22.784   1.505  49.1840  0.00  0.00     0.000 HD
ENDBRANCH 78 81
ENDBRANCH 65 78
ENDBRANCH 64 68
ENDBRANCH 48 64
ENDBRANCH 47 50
ENDBRANCH 34 47
ENDBRANCH 33 37
ENDBRANCH 17 33
ENDBRANCH 16 19
ENDBRANCH 1 16
TORSDOF 16
ENDMDL
MODEL 79
REMARK VINA RESULT:      -8.7      9.257     18.477
ROOT
ATOM      1  C1  BDP B   1       2.111  -8.415  29.8700  0.00  0.00     0.000 C
ATOM      2  C2  BDP B   1       3.125  -8.307  28.7450  0.00  0.00     0.000 C
ATOM      3  C3  BDP B   1       3.992  -9.543  28.6400  0.00  0.00     0.000 C
ATOM      4  C4  BDP B   1       3.458 -10.745  29.4110  0.00  0.00     0.000 C
ATOM      5  C5  BDP B   1       3.019 -10.389  30.8280  0.00  0.00     0.000 C
ATOM      6  O5  BDP B   1       2.786  -8.979  30.9850  0.00  0.00     0.000 O
ATOM      7   O  BDP B   1       2.451  -8.085  27.5020  0.00  0.00     0.000 O
ATOM      9  HD  BDP B   1       1.845  -7.688  27.0270  0.00  0.00     0.000 HD
ATOM      9   O  BDP B   1       5.311  -9.260  29.1320  0.00  0.00     0.000 O
ATOM     11  HD  BDP B   1       4.706  -8.864  28.6570  0.00  0.00     0.000 HD
ATOM     11   O  BDP B   1       2.368 -11.348  28.7040  0.00  0.00     0.000 O
ATOM     13  HD  BDP B   1       1.762 -10.952  28.2280  0.00  0.00     0.000 HD
ENDROOT
BRANCH 5 13
ATOM     13   C  BDP B   1       4.104 -10.824  31.7490  0.00  0.00     0.000 C
ATOM     14   O  BDP B   1       4.995 -10.000  32.0410  0.00  0.00     0.000 OA
ATOM     15   O  BDP B   1       4.076 -11.982  32.2180  0.00  0.00     0.000 OA
ENDBRANCH 5 13
BRANCH 1 16
ATOM     16  O3  NAG B   2       0.686  -8.345  29.8440  0.00  0.00     0.000 O
BRANCH 16 19
ATOM     17  C1  NAG B   2      -1.620  -5.530  29.7280  0.00  0.00     0.000 C
ATOM     18  C2  NAG B   2      -0.418  -6.284  29.1580  0.00  0.00     0.000 C
ATOM     19  C3  NAG B   2      -0.553  -7.778  29.4150  0.00  0.00     0.000 C
ATOM     20  C4  NAG B   2      -1.643  -8.080  30.4470  0.00  0.00     0.000 C
ATOM     21  C5  NAG B   2      -1.780  -7.046  31.5730  0.00  0.00     0.000 C
ATOM     22  O5  NAG B   2      -1.533  -5.702  31.1440  0.00  0.00     0.000 O
ATOM     23   O  NAG B   2      -2.892  -8.217  29.7610  0.00  0.00     0.000 O
ATOM     25  HD  NAG B   2      -2.747  -7.558  29.2180  0.00  0.00     0.000 HD
ATOM     25   C  NAG B   2      -0.823  -7.375  32.7280  0.00  0.00     0.000 C
ATOM     26   O  NAG B   2      -1.397  -8.325  33.6380  0.00  0.00     0.000 O
ATOM     28  HD  NAG B   2      -1.251  -7.666  33.0950  0.00  0.00     0.000 HD
BRANCH 18 30
ATOM     28   N  NAG B   2      -1.356  -5.912  28.1000  0.00  0.00     0.000 N
ATOM     30  HD  NAG B   2      -2.125  -6.126  27.7620  0.00  0.00     0.000 HD
ATOM     30   C  NAG B   2      -1.141  -6.084  26.7880  0.00  0.00     0.000 C
ATOM     31   C  NAG B   2      -2.255  -5.610  25.8980  0.00  0.00     0.000 C
ATOM     32   O  NAG B   2      -0.137  -6.585  26.3370  0.00  0.00     0.000 OA
ENDBRANCH 18 30
BRANCH 17 33
ATOM     33  O4  BDP B   3      -2.258  -4.334  30.2270  0.00  0.00     0.000 O
BRANCH 33 37
ATOM     34  C1  BDP B   3      -5.483  -2.823  32.5850  0.00  0.00     0.000 C
ATOM     35  C2  BDP B   3      -5.762  -4.051  31.7270  0.00  0.00     0.000 C
ATOM     36  C3  BDP B   3      -4.502  -4.771  31.2610  0.00  0.00     0.000 C
ATOM     37  C4  BDP B   3      -3.489  -3.743  30.7350  0.00  0.00     0.000 C
ATOM     38  C5  BDP B   3      -3.237  -2.729  31.8670  0.00  0.00     0.000 C
ATOM     39  O5  BDP B   3      -4.457  -2.003  32.0140  0.00  0.00     0.000 O
ATOM     40   O  BDP B   3      -6.613  -4.897  32.5040  0.00  0.00     0.000 O
ATOM     42  HD  BDP B   3      -7.194  -4.333  32.1960  0.00  0.00     0.000 HD
ATOM     42   O  BDP B   3      -4.905  -5.687  30.2450  0.00  0.00     0.000 O
ATOM     44  HD  BDP B   3      -5.486  -5.124  29.9370  0.00  0.00     0.000 HD
BRANCH 38 44
ATOM     44   C  BDP B   3      -2.109  -1.779  31.6080  0.00  0.00     0.000 C
ATOM     45   O  BDP B   3      -2.201  -1.019  30.6180  0.00  0.00     0.000 OA
ATOM     46   O  BDP B   3      -1.120  -1.770  32.3720  0.00  0.00     0.000 OA
ENDBRANCH 38 44
BRANCH 34 47
ATOM     47  O3  NAG B   4      -6.397  -1.763  32.3140  0.00  0.00     0.000 O
BRANCH 47 50
ATOM     48  C1  NAG B   4      -7.175   0.195  35.4300  0.00  0.00     0.000 C
ATOM     49  C2  NAG B   4      -7.023  -1.034  34.5510  0.00  0.00     0.000 C
ATOM     50  C3  NAG B   4      -6.486  -0.618  33.1870  0.00  0.00     0.000 C
ATOM     51  C4  NAG B   4      -7.360   0.446  32.5410  0.00  0.00     0.000 C
ATOM     52  C5  NAG B   4      -7.534   1.625  33.4990  0.00  0.00     0.000 C
ATOM     53  O5  NAG B   4      -8.009   1.169  34.7720  0.00  0.00     0.000 O
ATOM     54   O  NAG B   4      -6.750   0.872  31.3200  0.00  0.00     0.000 O
ATOM     56  HD  NAG B   4      -7.574   1.130  31.3900  0.00  0.00     0.000 HD
ATOM     56   C  NAG B   4      -8.507   2.655  32.9360  0.00  0.00     0.000 C
ATOM     57   O  NAG B   4      -9.782   2.033  32.7340  0.00  0.00     0.000 O
ATOM     59  HD  NAG B   4     -10.606   2.291  32.8030  0.00  0.00     0.000 HD
BRANCH 49 61
ATOM     59   N  NAG B   4      -6.385  -1.912  35.5330  0.00  0.00     0.000 N
ATOM     61  HD  NAG B   4      -7.181  -1.732  35.2420  0.00  0.00     0.000 HD
ATOM     61   O  NAG B   4      -7.619  -3.752  35.0950  0.00  0.00     0.000 OA
ATOM     62   C  NAG B   4      -6.687  -3.208  35.6690  0.00  0.00     0.000 C
ATOM     63   C  NAG B   4      -5.786  -3.991  36.5700  0.00  0.00     0.000 C
ENDBRANCH 49 61
BRANCH 48 64
ATOM     64  O4  BDP B   5      -7.104   0.395  36.8380  0.00  0.00     0.000 O
BRANCH 64 68
ATOM     65  C1  BDP B   5      -3.845   2.031  38.8570  0.00  0.00     0.000 C
ATOM     66  C2  BDP B   5      -4.331   0.679  39.3600  0.00  0.00     0.000 C
ATOM     67  C3  BDP B   5      -5.205   0.021  38.3000  0.00  0.00     0.000 C
ATOM     68  C4  BDP B   5      -6.355   0.947  37.9210  0.00  0.00     0.000 C
ATOM     69  C5  BDP B   5      -5.868   2.333  37.5180  0.00  0.00     0.000 C
ATOM     70  O5  BDP B   5      -4.965   2.859  38.5060  0.00  0.00     0.000 O
ATOM     71   O  BDP B   5      -3.203  -0.142  39.7020  0.00  0.00     0.000 O
ATOM     73  HD  BDP B   5      -2.489  -0.601  39.8730  0.00  0.00     0.000 HD
ATOM     73   O  BDP B   5      -5.736  -1.218  38.7840  0.00  0.00     0.000 O
ATOM     75  HD  BDP B   5      -5.022  -1.677  38.9560  0.00  0.00     0.000 HD
BRANCH 69 75
ATOM     75   C  BDP B   5      -7.066   3.240  37.3980  0.00  0.00     0.000 C
ATOM     76   O  BDP B   5      -7.189   3.939  36.3720  0.00  0.00     0.000 OA
ATOM     77   O  BDP B   5      -7.900   3.262  38.3220  0.00  0.00     0.000 OA
ENDBRANCH 69 75
BRANCH 65 78
ATOM     78  O3  NAG B   6      -3.539   3.176  39.6580  0.00  0.00     0.000 O
BRANCH 78 81
ATOM     79  C1  NAG B   6      -0.624   5.591  39.7010  0.00  0.00     0.000 C
ATOM     80  C2  NAG B   6      -1.365   4.255  39.8680  0.00  0.00     0.000 C
ATOM     81  C3  NAG B   6      -2.793   4.377  39.3640  0.00  0.00     0.000 C
ATOM     82  C4  NAG B   6      -3.490   5.591  39.9890  0.00  0.00     0.000 C
ATOM     83  C5  NAG B   6      -2.655   6.840  39.7360  0.00  0.00     0.000 C
ATOM     84  O5  NAG B   6      -1.377   6.637  40.3410  0.00  0.00     0.000 O
BRANCH 80 87
ATOM     85   N  NAG B   6      -0.568   3.235  39.1910  0.00  0.00     0.000 N
ATOM     87  HD  NAG B   6       0.130   2.723  39.1690  0.00  0.00     0.000 HD
ATOM     87   C  NAG B   6      -0.373   1.999  39.6660  0.00  0.00     0.000 C
ATOM     88   C  NAG B   6       0.446   1.094  38.8020  0.00  0.00     0.000 C
ATOM     89   O  NAG B   6      -0.840   1.610  40.7300  0.00  0.00     0.000 OA
ENDBRANCH 80 87
ATOM     90   O  NAG B   6      -3.684   8.966  39.2160  0.00  0.00     0.000 O
ATOM     92  HD  NAG B   6      -2.991   8.460  39.1050  0.00  0.00     0.000 HD
ATOM     92   O  NAG B   6      -3.684   8.966  39.2160  0.00  0.00     0.000 O
ATOM     94  HD  NAG B   6      -2.991   8.460  39.1050  0.00  0.00     0.000 HD
ENDBRANCH 78 81
ENDBRANCH 65 78
ENDBRANCH 64 68
ENDBRANCH 48 64
ENDBRANCH 47 50
ENDBRANCH 34 47
ENDBRANCH 33 37
ENDBRANCH 17 33
ENDBRANCH 16 19
ENDBRANCH 1 16
TORSDOF 16
ENDMDL
MODEL 80
REMARK VINA RESULT:      -8.6     28.803     31.979
ROOT
ATOM      1  C1  BDP B   1       2.512  17.650  18.4020  0.00  0.00     0.000 C
ATOM      2  C2  BDP B   1       1.832  18.125  19.6740  0.00  0.00     0.000 C
ATOM      3  C3  BDP B   1       2.633  19.195  20.3840  0.00  0.00     0.000 C
ATOM      4  C4  BDP B   1       3.733  19.816  19.5300  0.00  0.00     0.000 C
ATOM      5  C5  BDP B   1       4.567  18.773  18.7920  0.00  0.00     0.000 C
ATOM      6  O5  BDP B   1       3.893  17.507  18.6990  0.00  0.00     0.000 O
ATOM      7   O  BDP B   1       0.525  18.625  19.3690  0.00  0.00     0.000 O
ATOM      9  HD  BDP B   1      -0.234  18.566  18.9560  0.00  0.00     0.000 HD
ATOM      9   O  BDP B   1       3.250  18.646  21.5590  0.00  0.00     0.000 O
ATOM     11  HD  BDP B   1       2.491  18.586  21.1460  0.00  0.00     0.000 HD
ATOM     11   O  BDP B   1       3.174  20.742  18.5910  0.00  0.00     0.000 O
ATOM     13  HD  BDP B   1       2.415  20.682  18.1780  0.00  0.00     0.000 HD
ENDROOT
BRANCH 5 13
ATOM     13   C  BDP B   1       5.840  18.611  19.5480  0.00  0.00     0.000 C
ATOM     14   O  BDP B   1       6.729  17.885  19.0560  0.00  0.00     0.000 OA
ATOM     15   O  BDP B   1       5.987  19.222  20.6280  0.00  0.00     0.000 OA
ENDBRANCH 5 13
BRANCH 1 16
ATOM     16  O3  NAG B   2       2.057  17.655  17.0500  0.00  0.00     0.000 O
BRANCH 16 19
ATOM     17  C1  NAG B   2       2.867  15.542  14.1980  0.00  0.00     0.000 C
ATOM     18  C2  NAG B   2       2.402  15.693  15.6460  0.00  0.00     0.000 C
ATOM     19  C3  NAG B   2       1.665  17.011  15.8370  0.00  0.00     0.000 C
ATOM     20  C4  NAG B   2       1.885  17.960  14.6550  0.00  0.00     0.000 C
ATOM     21  C5  NAG B   2       3.278  17.893  14.0150  0.00  0.00     0.000 C
ATOM     22  O5  NAG B   2       3.838  16.574  14.0060  0.00  0.00     0.000 O
ATOM     23   O  NAG B   2       0.884  17.693  13.6660  0.00  0.00     0.000 O
ATOM     25  HD  NAG B   2       0.922  16.833  13.7590  0.00  0.00     0.000 HD
ATOM     25   C  NAG B   2       4.252  18.833  14.7410  0.00  0.00     0.000 C
ATOM     26   O  NAG B   2       4.172  20.173  14.2360  0.00  0.00     0.000 O
ATOM     28  HD  NAG B   2       4.209  19.313  14.3290  0.00  0.00     0.000 HD
BRANCH 18 30
ATOM     28   N  NAG B   2       0.992  15.306  15.6560  0.00  0.00     0.000 N
ATOM     30  HD  NAG B   2       0.312  15.213  16.1850  0.00  0.00     0.000 HD
ATOM     30   C  NAG B   2       0.535  14.064  15.4440  0.00  0.00     0.000 C
ATOM     31   C  NAG B   2      -0.960  13.923  15.4950  0.00  0.00     0.000 C
ATOM     32   O  NAG B   2       1.256  13.116  15.2340  0.00  0.00     0.000 OA
ENDBRANCH 18 30
BRANCH 17 33
ATOM     33  O4  BDP B   3       3.729  14.977  13.1860  0.00  0.00     0.000 O
BRANCH 33 37
ATOM     34  C1  BDP B   3       7.354  13.554  11.4320  0.00  0.00     0.000 C
ATOM     35  C2  BDP B   3       7.190  13.373  12.9360  0.00  0.00     0.000 C
ATOM     36  C3  BDP B   3       5.747  13.504  13.4130  0.00  0.00     0.000 C
ATOM     37  C4  BDP B   3       5.103  14.738  12.7640  0.00  0.00     0.000 C
ATOM     38  C5  BDP B   3       5.234  14.573  11.2370  0.00  0.00     0.000 C
ATOM     39  O5  BDP B   3       6.628  14.693  10.9550  0.00  0.00     0.000 O
ATOM     40   O  BDP B   3       7.749  12.095  13.2480  0.00  0.00     0.000 O
ATOM     42  HD  BDP B   3       8.469  12.574  13.2080  0.00  0.00     0.000 HD
ATOM     42   O  BDP B   3       5.795  13.616  14.8340  0.00  0.00     0.000 O
ATOM     44  HD  BDP B   3       6.515  14.094  14.7950  0.00  0.00     0.000 HD
BRANCH 38 44
ATOM     44   C  BDP B   3       4.466  15.578  10.4380  0.00  0.00     0.000 C
ATOM     45   O  BDP B   3       3.581  15.156   9.6610  0.00  0.00     0.000 OA
ATOM     46   O  BDP B   3       4.724  16.795  10.5620  0.00  0.00     0.000 OA
ENDBRANCH 38 44
BRANCH 34 47
ATOM     47  O3  NAG B   4       8.552  14.257  11.1070  0.00  0.00     0.000 O
BRANCH 47 50
ATOM     48  C1  NAG B   4      10.611  12.747   8.3440  0.00  0.00     0.000 C
ATOM     49  C2  NAG B   4       9.928  12.824   9.6990  0.00  0.00     0.000 C
ATOM     50  C3  NAG B   4       9.154  14.133   9.8020  0.00  0.00     0.000 C
ATOM     51  C4  NAG B   4      10.049  15.334   9.5400  0.00  0.00     0.000 C
ATOM     52  C5  NAG B   4      10.762  15.167   8.1980  0.00  0.00     0.000 C
ATOM     53  O5  NAG B   4      11.443  13.907   8.1470  0.00  0.00     0.000 O
ATOM     54   O  NAG B   4       9.249  16.520   9.5420  0.00  0.00     0.000 O
ATOM     56  HD  NAG B   4      10.098  16.689   9.5890  0.00  0.00     0.000 HD
ATOM     56   C  NAG B   4      11.763  16.292   7.9590  0.00  0.00     0.000 C
ATOM     57   O  NAG B   4      12.741  16.277   9.0070  0.00  0.00     0.000 O
ATOM     59  HD  NAG B   4      13.590  16.446   9.0530  0.00  0.00     0.000 HD
BRANCH 49 61
ATOM     59   N  NAG B   4      11.079  12.102  10.2410  0.00  0.00     0.000 N
ATOM     61  HD  NAG B   4      10.384  12.528  10.5320  0.00  0.00     0.000 HD
ATOM     61   O  NAG B   4       9.968  11.002  11.8710  0.00  0.00     0.000 OA
ATOM     62   C  NAG B   4      10.988  11.202  11.2270  0.00  0.00     0.000 C
ATOM     63   C  NAG B   4      12.229  10.413  11.5000  0.00  0.00     0.000 C
ENDBRANCH 49 61
BRANCH 48 64
ATOM     64  O4  BDP B   5      10.981  11.656   7.5060  0.00  0.00     0.000 O
BRANCH 64 68
ATOM     65  C1  BDP B   5      13.343   8.805   5.5920  0.00  0.00     0.000 C
ATOM     66  C2  BDP B   5      14.089   9.836   6.4290  0.00  0.00     0.000 C
ATOM     67  C3  BDP B   5      13.119  10.517   7.3860  0.00  0.00     0.000 C
ATOM     68  C4  BDP B   5      11.958  11.129   6.6100  0.00  0.00     0.000 C
ATOM     69  C5  BDP B   5      11.282  10.117   5.6940  0.00  0.00     0.000 C
ATOM     70  O5  BDP B   5      12.258   9.432   4.8900  0.00  0.00     0.000 O
ATOM     71   O  BDP B   5      15.167   9.198   7.1310  0.00  0.00     0.000 O
ATOM     73  HD  BDP B   5      15.788   8.760   7.5460  0.00  0.00     0.000 HD
ATOM     73   O  BDP B   5      13.784  11.545   8.1300  0.00  0.00     0.000 O
ATOM     75  HD  BDP B   5      14.406  11.107   8.5440  0.00  0.00     0.000 HD
BRANCH 69 75
ATOM     75   C  BDP B   5      10.321  10.857   4.7980  0.00  0.00     0.000 C
ATOM     76   O  BDP B   5      10.776  11.694   3.9930  0.00  0.00     0.000 OA
ATOM     77   O  BDP B   5       9.104  10.609   4.8840  0.00  0.00     0.000 OA
ENDBRANCH 69 75
BRANCH 65 78
ATOM     78  O3  NAG B   6      13.669   8.396   4.2610  0.00  0.00     0.000 O
BRANCH 78 81
ATOM     79  C1  NAG B   6      14.704   5.522   2.0250  0.00  0.00     0.000 C
ATOM     80  C2  NAG B   6      14.864   6.808   2.8510  0.00  0.00     0.000 C
ATOM     81  C3  NAG B   6      13.580   7.112   3.6060  0.00  0.00     0.000 C
ATOM     82  C4  NAG B   6      12.374   7.090   2.6610  0.00  0.00     0.000 C
ATOM     83  C5  NAG B   6      12.334   5.758   1.9210  0.00  0.00     0.000 C
ATOM     84  O5  NAG B   6      13.547   5.640   1.1780  0.00  0.00     0.000 O
BRANCH 80 87
ATOM     85   N  NAG B   6      15.658   7.780   3.5970  0.00  0.00     0.000 N
ATOM     87  HD  NAG B   6      16.086   8.003   4.3160  0.00  0.00     0.000 HD
ATOM     87   C  NAG B   6      16.935   7.591   3.9510  0.00  0.00     0.000 C
ATOM     88   C  NAG B   6      17.581   8.725   4.6820  0.00  0.00     0.000 C
ATOM     89   O  NAG B   6      17.556   6.567   3.6900  0.00  0.00     0.000 OA
ENDBRANCH 80 87
ATOM     90   O  NAG B   6      10.246   4.626   1.4670  0.00  0.00     0.000 O
ATOM     92  HD  NAG B   6      11.092   4.532   1.6240  0.00  0.00     0.000 HD
ATOM     92   O  NAG B   6      10.246   4.626   1.4670  0.00  0.00     0.000 O
ATOM     94  HD  NAG B   6      11.092   4.532   1.6240  0.00  0.00     0.000 HD
ENDBRANCH 78 81
ENDBRANCH 65 78
ENDBRANCH 64 68
ENDBRANCH 48 64
ENDBRANCH 47 50
ENDBRANCH 34 47
ENDBRANCH 33 37
ENDBRANCH 17 33
ENDBRANCH 16 19
ENDBRANCH 1 16
TORSDOF 16
ENDMDL
MODEL 81
REMARK VINA RESULT:      -8.6      9.616     20.701
ROOT
ATOM      1  C1  BDP B   1       1.766  -8.686  30.5750  0.00  0.00     0.000 C
ATOM      2  C2  BDP B   1       3.157  -8.277  30.1230  0.00  0.00     0.000 C
ATOM      3  C3  BDP B   1       4.122  -9.443  30.1240  0.00  0.00     0.000 C
ATOM      4  C4  BDP B   1       3.449 -10.807  30.2230  0.00  0.00     0.000 C
ATOM      5  C5  BDP B   1       2.379 -10.860  31.3090  0.00  0.00     0.000 C
ATOM      6  O5  BDP B   1       1.930  -9.549  31.6910  0.00  0.00     0.000 O
ATOM      7   O  BDP B   1       3.094  -7.706  28.8120  0.00  0.00     0.000 O
ATOM      9  HD  BDP B   1       2.724  -7.185  28.2270  0.00  0.00     0.000 HD
ATOM      9   O  BDP B   1       5.032  -9.324  31.2290  0.00  0.00     0.000 O
ATOM     11  HD  BDP B   1       4.662  -8.804  30.6440  0.00  0.00     0.000 HD
ATOM     11   O  BDP B   1       2.878 -11.175  28.9620  0.00  0.00     0.000 O
ATOM     13  HD  BDP B   1       2.508 -10.654  28.3770  0.00  0.00     0.000 HD
ENDROOT
BRANCH 5 13
ATOM     13   C  BDP B   1       2.977 -11.549  32.4850  0.00  0.00     0.000 C
ATOM     14   O  BDP B   1       4.218 -11.677  32.5240  0.00  0.00     0.000 OA
ATOM     15   O  BDP B   1       2.227 -11.951  33.4000  0.00  0.00     0.000 OA
ENDBRANCH 5 13
BRANCH 1 16
ATOM     16  O3  NAG B   2       0.510  -8.596  29.9060  0.00  0.00     0.000 O
BRANCH 16 19
ATOM     17  C1  NAG B   2      -1.830  -5.851  30.4060  0.00  0.00     0.000 C
ATOM     18  C2  NAG B   2      -0.572  -6.418  29.7470  0.00  0.00     0.000 C
ATOM     19  C3  NAG B   2      -0.700  -7.922  29.5540  0.00  0.00     0.000 C
ATOM     20  C4  NAG B   2      -1.866  -8.500  30.3600  0.00  0.00     0.000 C
ATOM     21  C5  NAG B   2      -2.114  -7.831  31.7200  0.00  0.00     0.000 C
ATOM     22  O5  NAG B   2      -1.857  -6.422  31.7160  0.00  0.00     0.000 O
ATOM     23   O  NAG B   2      -3.051  -8.427  29.5610  0.00  0.00     0.000 O
ATOM     25  HD  NAG B   2      -2.873  -7.641  29.2440  0.00  0.00     0.000 HD
ATOM     25   C  NAG B   2      -1.250  -8.484  32.8090  0.00  0.00     0.000 C
ATOM     26   O  NAG B   2      -1.879  -9.650  33.3580  0.00  0.00     0.000 O
ATOM     28  HD  NAG B   2      -1.701  -8.864  33.0400  0.00  0.00     0.000 HD
BRANCH 18 30
ATOM     28   N  NAG B   2      -1.337  -5.610  28.7990  0.00  0.00     0.000 N
ATOM     30  HD  NAG B   2      -2.115  -5.551  28.4240  0.00  0.00     0.000 HD
ATOM     30   C  NAG B   2      -1.100  -5.543  27.4810  0.00  0.00     0.000 C
ATOM     31   C  NAG B   2      -2.020  -4.631  26.7200  0.00  0.00     0.000 C
ATOM     32   O  NAG B   2      -0.223  -6.165  26.9300  0.00  0.00     0.000 OA
ENDBRANCH 18 30
BRANCH 17 33
ATOM     33  O4  BDP B   3      -2.528  -4.845  31.1700  0.00  0.00     0.000 O
BRANCH 33 37
ATOM     34  C1  BDP B   3      -5.803  -2.558  32.6830  0.00  0.00     0.000 C
ATOM     35  C2  BDP B   3      -5.444  -3.838  33.4280  0.00  0.00     0.000 C
ATOM     36  C3  BDP B   3      -4.048  -4.360  33.1070  0.00  0.00     0.000 C
ATOM     37  C4  BDP B   3      -3.825  -4.327  31.5880  0.00  0.00     0.000 C
ATOM     38  C5  BDP B   3      -4.062  -2.877  31.1220  0.00  0.00     0.000 C
ATOM     39  O5  BDP B   3      -5.459  -2.640  31.2950  0.00  0.00     0.000 O
ATOM     40   O  BDP B   3      -5.608  -3.551  34.8180  0.00  0.00     0.000 O
ATOM     42  HD  BDP B   3      -6.430  -3.705  34.5940  0.00  0.00     0.000 HD
ATOM     42   O  BDP B   3      -3.978  -5.688  33.6250  0.00  0.00     0.000 O
ATOM     44  HD  BDP B   3      -4.800  -5.842  33.4010  0.00  0.00     0.000 HD
BRANCH 38 44
ATOM     44   C  BDP B   3      -3.675  -2.612  29.7010  0.00  0.00     0.000 C
ATOM     45   O  BDP B   3      -4.590  -2.500  28.8560  0.00  0.00     0.000 OA
ATOM     46   O  BDP B   3      -2.466  -2.513  29.3980  0.00  0.00     0.000 OA
ENDBRANCH 38 44
BRANCH 34 47
ATOM     47  O3  NAG B   4      -7.171  -2.540  32.2810  0.00  0.00     0.000 O
BRANCH 47 50
ATOM     48  C1  NAG B   4      -8.516   0.939  32.7660  0.00  0.00     0.000 C
ATOM     49  C2  NAG B   4      -7.757  -0.329  33.1150  0.00  0.00     0.000 C
ATOM     50  C3  NAG B   4      -7.830  -1.302  31.9440  0.00  0.00     0.000 C
ATOM     51  C4  NAG B   4      -9.268  -1.585  31.5400  0.00  0.00     0.000 C
ATOM     52  C5  NAG B   4     -10.000  -0.270  31.2700  0.00  0.00     0.000 C
ATOM     53  O5  NAG B   4      -9.869   0.614  32.3900  0.00  0.00     0.000 O
ATOM     54   O  NAG B   4      -9.270  -2.413  30.3740  0.00  0.00     0.000 O
ATOM     56  HD  NAG B   4     -10.046  -2.375  30.7580  0.00  0.00     0.000 HD
ATOM     56   C  NAG B   4     -11.478  -0.508  30.9840  0.00  0.00     0.000 C
ATOM     57   O  NAG B   4     -12.078  -1.145  32.1210  0.00  0.00     0.000 O
ATOM     59  HD  NAG B   4     -12.853  -1.107  32.5040  0.00  0.00     0.000 HD
BRANCH 49 61
ATOM     59   N  NAG B   4      -8.329  -0.543  34.4450  0.00  0.00     0.000 N
ATOM     61  HD  NAG B   4      -7.739  -0.905  33.9260  0.00  0.00     0.000 HD
ATOM     61   O  NAG B   4      -6.393  -1.043  35.4960  0.00  0.00     0.000 OA
ATOM     62   C  NAG B   4      -7.592  -0.808  35.5310  0.00  0.00     0.000 C
ATOM     63   C  NAG B   4      -8.326  -0.782  36.8340  0.00  0.00     0.000 C
ENDBRANCH 49 61
BRANCH 48 64
ATOM     64  O4  BDP B   5      -8.369   2.299  33.1650  0.00  0.00     0.000 O
BRANCH 64 68
ATOM     65  C1  BDP B   5      -6.582   5.266  30.8460  0.00  0.00     0.000 C
ATOM     66  C2  BDP B   5      -5.817   4.843  32.0930  0.00  0.00     0.000 C
ATOM     67  C3  BDP B   5      -6.343   3.501  32.5870  0.00  0.00     0.000 C
ATOM     68  C4  BDP B   5      -7.846   3.583  32.8270  0.00  0.00     0.000 C
ATOM     69  C5  BDP B   5      -8.595   4.107  31.6080  0.00  0.00     0.000 C
ATOM     70  O5  BDP B   5      -7.990   5.318  31.1250  0.00  0.00     0.000 O
ATOM     71   O  BDP B   5      -4.413   4.788  31.8020  0.00  0.00     0.000 O
ATOM     73  HD  BDP B   5      -3.580   4.751  31.5670  0.00  0.00     0.000 HD
ATOM     73   O  BDP B   5      -5.690   3.122  33.8040  0.00  0.00     0.000 O
ATOM     75  HD  BDP B   5      -4.857   3.085  33.5700  0.00  0.00     0.000 HD
BRANCH 69 75
ATOM     75   C  BDP B   5     -10.022   4.382  32.0120  0.00  0.00     0.000 C
ATOM     76   O  BDP B   5     -10.932   3.698  31.5030  0.00  0.00     0.000 OA
ATOM     77   O  BDP B   5     -10.251   5.281  32.8430  0.00  0.00     0.000 OA
ENDBRANCH 69 75
BRANCH 65 78
ATOM     78  O3  NAG B   6      -6.845   6.607  30.4260  0.00  0.00     0.000 O
BRANCH 78 81
ATOM     79  C1  NAG B   6      -8.040   8.287  27.2500  0.00  0.00     0.000 C
ATOM     80  C2  NAG B   6      -7.065   7.570  28.1980  0.00  0.00     0.000 C
ATOM     81  C3  NAG B   6      -7.784   7.142  29.4670  0.00  0.00     0.000 C
ATOM     82  C4  NAG B   6      -8.549   8.318  30.0850  0.00  0.00     0.000 C
ATOM     83  C5  NAG B   6      -9.482   8.920  29.0400  0.00  0.00     0.000 C
ATOM     84  O5  NAG B   6      -8.677   9.370  27.9500  0.00  0.00     0.000 O
BRANCH 80 87
ATOM     85   N  NAG B   6      -5.656   7.188  28.1920  0.00  0.00     0.000 N
ATOM     87  HD  NAG B   6      -5.033   6.625  28.4030  0.00  0.00     0.000 HD
ATOM     87   C  NAG B   6      -5.170   6.130  27.5320  0.00  0.00     0.000 C
ATOM     88   C  NAG B   6      -3.691   5.930  27.6250  0.00  0.00     0.000 C
ATOM     89   O  NAG B   6      -5.873   5.371  26.8750  0.00  0.00     0.000 OA
ENDBRANCH 80 87
ATOM     90   O  NAG B   6     -11.694   9.703  29.6220  0.00  0.00     0.000 O
ATOM     92  HD  NAG B   6     -11.195   9.360  29.0030  0.00  0.00     0.000 HD
ATOM     92   O  NAG B   6     -11.694   9.703  29.6220  0.00  0.00     0.000 O
ATOM     94  HD  NAG B   6     -11.195   9.360  29.0030  0.00  0.00     0.000 HD
ENDBRANCH 78 81
ENDBRANCH 65 78
ENDBRANCH 64 68
ENDBRANCH 48 64
ENDBRANCH 47 50
ENDBRANCH 34 47
ENDBRANCH 33 37
ENDBRANCH 17 33
ENDBRANCH 16 19
ENDBRANCH 1 16
TORSDOF 16
ENDMDL
MODEL 82
REMARK VINA RESULT:      -8.6     10.519     19.685
ROOT
ATOM      1  C1  BDP B   1       1.764  -8.716  31.2940  0.00  0.00     0.000 C
ATOM      2  C2  BDP B   1       3.131  -8.491  30.6730  0.00  0.00     0.000 C
ATOM      3  C3  BDP B   1       3.971  -9.750  30.6710  0.00  0.00     0.000 C
ATOM      4  C4  BDP B   1       3.182 -11.024  30.9470  0.00  0.00     0.000 C
ATOM      5  C5  BDP B   1       2.235 -10.886  32.1360  0.00  0.00     0.000 C
ATOM      6  O5  BDP B   1       1.962  -9.511  32.4540  0.00  0.00     0.000 O
ATOM      7   O  BDP B   1       2.983  -8.009  29.3330  0.00  0.00     0.000 O
ATOM      9  HD  BDP B   1       2.605  -7.494  28.7480  0.00  0.00     0.000 HD
ATOM      9   O  BDP B   1       5.003  -9.652  31.6660  0.00  0.00     0.000 O
ATOM     11  HD  BDP B   1       4.625  -9.137  31.0810  0.00  0.00     0.000 HD
ATOM     11   O  BDP B   1       2.443 -11.417  29.7840  0.00  0.00     0.000 O
ATOM     13  HD  BDP B   1       2.065 -10.902  29.1990  0.00  0.00     0.000 HD
ENDROOT
BRANCH 5 13
ATOM     13   C  BDP B   1       2.886 -11.551  33.2980  0.00  0.00     0.000 C
ATOM     14   O  BDP B   1       2.397 -11.368  34.4320  0.00  0.00     0.000 OA
ATOM     15   O  BDP B   1       3.877 -12.286  33.1010  0.00  0.00     0.000 OA
ENDBRANCH 5 13
BRANCH 1 16
ATOM     16  O3  NAG B   2       0.458  -8.540  30.7490  0.00  0.00     0.000 O
BRANCH 16 19
ATOM     17  C1  NAG B   2      -1.799  -5.732  31.2740  0.00  0.00     0.000 C
ATOM     18  C2  NAG B   2      -0.477  -6.290  30.7460  0.00  0.00     0.000 C
ATOM     19  C3  NAG B   2      -0.643  -7.739  30.3150  0.00  0.00     0.000 C
ATOM     20  C4  NAG B   2      -1.953  -8.339  30.8310  0.00  0.00     0.000 C
ATOM     21  C5  NAG B   2      -2.392  -7.849  32.2180  0.00  0.00     0.000 C
ATOM     22  O5  NAG B   2      -2.072  -6.475  32.4640  0.00  0.00     0.000 O
ATOM     23   O  NAG B   2      -2.984  -8.072  29.8740  0.00  0.00     0.000 O
ATOM     25  HD  NAG B   2      -2.718  -7.265  29.7090  0.00  0.00     0.000 HD
ATOM     25   C  NAG B   2      -1.755  -8.706  33.3210  0.00  0.00     0.000 C
ATOM     26   O  NAG B   2      -2.521  -9.890  33.5840  0.00  0.00     0.000 O
ATOM     28  HD  NAG B   2      -2.256  -9.082  33.4190  0.00  0.00     0.000 HD
BRANCH 18 30
ATOM     28   N  NAG B   2      -1.057  -5.333  29.8050  0.00  0.00     0.000 N
ATOM     30  HD  NAG B   2      -1.752  -5.202  29.3050  0.00  0.00     0.000 HD
ATOM     30   C  NAG B   2      -0.578  -5.073  28.5800  0.00  0.00     0.000 C
ATOM     31   C  NAG B   2      -1.345  -4.039  27.8070  0.00  0.00     0.000 C
ATOM     32   O  NAG B   2       0.392  -5.624  28.1140  0.00  0.00     0.000 OA
ENDBRANCH 18 30
BRANCH 17 33
ATOM     33  O4  BDP B   3      -2.567  -4.794  32.0590  0.00  0.00     0.000 O
BRANCH 33 37
ATOM     34  C1  BDP B   3      -6.024  -2.761  33.5280  0.00  0.00     0.000 C
ATOM     35  C2  BDP B   3      -6.172  -4.243  33.2040  0.00  0.00     0.000 C
ATOM     36  C3  BDP B   3      -4.843  -4.981  33.1000  0.00  0.00     0.000 C
ATOM     37  C4  BDP B   3      -3.863  -4.155  32.2530  0.00  0.00     0.000 C
ATOM     38  C5  BDP B   3      -3.747  -2.767  32.9120  0.00  0.00     0.000 C
ATOM     39  O5  BDP B   3      -5.016  -2.142  32.7210  0.00  0.00     0.000 O
ATOM     40   O  BDP B   3      -7.018  -4.791  34.2170  0.00  0.00     0.000 O
ATOM     42  HD  BDP B   3      -7.612  -4.439  33.6940  0.00  0.00     0.000 HD
ATOM     42   O  BDP B   3      -5.122  -6.247  32.5040  0.00  0.00     0.000 O
ATOM     44  HD  BDP B   3      -5.716  -5.894  31.9810  0.00  0.00     0.000 HD
BRANCH 38 44
ATOM     44   C  BDP B   3      -2.665  -1.901  32.3450  0.00  0.00     0.000 C
ATOM     45   O  BDP B   3      -3.003  -0.949  31.6080  0.00  0.00     0.000 OA
ATOM     46   O  BDP B   3      -1.470  -2.147  32.6170  0.00  0.00     0.000 OA
ENDBRANCH 38 44
BRANCH 34 47
ATOM     47  O3  NAG B   4      -6.983  -1.964  32.8350  0.00  0.00     0.000 O
BRANCH 47 50
ATOM     48  C1  NAG B   4      -8.027   0.759  35.2100  0.00  0.00     0.000 C
ATOM     49  C2  NAG B   4      -7.624  -0.639  34.7740  0.00  0.00     0.000 C
ATOM     50  C3  NAG B   4      -7.304  -0.632  33.2830  0.00  0.00     0.000 C
ATOM     51  C4  NAG B   4      -8.464  -0.087  32.4650  0.00  0.00     0.000 C
ATOM     52  C5  NAG B   4      -8.871   1.289  32.9940  0.00  0.00     0.000 C
ATOM     53  O5  NAG B   4      -9.126   1.227  34.4030  0.00  0.00     0.000 O
ATOM     54   O  NAG B   4      -8.067  -0.003  31.0940  0.00  0.00     0.000 O
ATOM     56  HD  NAG B   4      -8.923   0.077  31.1990  0.00  0.00     0.000 HD
ATOM     56   C  NAG B   4     -10.111   1.812  32.2790  0.00  0.00     0.000 C
ATOM     57   O  NAG B   4     -11.194   0.897  32.4910  0.00  0.00     0.000 O
ATOM     59  HD  NAG B   4     -12.050   0.977  32.5960  0.00  0.00     0.000 HD
BRANCH 49 61
ATOM     59   N  NAG B   4      -8.680  -1.278  35.5590  0.00  0.00     0.000 N
ATOM     61  HD  NAG B   4      -8.051  -1.506  35.0090  0.00  0.00     0.000 HD
ATOM     61   O  NAG B   4      -7.463  -3.043  36.2690  0.00  0.00     0.000 OA
ATOM     62   C  NAG B   4      -8.489  -2.380  36.2940  0.00  0.00     0.000 C
ATOM     63   C  NAG B   4      -9.622  -2.762  37.1940  0.00  0.00     0.000 C
ENDBRANCH 49 61
BRANCH 48 64
ATOM     64  O4  BDP B   5      -7.916   1.459  36.4450  0.00  0.00     0.000 O
BRANCH 64 68
ATOM     65  C1  BDP B   5      -6.668   3.331  39.9540  0.00  0.00     0.000 C
ATOM     66  C2  BDP B   5      -6.696   4.203  38.7060  0.00  0.00     0.000 C
ATOM     67  C3  BDP B   5      -7.555   3.541  37.6370  0.00  0.00     0.000 C
ATOM     68  C4  BDP B   5      -7.043   2.134  37.3500  0.00  0.00     0.000 C
ATOM     69  C5  BDP B   5      -6.917   1.299  38.6180  0.00  0.00     0.000 C
ATOM     70  O5  BDP B   5      -6.187   2.018  39.6270  0.00  0.00     0.000 O
ATOM     71   O  BDP B   5      -7.184   5.511  39.0440  0.00  0.00     0.000 O
ATOM     73  HD  BDP B   5      -7.502   6.276  39.2970  0.00  0.00     0.000 HD
ATOM     73   O  BDP B   5      -7.532   4.308  36.4270  0.00  0.00     0.000 O
ATOM     75  HD  BDP B   5      -7.850   5.072  36.6800  0.00  0.00     0.000 HD
BRANCH 69 75
ATOM     75   C  BDP B   5      -6.184   0.026  38.2760  0.00  0.00     0.000 C
ATOM     76   O  BDP B   5      -5.211   0.086  37.4970  0.00  0.00     0.000 OA
ATOM     77   O  BDP B   5      -6.566  -1.045  38.7830  0.00  0.00     0.000 OA
ENDBRANCH 69 75
BRANCH 65 78
ATOM     78  O3  NAG B   6      -5.601   3.239  40.9020  0.00  0.00     0.000 O
BRANCH 78 81
ATOM     79  C1  NAG B   6      -5.242   3.807  44.6280  0.00  0.00     0.000 C
ATOM     80  C2  NAG B   6      -5.408   4.173  43.1440  0.00  0.00     0.000 C
ATOM     81  C3  NAG B   6      -5.598   2.916  42.3100  0.00  0.00     0.000 C
ATOM     82  C4  NAG B   6      -4.498   1.892  42.6090  0.00  0.00     0.000 C
ATOM     83  C5  NAG B   6      -4.456   1.617  44.1070  0.00  0.00     0.000 C
ATOM     84  O5  NAG B   6      -4.174   2.852  44.7660  0.00  0.00     0.000 O
BRANCH 80 87
ATOM     85   N  NAG B   6      -6.474   5.171  43.1120  0.00  0.00     0.000 N
ATOM     87  HD  NAG B   6      -6.736   5.990  43.2180  0.00  0.00     0.000 HD
ATOM     87   C  NAG B   6      -6.512   6.197  42.2530  0.00  0.00     0.000 C
ATOM     88   C  NAG B   6      -7.709   7.089  42.3610  0.00  0.00     0.000 C
ATOM     89   O  NAG B   6      -5.642   6.402  41.4160  0.00  0.00     0.000 OA
ENDBRANCH 80 87
ATOM     90   O  NAG B   6      -4.059  -0.606  44.9740  0.00  0.00     0.000 O
ATOM     92  HD  NAG B   6      -4.446   0.157  45.1090  0.00  0.00     0.000 HD
ATOM     92   O  NAG B   6      -4.059  -0.606  44.9740  0.00  0.00     0.000 O
ATOM     94  HD  NAG B   6      -4.446   0.157  45.1090  0.00  0.00     0.000 HD
ENDBRANCH 78 81
ENDBRANCH 65 78
ENDBRANCH 64 68
ENDBRANCH 48 64
ENDBRANCH 47 50
ENDBRANCH 34 47
ENDBRANCH 33 37
ENDBRANCH 17 33
ENDBRANCH 16 19
ENDBRANCH 1 16
TORSDOF 16
ENDMDL
MODEL 83
REMARK VINA RESULT:      -8.6     28.393     32.005
ROOT
ATOM      1  C1  BDP B   1      -5.625 -35.310  30.2140  0.00  0.00     0.000 C
ATOM      2  C2  BDP B   1      -6.253 -34.414  29.1610  0.00  0.00     0.000 C
ATOM      3  C3  BDP B   1      -6.467 -35.140  27.8500  0.00  0.00     0.000 C
ATOM      4  C4  BDP B   1      -6.352 -36.657  27.9530  0.00  0.00     0.000 C
ATOM      5  C5  BDP B   1      -5.125 -37.103  28.7410  0.00  0.00     0.000 C
ATOM      6  O5  BDP B   1      -4.600 -36.052  29.5690  0.00  0.00     0.000 O
ATOM      7   O  BDP B   1      -7.503 -33.905  29.6380  0.00  0.00     0.000 O
ATOM      9  HD  BDP B   1      -7.994 -33.557  30.2610  0.00  0.00     0.000 HD
ATOM      9   O  BDP B   1      -5.505 -34.695  26.8810  0.00  0.00     0.000 O
ATOM     11  HD  BDP B   1      -5.995 -34.347  27.5040  0.00  0.00     0.000 HD
ATOM     11   O  BDP B   1      -7.534 -37.208  28.5460  0.00  0.00     0.000 O
ATOM     13  HD  BDP B   1      -8.025 -36.860  29.1690  0.00  0.00     0.000 HD
ENDROOT
BRANCH 5 13
ATOM     13   C  BDP B   1      -4.095 -37.524  27.7510  0.00  0.00     0.000 C
ATOM     14   O  BDP B   1      -4.470 -38.157  26.7430  0.00  0.00     0.000 OA
ATOM     15   O  BDP B   1      -2.901 -37.210  27.9460  0.00  0.00     0.000 OA
ENDBRANCH 5 13
BRANCH 1 16
ATOM     16  O3  NAG B   2      -6.093 -35.690  31.5060  0.00  0.00     0.000 O
BRANCH 16 19
ATOM     17  C1  NAG B   2      -7.219 -37.226  34.6090  0.00  0.00     0.000 C
ATOM     18  C2  NAG B   2      -6.540 -36.072  33.8710  0.00  0.00     0.000 C
ATOM     19  C3  NAG B   2      -7.120 -35.916  32.4730  0.00  0.00     0.000 C
ATOM     20  C4  NAG B   2      -7.954 -37.134  32.0650  0.00  0.00     0.000 C
ATOM     21  C5  NAG B   2      -7.434 -38.482  32.5840  0.00  0.00     0.000 C
ATOM     22  O5  NAG B   2      -6.848 -38.403  33.8880  0.00  0.00     0.000 O
ATOM     23   O  NAG B   2      -9.300 -36.931  32.5060  0.00  0.00     0.000 O
ATOM     25  HD  NAG B   2      -9.073 -36.588  33.2680  0.00  0.00     0.000 HD
ATOM     25   C  NAG B   2      -6.398 -39.071  31.6160  0.00  0.00     0.000 C
ATOM     26   O  NAG B   2      -7.021 -39.808  30.5550  0.00  0.00     0.000 O
ATOM     28  HD  NAG B   2      -6.795 -39.466  31.3170  0.00  0.00     0.000 HD
BRANCH 18 30
ATOM     28   N  NAG B   2      -6.646 -35.068  34.9290  0.00  0.00     0.000 N
ATOM     30  HD  NAG B   2      -6.711 -34.986  35.7880  0.00  0.00     0.000 HD
ATOM     30   C  NAG B   2      -7.713 -34.283  35.1380  0.00  0.00     0.000 C
ATOM     31   C  NAG B   2      -7.575 -33.322  36.2840  0.00  0.00     0.000 C
ATOM     32   O  NAG B   2      -8.720 -34.336  34.4710  0.00  0.00     0.000 OA
ENDBRANCH 18 30
BRANCH 17 33
ATOM     33  O4  BDP B   3      -7.252 -38.243  35.6340  0.00  0.00     0.000 O
BRANCH 33 37
ATOM     34  C1  BDP B   3      -5.545 -38.578  39.5350  0.00  0.00     0.000 C
ATOM     35  C2  BDP B   3      -4.744 -39.150  38.3710  0.00  0.00     0.000 C
ATOM     36  C3  BDP B   3      -5.190 -38.632  37.0090  0.00  0.00     0.000 C
ATOM     37  C4  BDP B   3      -6.722 -38.683  36.9180  0.00  0.00     0.000 C
ATOM     38  C5  BDP B   3      -7.278 -37.864  38.1000  0.00  0.00     0.000 C
ATOM     39  O5  BDP B   3      -6.953 -38.611  39.2730  0.00  0.00     0.000 O
ATOM     40   O  BDP B   3      -3.374 -38.847  38.6430  0.00  0.00     0.000 O
ATOM     42  HD  BDP B   3      -3.479 -39.547  39.1420  0.00  0.00     0.000 HD
ATOM     42   O  BDP B   3      -4.572 -39.467  36.0310  0.00  0.00     0.000 O
ATOM     44  HD  BDP B   3      -4.678 -40.167  36.5300  0.00  0.00     0.000 HD
BRANCH 38 44
ATOM     44   C  BDP B   3      -8.754 -37.622  38.0460  0.00  0.00     0.000 C
ATOM     45   O  BDP B   3      -9.150 -36.516  37.6180  0.00  0.00     0.000 OA
ATOM     46   O  BDP B   3      -9.541 -38.517  38.4250  0.00  0.00     0.000 OA
ENDBRANCH 38 44
BRANCH 34 47
ATOM     47  O3  NAG B   4      -5.773 -39.549  40.5540  0.00  0.00     0.000 O
BRANCH 47 50
ATOM     48  C1  NAG B   4      -4.483 -39.572  44.0870  0.00  0.00     0.000 C
ATOM     49  C2  NAG B   4      -4.511 -39.904  42.6060  0.00  0.00     0.000 C
ATOM     50  C3  NAG B   4      -5.689 -39.193  41.9500  0.00  0.00     0.000 C
ATOM     51  C4  NAG B   4      -7.001 -39.531  42.6400  0.00  0.00     0.000 C
ATOM     52  C5  NAG B   4      -6.889 -39.243  44.1370  0.00  0.00     0.000 C
ATOM     53  O5  NAG B   4      -5.747 -39.910  44.6900  0.00  0.00     0.000 O
ATOM     54   O  NAG B   4      -8.049 -38.755  42.0530  0.00  0.00     0.000 O
ATOM     56  HD  NAG B   4      -8.348 -39.403  42.5440  0.00  0.00     0.000 HD
ATOM     56   C  NAG B   4      -8.143 -39.687  44.8810  0.00  0.00     0.000 C
ATOM     57   O  NAG B   4      -8.323 -41.098  44.6950  0.00  0.00     0.000 O
ATOM     59  HD  NAG B   4      -8.622 -41.745  45.1850  0.00  0.00     0.000 HD
BRANCH 49 61
ATOM     59   N  NAG B   4      -3.164 -39.607  42.1180  0.00  0.00     0.000 N
ATOM     61  HD  NAG B   4      -3.594 -40.267  42.4760  0.00  0.00     0.000 HD
ATOM     61   O  NAG B   4      -2.809 -41.580  41.0770  0.00  0.00     0.000 OA
ATOM     62   C  NAG B   4      -2.462 -40.437  41.3380  0.00  0.00     0.000 C
ATOM     63   C  NAG B   4      -1.200 -39.875  40.7640  0.00  0.00     0.000 C
ENDBRANCH 49 61
BRANCH 48 64
ATOM     64  O4  BDP B   5      -3.428 -39.478  45.0400  0.00  0.00     0.000 O
BRANCH 64 68
ATOM     65  C1  BDP B   5      -0.009 -41.861  45.0510  0.00  0.00     0.000 C
ATOM     66  C2  BDP B   5      -1.026 -42.150  46.1460  0.00  0.00     0.000 C
ATOM     67  C3  BDP B   5      -2.368 -41.532  45.7750  0.00  0.00     0.000 C
ATOM     68  C4  BDP B   5      -2.204 -40.039  45.5130  0.00  0.00     0.000 C
ATOM     69  C5  BDP B   5      -1.111 -39.752  44.4920  0.00  0.00     0.000 C
ATOM     70  O5  BDP B   5       0.100 -40.445  44.8390  0.00  0.00     0.000 O
ATOM     71   O  BDP B   5      -1.132 -43.568  46.3450  0.00  0.00     0.000 O
ATOM     73  HD  BDP B   5      -1.171 -44.431  46.4100  0.00  0.00     0.000 HD
ATOM     73   O  BDP B   5      -3.320 -41.725  46.8290  0.00  0.00     0.000 O
ATOM     75  HD  BDP B   5      -3.359 -42.588  46.8940  0.00  0.00     0.000 HD
BRANCH 69 75
ATOM     75   C  BDP B   5      -0.855 -38.266  44.4780  0.00  0.00     0.000 C
ATOM     76   O  BDP B   5      -0.403 -37.726  45.5080  0.00  0.00     0.000 OA
ATOM     77   O  BDP B   5      -1.097 -37.622  43.4400  0.00  0.00     0.000 OA
ENDBRANCH 69 75
BRANCH 65 78
ATOM     78  O3  NAG B   6       1.404 -41.716  45.2210  0.00  0.00     0.000 O
BRANCH 78 81
ATOM     79  C1  NAG B   6       4.281 -42.844  43.0340  0.00  0.00     0.000 C
ATOM     80  C2  NAG B   6       3.037 -42.979  43.9270  0.00  0.00     0.000 C
ATOM     81  C3  NAG B   6       2.476 -41.606  44.2600  0.00  0.00     0.000 C
ATOM     82  C4  NAG B   6       3.574 -40.685  44.8040  0.00  0.00     0.000 C
ATOM     83  C5  NAG B   6       4.732 -40.637  43.8140  0.00  0.00     0.000 C
ATOM     84  O5  NAG B   6       5.230 -41.967  43.6660  0.00  0.00     0.000 O
BRANCH 80 87
ATOM     85   N  NAG B   6       2.134 -43.890  43.2300  0.00  0.00     0.000 N
ATOM     87  HD  NAG B   6       1.914 -44.695  42.9990  0.00  0.00     0.000 HD
ATOM     87   C  NAG B   6       1.367 -44.800  43.8440  0.00  0.00     0.000 C
ATOM     88   C  NAG B   6       0.485 -45.613  42.9510  0.00  0.00     0.000 C
ATOM     89   O  NAG B   6       1.364 -44.962  45.0580  0.00  0.00     0.000 OA
ENDBRANCH 80 87
ATOM     90   O  NAG B   6       5.937 -38.587  43.3770  0.00  0.00     0.000 O
ATOM     92  HD  NAG B   6       5.670 -39.344  43.0530  0.00  0.00     0.000 HD
ATOM     92   O  NAG B   6       5.937 -38.587  43.3770  0.00  0.00     0.000 O
ATOM     94  HD  NAG B   6       5.670 -39.344  43.0530  0.00  0.00     0.000 HD
ENDBRANCH 78 81
ENDBRANCH 65 78
ENDBRANCH 64 68
ENDBRANCH 48 64
ENDBRANCH 47 50
ENDBRANCH 34 47
ENDBRANCH 33 37
ENDBRANCH 17 33
ENDBRANCH 16 19
ENDBRANCH 1 16
TORSDOF 16
ENDMDL
MODEL 84
REMARK VINA RESULT:      -8.6     33.609     37.050
ROOT
ATOM      1  C1  BDP B   1       3.674  -1.343  57.1060  0.00  0.00     0.000 C
ATOM      2  C2  BDP B   1       3.056  -2.593  56.5060  0.00  0.00     0.000 C
ATOM      3  C3  BDP B   1       4.019  -3.327  55.5970  0.00  0.00     0.000 C
ATOM      4  C4  BDP B   1       5.470  -2.885  55.7440  0.00  0.00     0.000 C
ATOM      5  C5  BDP B   1       5.627  -1.367  55.7560  0.00  0.00     0.000 C
ATOM      6  O5  BDP B   1       4.394  -0.697  56.0660  0.00  0.00     0.000 O
ATOM      7   O  BDP B   1       2.619  -3.469  57.5520  0.00  0.00     0.000 O
ATOM      9  HD  BDP B   1       2.227  -3.610  58.3110  0.00  0.00     0.000 HD
ATOM      9   O  BDP B   1       3.641  -3.133  54.2250  0.00  0.00     0.000 O
ATOM     11  HD  BDP B   1       3.249  -3.274  54.9850  0.00  0.00     0.000 HD
ATOM     11   O  BDP B   1       6.043  -3.439  56.9350  0.00  0.00     0.000 O
ATOM     13  HD  BDP B   1       5.651  -3.579  57.6950  0.00  0.00     0.000 HD
ENDROOT
BRANCH 5 13
ATOM     13   C  BDP B   1       6.092  -0.962  54.4000  0.00  0.00     0.000 C
ATOM     14   O  BDP B   1       5.247  -0.893  53.4840  0.00  0.00     0.000 OA
ATOM     15   O  BDP B   1       7.297  -0.681  54.2300  0.00  0.00     0.000 OA
ENDBRANCH 5 13
BRANCH 1 16
ATOM     16  O3  NAG B   2       3.874  -0.969  58.4670  0.00  0.00     0.000 O
BRANCH 16 19
ATOM     17  C1  NAG B   2       3.779  -1.941  61.9750  0.00  0.00     0.000 C
ATOM     18  C2  NAG B   2       4.015  -2.295  60.5060  0.00  0.00     0.000 C
ATOM     19  C3  NAG B   2       4.518  -1.083  59.7370  0.00  0.00     0.000 C
ATOM     20  C4  NAG B   2       4.326   0.212  60.5320  0.00  0.00     0.000 C
ATOM     21  C5  NAG B   2       3.057   0.266  61.3940  0.00  0.00     0.000 C
ATOM     22  O5  NAG B   2       2.703  -1.000  61.9640  0.00  0.00     0.000 O
ATOM     23   O  NAG B   2       5.480   0.417  61.3540  0.00  0.00     0.000 O
ATOM     25  HD  NAG B   2       5.556  -0.417  61.5760  0.00  0.00     0.000 HD
ATOM     25   C  NAG B   2       1.867   0.784  60.5740  0.00  0.00     0.000 C
ATOM     26   O  NAG B   2       1.819   2.217  60.5540  0.00  0.00     0.000 O
ATOM     28  HD  NAG B   2       1.895   1.384  60.7770  0.00  0.00     0.000 HD
BRANCH 18 30
ATOM     28   N  NAG B   2       5.108  -2.783  61.3470  0.00  0.00     0.000 N
ATOM     30  HD  NAG B   2       5.811  -2.515  61.7760  0.00  0.00     0.000 HD
ATOM     30   C  NAG B   2       6.110  -3.568  60.9260  0.00  0.00     0.000 C
ATOM     31   C  NAG B   2       7.107  -3.943  61.9850  0.00  0.00     0.000 C
ATOM     32   O  NAG B   2       6.222  -3.948  59.7840  0.00  0.00     0.000 OA
ENDBRANCH 18 30
BRANCH 17 33
ATOM     33  O4  BDP B   3       3.155  -2.165  63.2580  0.00  0.00     0.000 O
BRANCH 33 37
ATOM     34  C1  BDP B   3       4.488  -3.894  66.9290  0.00  0.00     0.000 C
ATOM     35  C2  BDP B   3       3.157  -4.383  66.3720  0.00  0.00     0.000 C
ATOM     36  C3  BDP B   3       2.955  -4.055  64.8960  0.00  0.00     0.000 C
ATOM     37  C4  BDP B   3       3.348  -2.593  64.6380  0.00  0.00     0.000 C
ATOM     38  C5  BDP B   3       4.804  -2.419  65.1140  0.00  0.00     0.000 C
ATOM     39  O5  BDP B   3       4.762  -2.544  66.5350  0.00  0.00     0.000 O
ATOM     40   O  BDP B   3       3.110  -5.788  66.6250  0.00  0.00     0.000 O
ATOM     42  HD  BDP B   3       2.872  -5.483  67.4000  0.00  0.00     0.000 HD
ATOM     42   O  BDP B   3       1.579  -4.294  64.6080  0.00  0.00     0.000 O
ATOM     44  HD  BDP B   3       1.341  -3.989  65.3830  0.00  0.00     0.000 HD
BRANCH 38 44
ATOM     44   C  BDP B   3       5.426  -1.111  64.7370  0.00  0.00     0.000 C
ATOM     45   O  BDP B   3       6.314  -1.118  63.8570  0.00  0.00     0.000 OA
ATOM     46   O  BDP B   3       5.050  -0.062  65.3040  0.00  0.00     0.000 OA
ENDBRANCH 38 44
BRANCH 34 47
ATOM     47  O3  NAG B   4       4.363  -3.414  68.2670  0.00  0.00     0.000 O
BRANCH 47 50
ATOM     48  C1  NAG B   4       7.261  -4.326  70.4850  0.00  0.00     0.000 C
ATOM     49  C2  NAG B   4       6.081  -4.559  69.5570  0.00  0.00     0.000 C
ATOM     50  C3  NAG B   4       5.526  -3.216  69.0960  0.00  0.00     0.000 C
ATOM     51  C4  NAG B   4       5.164  -2.327  70.2750  0.00  0.00     0.000 C
ATOM     52  C5  NAG B   4       6.367  -2.186  71.2080  0.00  0.00     0.000 C
ATOM     53  O5  NAG B   4       6.864  -3.478  71.5800  0.00  0.00     0.000 O
ATOM     54   O  NAG B   4       4.754  -1.047  69.7840  0.00  0.00     0.000 O
ATOM     56  HD  NAG B   4       4.549  -1.167  70.6170  0.00  0.00     0.000 HD
ATOM     56   C  NAG B   4       6.003  -1.404  72.4650  0.00  0.00     0.000 C
ATOM     57   O  NAG B   4       4.957  -2.096  73.1610  0.00  0.00     0.000 O
ATOM     59  HD  NAG B   4       4.752  -2.215  73.9940  0.00  0.00     0.000 HD
BRANCH 49 61
ATOM     59   N  NAG B   4       6.710  -5.668  68.8380  0.00  0.00     0.000 N
ATOM     61  HD  NAG B   4       6.154  -5.549  69.4910  0.00  0.00     0.000 HD
ATOM     61   O  NAG B   4       4.877  -6.981  68.7060  0.00  0.00     0.000 OA
ATOM     62   C  NAG B   4       6.040  -6.746  68.4130  0.00  0.00     0.000 C
ATOM     63   C  NAG B   4       6.802  -7.668  67.5140  0.00  0.00     0.000 C
ENDBRANCH 49 61
BRANCH 48 64
ATOM     64  O4  BDP B   5       8.432  -5.084  70.7730  0.00  0.00     0.000 O
BRANCH 64 68
ATOM     65  C1  BDP B   5      12.303  -6.556  71.2450  0.00  0.00     0.000 C
ATOM     66  C2  BDP B   5      11.759  -5.727  72.4010  0.00  0.00     0.000 C
ATOM     67  C3  BDP B   5      10.243  -5.629  72.2920  0.00  0.00     0.000 C
ATOM     68  C4  BDP B   5       9.849  -5.060  70.9340  0.00  0.00     0.000 C
ATOM     69  C5  BDP B   5      10.482  -5.830  69.7820  0.00  0.00     0.000 C
ATOM     70  O5  BDP B   5      11.897  -5.982  69.9920  0.00  0.00     0.000 O
ATOM     71   O  BDP B   5      12.165  -6.313  73.6470  0.00  0.00     0.000 O
ATOM     73  HD  BDP B   5      12.419  -6.719  74.3690  0.00  0.00     0.000 HD
ATOM     73   O  BDP B   5       9.717  -4.789  73.3270  0.00  0.00     0.000 O
ATOM     75  HD  BDP B   5       9.972  -5.194  74.0480  0.00  0.00     0.000 HD
BRANCH 69 75
ATOM     75   C  BDP B   5      10.242  -5.061  68.5080  0.00  0.00     0.000 C
ATOM     76   O  BDP B   5       9.510  -5.565  67.6320  0.00  0.00     0.000 OA
ATOM     77   O  BDP B   5      10.775  -3.945  68.3680  0.00  0.00     0.000 OA
ENDBRANCH 69 75
BRANCH 65 78
ATOM     78  O3  NAG B   6      13.588  -6.419  70.6330  0.00  0.00     0.000 O
BRANCH 78 81
ATOM     79  C1  NAG B   6      16.697  -8.396  69.7620  0.00  0.00     0.000 C
ATOM     80  C2  NAG B   6      15.764  -7.515  70.6080  0.00  0.00     0.000 C
ATOM     81  C3  NAG B   6      14.415  -7.366  69.9230  0.00  0.00     0.000 C
ATOM     82  C4  NAG B   6      14.590  -6.920  68.4670  0.00  0.00     0.000 C
ATOM     83  C5  NAG B   6      15.524  -7.887  67.7500  0.00  0.00     0.000 C
ATOM     84  O5  NAG B   6      16.780  -7.860  68.4300  0.00  0.00     0.000 O
BRANCH 80 87
ATOM     85   N  NAG B   6      15.930  -6.832  71.8880  0.00  0.00     0.000 N
ATOM     87  HD  NAG B   6      15.587  -6.510  72.6150  0.00  0.00     0.000 HD
ATOM     87   C  NAG B   6      15.701  -7.402  73.0770  0.00  0.00     0.000 C
ATOM     88   C  NAG B   6      15.965  -6.541  74.2720  0.00  0.00     0.000 C
ATOM     89   O  NAG B   6      15.314  -8.558  73.2010  0.00  0.00     0.000 OA
ENDBRANCH 80 87
ATOM     90   O  NAG B   6      15.138  -8.554  65.4580  0.00  0.00     0.000 O
ATOM     92  HD  NAG B   6      15.461  -8.787  66.2270  0.00  0.00     0.000 HD
ATOM     92   O  NAG B   6      15.138  -8.554  65.4580  0.00  0.00     0.000 O
ATOM     94  HD  NAG B   6      15.461  -8.787  66.2270  0.00  0.00     0.000 HD
ENDBRANCH 78 81
ENDBRANCH 65 78
ENDBRANCH 64 68
ENDBRANCH 48 64
ENDBRANCH 47 50
ENDBRANCH 34 47
ENDBRANCH 33 37
ENDBRANCH 17 33
ENDBRANCH 16 19
ENDBRANCH 1 16
TORSDOF 16
ENDMDL
MODEL 85
REMARK VINA RESULT:      -8.6     12.405     20.718
ROOT
ATOM      1  C1  BDP B   1      -0.151  -3.471  25.2450  0.00  0.00     0.000 C
ATOM      2  C2  BDP B   1       0.367  -2.777  23.9980  0.00  0.00     0.000 C
ATOM      3  C3  BDP B   1      -0.735  -2.512  22.9940  0.00  0.00     0.000 C
ATOM      4  C4  BDP B   1      -2.142  -2.657  23.5620  0.00  0.00     0.000 C
ATOM      5  C5  BDP B   1      -2.317  -3.930  24.3860  0.00  0.00     0.000 C
ATOM      6  O5  BDP B   1      -1.058  -4.476  24.8130  0.00  0.00     0.000 O
ATOM      7   O  BDP B   1       0.999  -1.543  24.3550  0.00  0.00     0.000 O
ATOM      9  HD  BDP B   1       1.525  -1.078  24.8620  0.00  0.00     0.000 HD
ATOM      9   O  BDP B   1      -0.616  -3.417  21.8850  0.00  0.00     0.000 O
ATOM     11  HD  BDP B   1      -0.091  -2.952  22.3930  0.00  0.00     0.000 HD
ATOM     11   O  BDP B   1      -2.480  -1.515  24.3590  0.00  0.00     0.000 O
ATOM     13  HD  BDP B   1      -1.954  -1.050  24.8660  0.00  0.00     0.000 HD
ENDROOT
BRANCH 5 13
ATOM     13   C  BDP B   1      -3.027  -4.917  23.5260  0.00  0.00     0.000 C
ATOM     14   O  BDP B   1      -4.182  -4.640  23.1410  0.00  0.00     0.000 OA
ATOM     15   O  BDP B   1      -2.440  -5.970  23.1980  0.00  0.00     0.000 OA
ENDBRANCH 5 13
BRANCH 1 16
ATOM     16  O3  NAG B   2      -0.106  -3.074  26.6140  0.00  0.00     0.000 O
BRANCH 16 19
ATOM     17  C1  NAG B   2      -1.848  -2.688  29.7870  0.00  0.00     0.000 C
ATOM     18  C2  NAG B   2      -1.640  -3.438  28.4710  0.00  0.00     0.000 C
ATOM     19  C3  NAG B   2      -0.192  -3.329  28.0170  0.00  0.00     0.000 C
ATOM     20  C4  NAG B   2       0.564  -2.242  28.7860  0.00  0.00     0.000 C
ATOM     21  C5  NAG B   2      -0.268  -1.006  29.1530  0.00  0.00     0.000 C
ATOM     22  O5  NAG B   2      -1.631  -1.311  29.4710  0.00  0.00     0.000 O
ATOM     23   O  NAG B   2       1.116  -2.825  29.9710  0.00  0.00     0.000 O
ATOM     25  HD  NAG B   2       0.417  -3.306  30.1450  0.00  0.00     0.000 HD
ATOM     25   C  NAG B   2      -0.249   0.019  28.0100  0.00  0.00     0.000 C
ATOM     26   O  NAG B   2       0.903   0.871  28.0800  0.00  0.00     0.000 O
ATOM     28  HD  NAG B   2       0.204   0.390  28.2530  0.00  0.00     0.000 HD
BRANCH 18 30
ATOM     28   N  NAG B   2      -1.714  -4.364  29.6010  0.00  0.00     0.000 N
ATOM     30  HD  NAG B   2      -1.261  -4.647  30.2830  0.00  0.00     0.000 HD
ATOM     30   C  NAG B   2      -1.706  -5.700  29.5010  0.00  0.00     0.000 C
ATOM     31   C  NAG B   2      -1.803  -6.433  30.8090  0.00  0.00     0.000 C
ATOM     32   O  NAG B   2      -1.621  -6.289  28.4480  0.00  0.00     0.000 OA
ENDBRANCH 18 30
BRANCH 17 33
ATOM     33  O4  BDP B   3      -2.682  -2.010  30.7520  0.00  0.00     0.000 O
BRANCH 33 37
ATOM     34  C1  BDP B   3      -4.704  -1.425  34.4690  0.00  0.00     0.000 C
ATOM     35  C2  BDP B   3      -3.519  -0.514  34.1690  0.00  0.00     0.000 C
ATOM     36  C3  BDP B   3      -3.127  -0.487  32.6960  0.00  0.00     0.000 C
ATOM     37  C4  BDP B   3      -3.086  -1.922  32.1500  0.00  0.00     0.000 C
ATOM     38  C5  BDP B   3      -4.470  -2.550  32.4070  0.00  0.00     0.000 C
ATOM     39  O5  BDP B   3      -4.569  -2.697  33.8240  0.00  0.00     0.000 O
ATOM     40   O  BDP B   3      -3.877   0.780  34.6580  0.00  0.00     0.000 O
ATOM     42  HD  BDP B   3      -3.623   0.401  35.3940  0.00  0.00     0.000 HD
ATOM     42   O  BDP B   3      -1.851   0.146  32.6230  0.00  0.00     0.000 O
ATOM     44  HD  BDP B   3      -1.597  -0.233  33.3590  0.00  0.00     0.000 HD
BRANCH 38 44
ATOM     44   C  BDP B   3      -4.682  -3.874  31.7440  0.00  0.00     0.000 C
ATOM     45   O  BDP B   3      -5.479  -3.926  30.7820  0.00  0.00     0.000 OA
ATOM     46   O  BDP B   3      -4.068  -4.880  32.1610  0.00  0.00     0.000 OA
ENDBRANCH 38 44
BRANCH 34 47
ATOM     47  O3  NAG B   4      -4.552  -2.107  35.7120  0.00  0.00     0.000 O
BRANCH 47 50
ATOM     48  C1  NAG B   4      -7.041  -1.580  38.4820  0.00  0.00     0.000 C
ATOM     49  C2  NAG B   4      -5.883  -1.244  37.5590  0.00  0.00     0.000 C
ATOM     50  C3  NAG B   4      -5.691  -2.376  36.5560  0.00  0.00     0.000 C
ATOM     51  C4  NAG B   4      -5.502  -3.715  37.2510  0.00  0.00     0.000 C
ATOM     52  C5  NAG B   4      -6.661  -3.965  38.2170  0.00  0.00     0.000 C
ATOM     53  O5  NAG B   4      -6.814  -2.856  39.1120  0.00  0.00     0.000 O
ATOM     54   O  NAG B   4      -5.436  -4.747  36.2640  0.00  0.00     0.000 O
ATOM     56  HD  NAG B   4      -5.172  -5.014  37.0440  0.00  0.00     0.000 HD
ATOM     56   C  NAG B   4      -6.443  -5.239  39.0250  0.00  0.00     0.000 C
ATOM     57   O  NAG B   4      -5.231  -5.112  39.7800  0.00  0.00     0.000 O
ATOM     59  HD  NAG B   4      -4.967  -5.379  40.5610  0.00  0.00     0.000 HD
BRANCH 49 61
ATOM     59   N  NAG B   4      -6.261   0.167  37.4760  0.00  0.00     0.000 N
ATOM     61  HD  NAG B   4      -5.699  -0.331  37.9080  0.00  0.00     0.000 HD
ATOM     61   O  NAG B   4      -4.168   1.013  37.5290  0.00  0.00     0.000 OA
ATOM     62   C  NAG B   4      -5.373   1.165  37.3950  0.00  0.00     0.000 C
ATOM     63   C  NAG B   4      -5.943   2.516  37.1020  0.00  0.00     0.000 C
ENDBRANCH 49 61
BRANCH 48 64
ATOM     64  O4  BDP B   5      -7.980  -0.777  39.1910  0.00  0.00     0.000 O
BRANCH 64 68
ATOM     65  C1  BDP B   5     -11.092  -1.969  41.6950  0.00  0.00     0.000 C
ATOM     66  C2  BDP B   5     -11.410  -1.935  40.2060  0.00  0.00     0.000 C
ATOM     67  C3  BDP B   5     -10.114  -1.912  39.4060  0.00  0.00     0.000 C
ATOM     68  C4  BDP B   5      -9.250  -0.734  39.8420  0.00  0.00     0.000 C
ATOM     69  C5  BDP B   5      -9.023  -0.714  41.3480  0.00  0.00     0.000 C
ATOM     70  O5  BDP B   5     -10.271  -0.845  42.0490  0.00  0.00     0.000 O
ATOM     71   O  BDP B   5     -12.225  -3.066  39.8610  0.00  0.00     0.000 O
ATOM     73  HD  BDP B   5     -12.698  -3.774  39.7040  0.00  0.00     0.000 HD
ATOM     73   O  BDP B   5     -10.390  -1.802  38.0040  0.00  0.00     0.000 O
ATOM     75  HD  BDP B   5     -10.862  -2.510  37.8470  0.00  0.00     0.000 HD
BRANCH 69 75
ATOM     75   C  BDP B   5      -8.375   0.598  41.7120  0.00  0.00     0.000 C
ATOM     76   O  BDP B   5      -7.217   0.587  42.1740  0.00  0.00     0.000 OA
ATOM     77   O  BDP B   5      -9.012   1.654  41.5390  0.00  0.00     0.000 OA
ENDBRANCH 69 75
BRANCH 65 78
ATOM     78  O3  NAG B   6     -11.895  -1.426  42.7460  0.00  0.00     0.000 O
BRANCH 78 81
ATOM     79  C1  NAG B   6     -13.947  -2.426  45.7670  0.00  0.00     0.000 C
ATOM     80  C2  NAG B   6     -13.656  -2.084  44.2970  0.00  0.00     0.000 C
ATOM     81  C3  NAG B   6     -12.162  -1.896  44.0860  0.00  0.00     0.000 C
ATOM     82  C4  NAG B   6     -11.586  -0.912  45.1090  0.00  0.00     0.000 C
ATOM     83  C5  NAG B   6     -11.939  -1.381  46.5160  0.00  0.00     0.000 C
ATOM     84  O5  NAG B   6     -13.363  -1.420  46.6140  0.00  0.00     0.000 O
BRANCH 80 87
ATOM     85   N  NAG B   6     -14.454  -1.912  43.0860  0.00  0.00     0.000 N
ATOM     87  HD  NAG B   6     -14.536  -1.984  42.2270  0.00  0.00     0.000 HD
ATOM     87   C  NAG B   6     -14.893  -2.924  42.3280  0.00  0.00     0.000 C
ATOM     88   C  NAG B   6     -15.726  -2.537  41.1480  0.00  0.00     0.000 C
ATOM     89   O  NAG B   6     -14.652  -4.099  42.5770  0.00  0.00     0.000 OA
ENDBRANCH 80 87
ATOM     90   O  NAG B   6     -10.370  -1.182  48.3460  0.00  0.00     0.000 O
ATOM     92  HD  NAG B   6     -11.028  -1.636  48.0120  0.00  0.00     0.000 HD
ATOM     92   O  NAG B   6     -10.370  -1.182  48.3460  0.00  0.00     0.000 O
ATOM     94  HD  NAG B   6     -11.028  -1.636  48.0120  0.00  0.00     0.000 HD
ENDBRANCH 78 81
ENDBRANCH 65 78
ENDBRANCH 64 68
ENDBRANCH 48 64
ENDBRANCH 47 50
ENDBRANCH 34 47
ENDBRANCH 33 37
ENDBRANCH 17 33
ENDBRANCH 16 19
ENDBRANCH 1 16
TORSDOF 16
ENDMDL
MODEL 86
REMARK VINA RESULT:      -8.5     28.976     32.004
ROOT
ATOM      1  C1  BDP B   1       2.199  19.318  17.0150  0.00  0.00     0.000 C
ATOM      2  C2  BDP B   1       3.337  19.250  18.0190  0.00  0.00     0.000 C
ATOM      3  C3  BDP B   1       2.958  18.465  19.2570  0.00  0.00     0.000 C
ATOM      4  C4  BDP B   1       1.694  17.628  19.0990  0.00  0.00     0.000 C
ATOM      5  C5  BDP B   1       0.548  18.404  18.4560  0.00  0.00     0.000 C
ATOM      6  O5  BDP B   1       1.011  19.569  17.7520  0.00  0.00     0.000 O
ATOM      7   O  BDP B   1       4.489  18.659  17.4090  0.00  0.00     0.000 O
ATOM      9  HD  BDP B   1       5.038  18.575  16.7440  0.00  0.00     0.000 HD
ATOM      9   O  BDP B   1       2.754  19.360  20.3610  0.00  0.00     0.000 O
ATOM     11  HD  BDP B   1       3.303  19.277  19.6970  0.00  0.00     0.000 HD
ATOM     11   O  BDP B   1       1.967  16.448  18.3340  0.00  0.00     0.000 O
ATOM     13  HD  BDP B   1       2.516  16.364  17.6700  0.00  0.00     0.000 HD
ENDROOT
BRANCH 5 13
ATOM     13   C  BDP B   1      -0.375  18.813  19.5500  0.00  0.00     0.000 C
ATOM     14   O  BDP B   1      -0.137  18.406  20.7060  0.00  0.00     0.000 OA
ATOM     15   O  BDP B   1      -1.337  19.566  19.2840  0.00  0.00     0.000 OA
ENDBRANCH 5 13
BRANCH 1 16
ATOM     16  O3  NAG B   2       2.134  18.888  15.6570  0.00  0.00     0.000 O
BRANCH 16 19
ATOM     17  C1  NAG B   2       3.025  16.119  13.4680  0.00  0.00     0.000 C
ATOM     18  C2  NAG B   2       2.506  16.634  14.8110  0.00  0.00     0.000 C
ATOM     19  C3  NAG B   2       1.780  17.959  14.6320  0.00  0.00     0.000 C
ATOM     20  C4  NAG B   2       2.056  18.576  13.2580  0.00  0.00     0.000 C
ATOM     21  C5  NAG B   2       3.473  18.346  12.7130  0.00  0.00     0.000 C
ATOM     22  O5  NAG B   2       4.015  17.066  13.0600  0.00  0.00     0.000 O
ATOM     23   O  NAG B   2       1.091  18.070  12.3300  0.00  0.00     0.000 O
ATOM     25  HD  NAG B   2       1.114  17.262  12.6390  0.00  0.00     0.000 HD
ATOM     25   C  NAG B   2       4.430  19.436  13.2150  0.00  0.00     0.000 C
ATOM     26   O  NAG B   2       4.386  20.605  12.3840  0.00  0.00     0.000 O
ATOM     28  HD  NAG B   2       4.409  19.796  12.6930  0.00  0.00     0.000 HD
BRANCH 18 30
ATOM     28   N  NAG B   2       1.901  15.359  15.1910  0.00  0.00     0.000 N
ATOM     30  HD  NAG B   2       1.919  14.512  15.0080  0.00  0.00     0.000 HD
ATOM     30   C  NAG B   2       0.628  15.012  14.9540  0.00  0.00     0.000 C
ATOM     31   C  NAG B   2       0.241  13.648  15.4520  0.00  0.00     0.000 C
ATOM     32   O  NAG B   2      -0.161  15.725  14.3780  0.00  0.00     0.000 OA
ENDBRANCH 18 30
BRANCH 17 33
ATOM     33  O4  BDP B   3       3.917  15.313  12.6670  0.00  0.00     0.000 O
BRANCH 33 37
ATOM     34  C1  BDP B   3       7.580  13.769  11.1060  0.00  0.00     0.000 C
ATOM     35  C2  BDP B   3       7.347  13.629  12.6050  0.00  0.00     0.000 C
ATOM     36  C3  BDP B   3       5.890  13.803  13.0160  0.00  0.00     0.000 C
ATOM     37  C4  BDP B   3       5.302  15.034  12.3100  0.00  0.00     0.000 C
ATOM     38  C5  BDP B   3       5.494  14.828  10.7960  0.00  0.00     0.000 C
ATOM     39  O5  BDP B   3       6.901  14.911  10.5710  0.00  0.00     0.000 O
ATOM     40   O  BDP B   3       7.863  12.347  12.9720  0.00  0.00     0.000 O
ATOM     42  HD  BDP B   3       8.596  12.809  12.9520  0.00  0.00     0.000 HD
ATOM     42   O  BDP B   3       5.879  13.949  14.4350  0.00  0.00     0.000 O
ATOM     44  HD  BDP B   3       6.611  14.411  14.4150  0.00  0.00     0.000 HD
BRANCH 38 44
ATOM     44   C  BDP B   3       4.784  15.830   9.9400  0.00  0.00     0.000 C
ATOM     45   O  BDP B   3       5.291  16.968   9.8270  0.00  0.00     0.000 OA
ATOM     46   O  BDP B   3       3.718  15.511   9.3690  0.00  0.00     0.000 OA
ENDBRANCH 38 44
BRANCH 34 47
ATOM     47  O3  NAG B   4       8.806  14.437  10.8160  0.00  0.00     0.000 O
BRANCH 47 50
ATOM     48  C1  NAG B   4      10.984  12.698   8.2890  0.00  0.00     0.000 C
ATOM     49  C2  NAG B   4      10.211  12.875   9.5840  0.00  0.00     0.000 C
ATOM     50  C3  NAG B   4       9.492  14.219   9.5660  0.00  0.00     0.000 C
ATOM     51  C4  NAG B   4      10.457  15.366   9.3100  0.00  0.00     0.000 C
ATOM     52  C5  NAG B   4      11.254  15.099   8.0330  0.00  0.00     0.000 C
ATOM     53  O5  NAG B   4      11.879  13.810   8.0950  0.00  0.00     0.000 O
ATOM     54   O  NAG B   4       9.714  16.583   9.1950  0.00  0.00     0.000 O
ATOM     56  HD  NAG B   4      10.563  16.719   9.2950  0.00  0.00     0.000 HD
ATOM     56   C  NAG B   4      12.320  16.167   7.8120  0.00  0.00     0.000 C
ATOM     57   O  NAG B   4      13.220  16.167   8.9280  0.00  0.00     0.000 O
ATOM     59  HD  NAG B   4      14.070  16.303   9.0270  0.00  0.00     0.000 HD
BRANCH 49 61
ATOM     59   N  NAG B   4      11.254  12.022  10.1550  0.00  0.00     0.000 N
ATOM     61  HD  NAG B   4      10.630  12.557  10.4290  0.00  0.00     0.000 HD
ATOM     61   O  NAG B   4      10.017  11.171  11.8420  0.00  0.00     0.000 OA
ATOM     62   C  NAG B   4      11.047  11.193  11.1850  0.00  0.00     0.000 C
ATOM     63   C  NAG B   4      12.166  10.248  11.4900  0.00  0.00     0.000 C
ENDBRANCH 49 61
BRANCH 48 64
ATOM     64  O4  BDP B   5      11.362  11.550   7.5350  0.00  0.00     0.000 O
BRANCH 64 68
ATOM     65  C1  BDP B   5      13.711   8.481   5.9750  0.00  0.00     0.000 C
ATOM     66  C2  BDP B   5      14.438   9.504   6.8380  0.00  0.00     0.000 C
ATOM     67  C3  BDP B   5      13.427  10.284   7.6680  0.00  0.00     0.000 C
ATOM     68  C4  BDP B   5      12.385  10.926   6.7600  0.00  0.00     0.000 C
ATOM     69  C5  BDP B   5      11.736   9.914   5.8240  0.00  0.00     0.000 C
ATOM     70  O5  BDP B   5      12.738   9.137   5.1460  0.00  0.00     0.000 O
ATOM     71   O  BDP B   5      15.403   8.837   7.6650  0.00  0.00     0.000 O
ATOM     73  HD  BDP B   5      15.955   8.384   8.1550  0.00  0.00     0.000 HD
ATOM     73   O  BDP B   5      14.082  11.305   8.4300  0.00  0.00     0.000 O
ATOM     75  HD  BDP B   5      14.634  10.851   8.9200  0.00  0.00     0.000 HD
BRANCH 69 75
ATOM     75   C  BDP B   5      10.911  10.666   4.8110  0.00  0.00     0.000 C
ATOM     76   O  BDP B   5      11.444  11.600   4.1780  0.00  0.00     0.000 OA
ATOM     77   O  BDP B   5       9.725  10.333   4.6320  0.00  0.00     0.000 OA
ENDBRANCH 69 75
BRANCH 65 78
ATOM     78  O3  NAG B   6      14.135   7.993   4.6990  0.00  0.00     0.000 O
BRANCH 78 81
ATOM     79  C1  NAG B   6      15.294   4.942   2.7800  0.00  0.00     0.000 C
ATOM     80  C2  NAG B   6      15.415   6.265   3.5530  0.00  0.00     0.000 C
ATOM     81  C3  NAG B   6      14.060   6.678   4.1050  0.00  0.00     0.000 C
ATOM     82  C4  NAG B   6      12.994   6.661   3.0050  0.00  0.00     0.000 C
ATOM     83  C5  NAG B   6      12.977   5.291   2.3370  0.00  0.00     0.000 C
ATOM     84  O5  NAG B   6      14.271   5.068   1.7750  0.00  0.00     0.000 O
BRANCH 80 87
ATOM     85   N  NAG B   6      16.222   6.311   4.7690  0.00  0.00     0.000 N
ATOM     87  HD  NAG B   6      16.958   6.127   5.1860  0.00  0.00     0.000 HD
ATOM     87   C  NAG B   6      17.360   7.006   4.8870  0.00  0.00     0.000 C
ATOM     88   C  NAG B   6      18.018   6.950   6.2290  0.00  0.00     0.000 C
ATOM     89   O  NAG B   6      17.839   7.664   3.9710  0.00  0.00     0.000 OA
ENDBRANCH 80 87
ATOM     90   O  NAG B   6      10.908   4.241   1.6580  0.00  0.00     0.000 O
ATOM     92  HD  NAG B   6      11.718   4.114   1.9340  0.00  0.00     0.000 HD
ATOM     92   O  NAG B   6      10.908   4.241   1.6580  0.00  0.00     0.000 O
ATOM     94  HD  NAG B   6      11.718   4.114   1.9340  0.00  0.00     0.000 HD
ENDBRANCH 78 81
ENDBRANCH 65 78
ENDBRANCH 64 68
ENDBRANCH 48 64
ENDBRANCH 47 50
ENDBRANCH 34 47
ENDBRANCH 33 37
ENDBRANCH 17 33
ENDBRANCH 16 19
ENDBRANCH 1 16
TORSDOF 16
ENDMDL
MODEL 87
REMARK VINA RESULT:      -8.5     10.711     22.270
ROOT
ATOM      1  C1  BDP B   1       2.451  -8.870  31.2590  0.00  0.00     0.000 C
ATOM      2  C2  BDP B   1       3.556  -9.115  30.2470  0.00  0.00     0.000 C
ATOM      3  C3  BDP B   1       3.813 -10.591  30.0300  0.00  0.00     0.000 C
ATOM      4  C4  BDP B   1       2.714 -11.499  30.5700  0.00  0.00     0.000 C
ATOM      5  C5  BDP B   1       2.281 -11.124  31.9840  0.00  0.00     0.000 C
ATOM      6  O5  BDP B   1       2.659  -9.780  32.3290  0.00  0.00     0.000 O
ATOM      7   O  BDP B   1       3.221  -8.496  29.0010  0.00  0.00     0.000 O
ATOM      9  HD  BDP B   1       2.915  -7.828  28.5420  0.00  0.00     0.000 HD
ATOM      9   O  BDP B   1       5.044 -10.972  30.6620  0.00  0.00     0.000 O
ATOM     11  HD  BDP B   1       4.739 -10.304  30.2040  0.00  0.00     0.000 HD
ATOM     11   O  BDP B   1       1.578 -11.483  29.6970  0.00  0.00     0.000 O
ATOM     13  HD  BDP B   1       1.273 -10.814  29.2380  0.00  0.00     0.000 HD
ENDROOT
BRANCH 5 13
ATOM     13   C  BDP B   1       2.937 -12.084  32.9150  0.00  0.00     0.000 C
ATOM     14   O  BDP B   1       2.261 -13.042  33.3450  0.00  0.00     0.000 OA
ATOM     15   O  BDP B   1       4.139 -11.918  33.2120  0.00  0.00     0.000 OA
ENDBRANCH 5 13
BRANCH 1 16
ATOM     16  O3  NAG B   2       1.214  -8.172  31.1300  0.00  0.00     0.000 O
BRANCH 16 19
ATOM     17  C1  NAG B   2      -1.349  -5.600  30.8680  0.00  0.00     0.000 C
ATOM     18  C2  NAG B   2       0.110  -6.035  30.7380  0.00  0.00     0.000 C
ATOM     19  C3  NAG B   2       0.198  -7.510  30.3740  0.00  0.00     0.000 C
ATOM     20  C4  NAG B   2      -1.141  -8.224  30.5730  0.00  0.00     0.000 C
ATOM     21  C5  NAG B   2      -1.973  -7.729  31.7650  0.00  0.00     0.000 C
ATOM     22  O5  NAG B   2      -1.856  -6.320  31.9940  0.00  0.00     0.000 O
ATOM     23   O  NAG B   2      -1.903  -8.106  29.3680  0.00  0.00     0.000 O
ATOM     25  HD  NAG B   2      -1.679  -7.282  29.2240  0.00  0.00     0.000 HD
ATOM     25   C  NAG B   2      -1.573  -8.469  33.0490  0.00  0.00     0.000 C
ATOM     26   O  NAG B   2      -2.269  -9.716  33.1830  0.00  0.00     0.000 O
ATOM     28  HD  NAG B   2      -2.045  -8.892  33.0390  0.00  0.00     0.000 HD
BRANCH 18 30
ATOM     28   N  NAG B   2       0.228  -6.016  29.2800  0.00  0.00     0.000 N
ATOM     30  HD  NAG B   2       0.739  -6.280  28.6330  0.00  0.00     0.000 HD
ATOM     30   C  NAG B   2       0.473  -4.923  28.5440  0.00  0.00     0.000 C
ATOM     31   C  NAG B   2       0.537  -5.161  27.0620  0.00  0.00     0.000 C
ATOM     32   O  NAG B   2       0.638  -3.824  29.0180  0.00  0.00     0.000 OA
ENDBRANCH 18 30
BRANCH 17 33
ATOM     33  O4  BDP B   3      -2.379  -4.718  31.3650  0.00  0.00     0.000 O
BRANCH 33 37
ATOM     34  C1  BDP B   3      -3.927  -0.756  30.9770  0.00  0.00     0.000 C
ATOM     35  C2  BDP B   3      -2.416  -0.903  31.1180  0.00  0.00     0.000 C
ATOM     36  C3  BDP B   3      -1.910  -2.312  30.8280  0.00  0.00     0.000 C
ATOM     37  C4  BDP B   3      -2.803  -3.335  31.5470  0.00  0.00     0.000 C
ATOM     38  C5  BDP B   3      -4.249  -3.091  31.0760  0.00  0.00     0.000 C
ATOM     39  O5  BDP B   3      -4.625  -1.827  31.6220  0.00  0.00     0.000 O
ATOM     40   O  BDP B   3      -1.836   0.070  30.2480  0.00  0.00     0.000 O
ATOM     42  HD  BDP B   3      -2.027   0.568  30.9300  0.00  0.00     0.000 HD
ATOM     42   O  BDP B   3      -0.562  -2.366  31.2900  0.00  0.00     0.000 O
ATOM     44  HD  BDP B   3      -0.753  -1.869  31.9730  0.00  0.00     0.000 HD
BRANCH 38 44
ATOM     44   C  BDP B   3      -5.226  -4.140  31.5080  0.00  0.00     0.000 C
ATOM     45   O  BDP B   3      -5.807  -4.800  30.6190  0.00  0.00     0.000 OA
ATOM     46   O  BDP B   3      -5.434  -4.327  32.7270  0.00  0.00     0.000 OA
ENDBRANCH 38 44
BRANCH 34 47
ATOM     47  O3  NAG B   4      -4.473   0.116  31.9650  0.00  0.00     0.000 O
BRANCH 47 50
ATOM     48  C1  NAG B   4      -7.517   2.163  31.1350  0.00  0.00     0.000 C
ATOM     49  C2  NAG B   4      -6.058   1.746  31.0940  0.00  0.00     0.000 C
ATOM     50  C3  NAG B   4      -5.866   0.490  31.9360  0.00  0.00     0.000 C
ATOM     51  C4  NAG B   4      -6.367   0.688  33.3580  0.00  0.00     0.000 C
ATOM     52  C5  NAG B   4      -7.817   1.174  33.3330  0.00  0.00     0.000 C
ATOM     53  O5  NAG B   4      -7.941   2.334  32.5010  0.00  0.00     0.000 O
ATOM     54   O  NAG B   4      -6.262  -0.550  34.0650  0.00  0.00     0.000 O
ATOM     56  HD  NAG B   4      -6.400   0.124  34.5910  0.00  0.00     0.000 HD
ATOM     56   C  NAG B   4      -8.314   1.503  34.7360  0.00  0.00     0.000 C
ATOM     57   O  NAG B   4      -7.490   2.535  35.2940  0.00  0.00     0.000 O
ATOM     59  HD  NAG B   4      -7.628   3.209  35.8200  0.00  0.00     0.000 HD
BRANCH 49 61
ATOM     59   N  NAG B   4      -5.495   3.075  31.3330  0.00  0.00     0.000 N
ATOM     61  HD  NAG B   4      -5.216   2.268  31.1890  0.00  0.00     0.000 HD
ATOM     61   O  NAG B   4      -3.849   2.957  29.7910  0.00  0.00     0.000 OA
ATOM     62   C  NAG B   4      -4.491   3.592  30.6150  0.00  0.00     0.000 C
ATOM     63   C  NAG B   4      -4.195   5.037  30.8620  0.00  0.00     0.000 C
ENDBRANCH 49 61
BRANCH 48 64
ATOM     64  O4  BDP B   5      -8.357   2.848  30.2090  0.00  0.00     0.000 O
BRANCH 64 68
ATOM     65  C1  BDP B   5     -10.555   5.574  27.9500  0.00  0.00     0.000 C
ATOM     66  C2  BDP B   5      -9.043   5.625  27.7710  0.00  0.00     0.000 C
ATOM     67  C3  BDP B   5      -8.422   4.337  28.2960  0.00  0.00     0.000 C
ATOM     68  C4  BDP B   5      -8.827   4.113  29.7490  0.00  0.00     0.000 C
ATOM     69  C5  BDP B   5     -10.338   4.168  29.9380  0.00  0.00     0.000 C
ATOM     70  O5  BDP B   5     -10.881   5.353  29.3310  0.00  0.00     0.000 O
ATOM     71   O  BDP B   5      -8.729   5.840  26.3870  0.00  0.00     0.000 O
ATOM     73  HD  BDP B   5      -8.595   5.950  25.5380  0.00  0.00     0.000 HD
ATOM     73   O  BDP B   5      -6.993   4.397  28.2090  0.00  0.00     0.000 O
ATOM     75  HD  BDP B   5      -6.859   4.507  27.3600  0.00  0.00     0.000 HD
BRANCH 69 75
ATOM     75   C  BDP B   5     -10.629   4.182  31.4170  0.00  0.00     0.000 C
ATOM     76   O  BDP B   5     -10.295   5.181  32.0860  0.00  0.00     0.000 OA
ATOM     77   O  BDP B   5     -11.198   3.199  31.9290  0.00  0.00     0.000 OA
ENDBRANCH 69 75
BRANCH 65 78
ATOM     78  O3  NAG B   6     -11.423   6.691  28.1580  0.00  0.00     0.000 O
BRANCH 78 81
ATOM     79  C1  NAG B   6     -14.240   8.677  26.5900  0.00  0.00     0.000 C
ATOM     80  C2  NAG B   6     -12.793   8.310  26.9580  0.00  0.00     0.000 C
ATOM     81  C3  NAG B   6     -12.756   6.970  27.6750  0.00  0.00     0.000 C
ATOM     82  C4  NAG B   6     -13.750   6.947  28.8400  0.00  0.00     0.000 C
ATOM     83  C5  NAG B   6     -15.138   7.315  28.3290  0.00  0.00     0.000 C
ATOM     84  O5  NAG B   6     -15.059   8.628  27.7720  0.00  0.00     0.000 O
BRANCH 80 87
ATOM     85   N  NAG B   6     -11.510   8.976  26.7540  0.00  0.00     0.000 N
ATOM     87  HD  NAG B   6     -10.652   8.931  26.6470  0.00  0.00     0.000 HD
ATOM     87   C  NAG B   6     -10.769   8.852  25.6450  0.00  0.00     0.000 C
ATOM     88   C  NAG B   6      -9.502   9.646  25.6200  0.00  0.00     0.000 C
ATOM     89   O  NAG B   6     -11.098   8.150  24.6970  0.00  0.00     0.000 OA
ENDBRANCH 80 87
ATOM     90   O  NAG B   6     -17.125   6.217  29.1620  0.00  0.00     0.000 O
ATOM     92  HD  NAG B   6     -16.754   6.610  28.4860  0.00  0.00     0.000 HD
ATOM     92   O  NAG B   6     -17.125   6.217  29.1620  0.00  0.00     0.000 O
ATOM     94  HD  NAG B   6     -16.754   6.610  28.4860  0.00  0.00     0.000 HD
ENDBRANCH 78 81
ENDBRANCH 65 78
ENDBRANCH 64 68
ENDBRANCH 48 64
ENDBRANCH 47 50
ENDBRANCH 34 47
ENDBRANCH 33 37
ENDBRANCH 17 33
ENDBRANCH 16 19
ENDBRANCH 1 16
TORSDOF 16
ENDMDL
MODEL 88
REMARK VINA RESULT:      -8.5     28.011     31.530
ROOT
ATOM      1  C1  BDP B   1     -24.080 -30.613  30.6300  0.00  0.00     0.000 C
ATOM      2  C2  BDP B   1     -25.400 -31.231  31.0570  0.00  0.00     0.000 C
ATOM      3  C3  BDP B   1     -26.176 -31.787  29.8820  0.00  0.00     0.000 C
ATOM      4  C4  BDP B   1     -25.351 -31.936  28.6080  0.00  0.00     0.000 C
ATOM      5  C5  BDP B   1     -24.515 -30.699  28.2970  0.00  0.00     0.000 C
ATOM      6  O5  BDP B   1     -24.336 -29.862  29.4520  0.00  0.00     0.000 O
ATOM      7   O  BDP B   1     -25.164 -32.271  32.0120  0.00  0.00     0.000 O
ATOM      9  HD  BDP B   1     -24.764 -32.580  32.7150  0.00  0.00     0.000 HD
ATOM      9   O  BDP B   1     -27.290 -30.932  29.5820  0.00  0.00     0.000 O
ATOM     11  HD  BDP B   1     -26.890 -31.241  30.2850  0.00  0.00     0.000 HD
ATOM     11   O  BDP B   1     -24.500 -33.086  28.6960  0.00  0.00     0.000 O
ATOM     13  HD  BDP B   1     -24.100 -33.395  29.3990  0.00  0.00     0.000 HD
ENDROOT
BRANCH 5 13
ATOM     13   C  BDP B   1     -25.228 -29.940  27.2330  0.00  0.00     0.000 C
ATOM     14   O  BDP B   1     -26.055 -29.073  27.5820  0.00  0.00     0.000 OA
ATOM     15   O  BDP B   1     -24.960 -30.175  26.0360  0.00  0.00     0.000 OA
ENDBRANCH 5 13
BRANCH 1 16
ATOM     16  O3  NAG B   2     -22.743 -30.923  31.0170  0.00  0.00     0.000 O
BRANCH 16 19
ATOM     17  C1  NAG B   2     -19.835 -30.306  33.1180  0.00  0.00     0.000 C
ATOM     18  C2  NAG B   2     -21.350 -30.304  32.9180  0.00  0.00     0.000 C
ATOM     19  C3  NAG B   2     -21.763 -31.396  31.9420  0.00  0.00     0.000 C
ATOM     20  C4  NAG B   2     -20.560 -31.958  31.1780  0.00  0.00     0.000 C
ATOM     21  C5  NAG B   2     -19.468 -30.934  30.8380  0.00  0.00     0.000 C
ATOM     22  O5  NAG B   2     -19.288 -29.936  31.8500  0.00  0.00     0.000 O
ATOM     23   O  NAG B   2     -19.998 -33.031  31.9400  0.00  0.00     0.000 O
ATOM     25  HD  NAG B   2     -20.090 -32.631  32.7020  0.00  0.00     0.000 HD
ATOM     25   C  NAG B   2     -19.780 -30.232  29.5080  0.00  0.00     0.000 C
ATOM     26   O  NAG B   2     -19.308 -30.990  28.3850  0.00  0.00     0.000 O
ATOM     28  HD  NAG B   2     -19.400 -30.590  29.1470  0.00  0.00     0.000 HD
BRANCH 18 30
ATOM     28   N  NAG B   2     -21.841 -31.378  33.7810  0.00  0.00     0.000 N
ATOM     30  HD  NAG B   2     -22.567 -31.787  34.0170  0.00  0.00     0.000 HD
ATOM     30   C  NAG B   2     -21.861 -31.337  35.1210  0.00  0.00     0.000 C
ATOM     31   C  NAG B   2     -22.403 -32.572  35.7820  0.00  0.00     0.000 C
ATOM     32   O  NAG B   2     -21.481 -30.386  35.7640  0.00  0.00     0.000 OA
ENDBRANCH 18 30
BRANCH 17 33
ATOM     33  O4  BDP B   3     -18.594 -29.664  33.4870  0.00  0.00     0.000 O
BRANCH 33 37
ATOM     34  C1  BDP B   3     -15.521 -30.388  36.3630  0.00  0.00     0.000 C
ATOM     35  C2  BDP B   3     -16.794 -29.712  36.8590  0.00  0.00     0.000 C
ATOM     36  C3  BDP B   3     -17.978 -29.870  35.9110  0.00  0.00     0.000 C
ATOM     37  C4  BDP B   3     -17.524 -29.579  34.4720  0.00  0.00     0.000 C
ATOM     38  C5  BDP B   3     -16.354 -30.533  34.1600  0.00  0.00     0.000 C
ATOM     39  O5  BDP B   3     -15.272 -30.097  34.9830  0.00  0.00     0.000 O
ATOM     40   O  BDP B   3     -17.060 -30.260  38.1520  0.00  0.00     0.000 O
ATOM     42  HD  BDP B   3     -16.460 -29.670  38.3540  0.00  0.00     0.000 HD
ATOM     42   O  BDP B   3     -18.978 -28.950  36.3470  0.00  0.00     0.000 O
ATOM     44  HD  BDP B   3     -18.377 -28.360  36.5500  0.00  0.00     0.000 HD
BRANCH 38 44
ATOM     44   C  BDP B   3     -15.928 -30.541  32.7250  0.00  0.00     0.000 C
ATOM     45   O  BDP B   3     -16.100 -31.593  32.0700  0.00  0.00     0.000 OA
ATOM     46   O  BDP B   3     -15.419 -29.515  32.2260  0.00  0.00     0.000 OA
ENDBRANCH 38 44
BRANCH 34 47
ATOM     47  O3  NAG B   4     -14.357 -29.625  36.6720  0.00  0.00     0.000 O
BRANCH 47 50
ATOM     48  C1  NAG B   4     -11.590 -32.173  36.6300  0.00  0.00     0.000 C
ATOM     49  C2  NAG B   4     -13.004 -31.645  36.8030  0.00  0.00     0.000 C
ATOM     50  C3  NAG B   4     -13.037 -30.162  36.4500  0.00  0.00     0.000 C
ATOM     51  C4  NAG B   4     -12.024 -29.371  37.2630  0.00  0.00     0.000 C
ATOM     52  C5  NAG B   4     -10.635 -29.990  37.1060  0.00  0.00     0.000 C
ATOM     53  O5  NAG B   4     -10.673 -31.389  37.4180  0.00  0.00     0.000 O
ATOM     54   O  NAG B   4     -12.025 -28.013  36.8140  0.00  0.00     0.000 O
ATOM     56  HD  NAG B   4     -11.614 -28.114  37.5700  0.00  0.00     0.000 HD
ATOM     56   C  NAG B   4      -9.616 -29.300  38.0050  0.00  0.00     0.000 C
ATOM     57   O  NAG B   4     -10.030 -29.435  39.3710  0.00  0.00     0.000 O
ATOM     59  HD  NAG B   4      -9.619 -29.536  40.1270  0.00  0.00     0.000 HD
BRANCH 49 61
ATOM     59   N  NAG B   4     -13.140 -32.591  37.9100  0.00  0.00     0.000 N
ATOM     61  HD  NAG B   4     -13.570 -31.920  37.5730  0.00  0.00     0.000 HD
ATOM     61   O  NAG B   4     -15.355 -32.969  37.6740  0.00  0.00     0.000 OA
ATOM     62   C  NAG B   4     -14.282 -33.225  38.2030  0.00  0.00     0.000 C
ATOM     63   C  NAG B   4     -14.177 -34.310  39.2260  0.00  0.00     0.000 C
ENDBRANCH 49 61
BRANCH 48 64
ATOM     64  O4  BDP B   5     -11.069 -33.455  36.2950  0.00  0.00     0.000 O
BRANCH 64 68
ATOM     65  C1  BDP B   5      -9.066 -34.798  32.8950  0.00  0.00     0.000 C
ATOM     66  C2  BDP B   5     -10.577 -34.658  32.7680  0.00  0.00     0.000 C
ATOM     67  C3  BDP B   5     -11.107 -33.777  33.8910  0.00  0.00     0.000 C
ATOM     68  C4  BDP B   5     -10.688 -34.342  35.2440  0.00  0.00     0.000 C
ATOM     69  C5  BDP B   5      -9.186 -34.578  35.3280  0.00  0.00     0.000 C
ATOM     70  O5  BDP B   5      -8.727 -35.326  34.1880  0.00  0.00     0.000 O
ATOM     71   O  BDP B   5     -10.904 -34.125  31.4750  0.00  0.00     0.000 O
ATOM     73  HD  BDP B   5     -11.045 -33.783  30.6920  0.00  0.00     0.000 HD
ATOM     73   O  BDP B   5     -12.536 -33.695  33.8350  0.00  0.00     0.000 O
ATOM     75  HD  BDP B   5     -12.676 -33.353  33.0520  0.00  0.00     0.000 HD
BRANCH 69 75
ATOM     75   C  BDP B   5      -8.898 -35.354  36.5880  0.00  0.00     0.000 C
ATOM     76   O  BDP B   5      -9.543 -36.399  36.8090  0.00  0.00     0.000 OA
ATOM     77   O  BDP B   5      -8.024 -34.935  37.3680  0.00  0.00     0.000 OA
ENDBRANCH 69 75
BRANCH 65 78
ATOM     78  O3  NAG B   6      -8.279 -35.919  32.4820  0.00  0.00     0.000 O
BRANCH 78 81
ATOM     79  C1  NAG B   6      -5.296 -36.550  30.2380  0.00  0.00     0.000 C
ATOM     80  C2  NAG B   6      -6.763 -36.276  30.6090  0.00  0.00     0.000 C
ATOM     81  C3  NAG B   6      -6.890 -36.024  32.1030  0.00  0.00     0.000 C
ATOM     82  C4  NAG B   6      -6.212 -37.140  32.9040  0.00  0.00     0.000 C
ATOM     83  C5  NAG B   6      -4.767 -37.290  32.4420  0.00  0.00     0.000 C
ATOM     84  O5  NAG B   6      -4.790 -37.622  31.0530  0.00  0.00     0.000 O
BRANCH 80 87
ATOM     85   N  NAG B   6      -7.970 -36.227  29.7890  0.00  0.00     0.000 N
ATOM     87  HD  NAG B   6      -8.780 -35.947  29.6660  0.00  0.00     0.000 HD
ATOM     87   C  NAG B   6      -8.434 -35.115  29.2050  0.00  0.00     0.000 C
ATOM     88   C  NAG B   6      -9.668 -35.284  28.3770  0.00  0.00     0.000 C
ATOM     89   O  NAG B   6      -7.889 -34.024  29.3180  0.00  0.00     0.000 OA
ENDBRANCH 80 87
ATOM     90   O  NAG B   6      -2.979 -37.743  34.0050  0.00  0.00     0.000 O
ATOM     92  HD  NAG B   6      -3.197 -37.369  33.2560  0.00  0.00     0.000 HD
ATOM     92   O  NAG B   6      -2.979 -37.743  34.0050  0.00  0.00     0.000 O
ATOM     94  HD  NAG B   6      -3.197 -37.369  33.2560  0.00  0.00     0.000 HD
ENDBRANCH 78 81
ENDBRANCH 65 78
ENDBRANCH 64 68
ENDBRANCH 48 64
ENDBRANCH 47 50
ENDBRANCH 34 47
ENDBRANCH 33 37
ENDBRANCH 17 33
ENDBRANCH 16 19
ENDBRANCH 1 16
TORSDOF 16
ENDMDL
MODEL 89
REMARK VINA RESULT:      -8.5      8.253     17.520
ROOT
ATOM      1  C1  BDP B   1       1.876  -8.909  30.5790  0.00  0.00     0.000 C
ATOM      2  C2  BDP B   1       3.263  -8.610  30.0380  0.00  0.00     0.000 C
ATOM      3  C3  BDP B   1       4.199  -9.790  30.1850  0.00  0.00     0.000 C
ATOM      4  C4  BDP B   1       3.496 -11.106  30.4980  0.00  0.00     0.000 C
ATOM      5  C5  BDP B   1       2.456 -10.970  31.6060  0.00  0.00     0.000 C
ATOM      6  O5  BDP B   1       2.051  -9.605  31.8050  0.00  0.00     0.000 O
ATOM      7   O  BDP B   1       3.176  -8.233  28.6590  0.00  0.00     0.000 O
ATOM      9  HD  BDP B   1       2.802  -7.792  28.0140  0.00  0.00     0.000 HD
ATOM      9   O  BDP B   1       5.143  -9.539  31.2370  0.00  0.00     0.000 O
ATOM     11  HD  BDP B   1       4.769  -9.098  30.5920  0.00  0.00     0.000 HD
ATOM     11   O  BDP B   1       2.879 -11.636  29.3190  0.00  0.00     0.000 O
ATOM     13  HD  BDP B   1       2.505 -11.195  28.6740  0.00  0.00     0.000 HD
ENDROOT
BRANCH 5 13
ATOM     13   C  BDP B   1       3.070 -11.498  32.8550  0.00  0.00     0.000 C
ATOM     14   O  BDP B   1       2.406 -11.438  33.9100  0.00  0.00     0.000 OA
ATOM     15   O  BDP B   1       4.212 -12.005  32.8030  0.00  0.00     0.000 OA
ENDBRANCH 5 13
BRANCH 1 16
ATOM     16  O3  NAG B   2       0.604  -8.880  29.9360  0.00  0.00     0.000 O
BRANCH 16 19
ATOM     17  C1  NAG B   2      -1.431  -5.872  29.6790  0.00  0.00     0.000 C
ATOM     18  C2  NAG B   2      -0.285  -6.746  29.1670  0.00  0.00     0.000 C
ATOM     19  C3  NAG B   2      -0.564  -8.214  29.4530  0.00  0.00     0.000 C
ATOM     20  C4  NAG B   2      -1.710  -8.390  30.4530  0.00  0.00     0.000 C
ATOM     21  C5  NAG B   2      -1.787  -7.320  31.5510  0.00  0.00     0.000 C
ATOM     22  O5  NAG B   2      -1.405  -6.015  31.1010  0.00  0.00     0.000 O
ATOM     23   O  NAG B   2      -2.944  -8.431  29.7280  0.00  0.00     0.000 O
ATOM     25  HD  NAG B   2      -2.721  -7.802  29.1760  0.00  0.00     0.000 HD
ATOM     25   C  NAG B   2      -0.902  -7.706  32.7450  0.00  0.00     0.000 C
ATOM     26   O  NAG B   2      -1.589  -8.576  33.6550  0.00  0.00     0.000 O
ATOM     28  HD  NAG B   2      -1.366  -7.947  33.1030  0.00  0.00     0.000 HD
BRANCH 18 30
ATOM     28   N  NAG B   2      -0.042  -6.366  27.7760  0.00  0.00     0.000 N
ATOM     30  HD  NAG B   2       0.052  -5.675  27.2630  0.00  0.00     0.000 HD
ATOM     30   C  NAG B   2      -0.911  -6.540  26.7700  0.00  0.00     0.000 C
ATOM     31   C  NAG B   2      -0.423  -6.077  25.4270  0.00  0.00     0.000 C
ATOM     32   O  NAG B   2      -2.009  -7.025  26.9140  0.00  0.00     0.000 OA
ENDBRANCH 18 30
BRANCH 17 33
ATOM     33  O4  BDP B   3      -1.972  -4.611  30.1300  0.00  0.00     0.000 O
BRANCH 33 37
ATOM     34  C1  BDP B   3      -5.196  -2.579  32.0580  0.00  0.00     0.000 C
ATOM     35  C2  BDP B   3      -5.527  -3.872  31.3220  0.00  0.00     0.000 C
ATOM     36  C3  BDP B   3      -4.308  -4.741  31.0350  0.00  0.00     0.000 C
ATOM     37  C4  BDP B   3      -3.176  -3.867  30.4750  0.00  0.00     0.000 C
ATOM     38  C5  BDP B   3      -2.909  -2.751  31.5040  0.00  0.00     0.000 C
ATOM     39  O5  BDP B   3      -4.066  -1.916  31.4770  0.00  0.00     0.000 O
ATOM     40   O  BDP B   3      -6.498  -4.550  32.1230  0.00  0.00     0.000 O
ATOM     42  HD  BDP B   3      -7.006  -3.981  31.7120  0.00  0.00     0.000 HD
ATOM     42   O  BDP B   3      -4.724  -5.734  30.1000  0.00  0.00     0.000 O
ATOM     44  HD  BDP B   3      -5.232  -5.166  29.6890  0.00  0.00     0.000 HD
BRANCH 38 44
ATOM     44   C  BDP B   3      -1.687  -1.932  31.2250  0.00  0.00     0.000 C
ATOM     45   O  BDP B   3      -1.569  -1.426  30.0870  0.00  0.00     0.000 OA
ATOM     46   O  BDP B   3      -0.829  -1.778  32.1210  0.00  0.00     0.000 OA
ENDBRANCH 38 44
BRANCH 34 47
ATOM     47  O3  NAG B   4      -5.993  -1.487  31.6030  0.00  0.00     0.000 O
BRANCH 47 50
ATOM     48  C1  NAG B   4      -6.364   0.904  34.4830  0.00  0.00     0.000 C
ATOM     49  C2  NAG B   4      -6.300  -0.441  33.7800  0.00  0.00     0.000 C
ATOM     50  C3  NAG B   4      -5.992  -0.226  32.3020  0.00  0.00     0.000 C
ATOM     51  C4  NAG B   4      -6.995   0.715  31.6530  0.00  0.00     0.000 C
ATOM     52  C5  NAG B   4      -7.067   2.022  32.4440  0.00  0.00     0.000 C
ATOM     53  O5  NAG B   4      -7.325   1.755  33.8280  0.00  0.00     0.000 O
ATOM     54   O  NAG B   4      -6.595   0.963  30.3030  0.00  0.00     0.000 O
ATOM     56  HD  NAG B   4      -7.408   1.216  30.4620  0.00  0.00     0.000 HD
ATOM     56   C  NAG B   4      -8.153   2.941  31.8960  0.00  0.00     0.000 C
ATOM     57   O  NAG B   4      -9.419   2.275  31.9880  0.00  0.00     0.000 O
ATOM     59  HD  NAG B   4     -10.232   2.528  32.1460  0.00  0.00     0.000 HD
BRANCH 49 61
ATOM     59   N  NAG B   4      -7.498  -0.975  34.4270  0.00  0.00     0.000 N
ATOM     61  HD  NAG B   4      -6.906  -1.226  33.8480  0.00  0.00     0.000 HD
ATOM     61   O  NAG B   4      -6.701  -3.055  34.8010  0.00  0.00     0.000 OA
ATOM     62   C  NAG B   4      -7.570  -2.207  34.9450  0.00  0.00     0.000 C
ATOM     63   C  NAG B   4      -8.794  -2.500  35.7520  0.00  0.00     0.000 C
ENDBRANCH 49 61
BRANCH 48 64
ATOM     64  O4  BDP B   5      -6.087   1.314  35.8190  0.00  0.00     0.000 O
BRANCH 64 68
ATOM     65  C1  BDP B   5      -2.335   1.105  37.6220  0.00  0.00     0.000 C
ATOM     66  C2  BDP B   5      -3.432   0.267  38.2650  0.00  0.00     0.000 C
ATOM     67  C3  BDP B   5      -4.588   0.098  37.2870  0.00  0.00     0.000 C
ATOM     68  C4  BDP B   5      -5.092   1.463  36.8300  0.00  0.00     0.000 C
ATOM     69  C5  BDP B   5      -3.970   2.337  36.2840  0.00  0.00     0.000 C
ATOM     70  O5  BDP B   5      -2.864   2.373  37.2040  0.00  0.00     0.000 O
ATOM     71   O  BDP B   5      -2.893  -0.999  38.6740  0.00  0.00     0.000 O
ATOM     73  HD  BDP B   5      -2.523  -1.754  38.8820  0.00  0.00     0.000 HD
ATOM     73   O  BDP B   5      -5.664  -0.622  37.9000  0.00  0.00     0.000 O
ATOM     75  HD  BDP B   5      -5.293  -1.377  38.1080  0.00  0.00     0.000 HD
BRANCH 69 75
ATOM     75   C  BDP B   5      -4.509   3.731  36.0880  0.00  0.00     0.000 C
ATOM     76   O  BDP B   5      -4.611   4.177  34.9280  0.00  0.00     0.000 OA
ATOM     77   O  BDP B   5      -4.839   4.396  37.0880  0.00  0.00     0.000 OA
ENDBRANCH 69 75
BRANCH 65 78
ATOM     78  O3  NAG B   6      -1.418   1.968  38.3000  0.00  0.00     0.000 O
BRANCH 78 81
ATOM     79  C1  NAG B   6       1.620   3.897  37.1230  0.00  0.00     0.000 C
ATOM     80  C2  NAG B   6       0.759   2.668  37.4580  0.00  0.00     0.000 C
ATOM     81  C3  NAG B   6      -0.649   3.099  37.8380  0.00  0.00     0.000 C
ATOM     82  C4  NAG B   6      -0.614   4.185  38.9180  0.00  0.00     0.000 C
ATOM     83  C5  NAG B   6       0.262   5.341  38.4480  0.00  0.00     0.000 C
ATOM     84  O5  NAG B   6       1.574   4.825  38.2220  0.00  0.00     0.000 O
BRANCH 80 87
ATOM     85   N  NAG B   6       1.026   1.233  37.4760  0.00  0.00     0.000 N
ATOM     87  HD  NAG B   6       0.743   0.418  37.4000  0.00  0.00     0.000 HD
ATOM     87   C  NAG B   6       0.922   0.438  36.4040  0.00  0.00     0.000 C
ATOM     88   C  NAG B   6       1.274  -0.999  36.6250  0.00  0.00     0.000 C
ATOM     89   O  NAG B   6       0.577   0.845  35.3010  0.00  0.00     0.000 OA
ENDBRANCH 80 87
ATOM     90   O  NAG B   6      -0.327   7.641  38.9060  0.00  0.00     0.000 O
ATOM     92  HD  NAG B   6       0.068   7.098  38.3590  0.00  0.00     0.000 HD
ATOM     92   O  NAG B   6      -0.327   7.641  38.9060  0.00  0.00     0.000 O
ATOM     94  HD  NAG B   6       0.068   7.098  38.3590  0.00  0.00     0.000 HD
ENDBRANCH 78 81
ENDBRANCH 65 78
ENDBRANCH 64 68
ENDBRANCH 48 64
ENDBRANCH 47 50
ENDBRANCH 34 47
ENDBRANCH 33 37
ENDBRANCH 17 33
ENDBRANCH 16 19
ENDBRANCH 1 16
TORSDOF 16
ENDMDL
MODEL 90
REMARK VINA RESULT:      -8.5     10.158     19.974
ROOT
ATOM      1  C1  BDP B   1       2.089  -8.855  29.7100  0.00  0.00     0.000 C
ATOM      2  C2  BDP B   1       3.221  -8.660  28.7170  0.00  0.00     0.000 C
ATOM      3  C3  BDP B   1       4.147  -9.856  28.6680  0.00  0.00     0.000 C
ATOM      4  C4  BDP B   1       3.580 -11.109  29.3250  0.00  0.00     0.000 C
ATOM      5  C5  BDP B   1       2.964 -10.831  30.6930  0.00  0.00     0.000 C
ATOM      6  O5  BDP B   1       2.654  -9.439  30.8740  0.00  0.00     0.000 O
ATOM      7   O  BDP B   1       2.687  -8.411  27.4130  0.00  0.00     0.000 O
ATOM      9  HD  BDP B   1       2.124  -8.018  26.8840  0.00  0.00     0.000 HD
ATOM      9   O  BDP B   1       5.387  -9.544  29.3220  0.00  0.00     0.000 O
ATOM     11  HD  BDP B   1       4.824  -9.151  28.7940  0.00  0.00     0.000 HD
ATOM     11   O  BDP B   1       2.606 -11.724  28.4720  0.00  0.00     0.000 O
ATOM     13  HD  BDP B   1       2.043 -11.331  27.9440  0.00  0.00     0.000 HD
ENDROOT
BRANCH 5 13
ATOM     13   C  BDP B   1       3.953 -11.263  31.7180  0.00  0.00     0.000 C
ATOM     14   O  BDP B   1       3.554 -11.427  32.8900  0.00  0.00     0.000 OA
ATOM     15   O  BDP B   1       5.135 -11.473  31.3720  0.00  0.00     0.000 OA
ENDBRANCH 5 13
BRANCH 1 16
ATOM     16  O3  NAG B   2       0.675  -8.838  29.5190  0.00  0.00     0.000 O
BRANCH 16 19
ATOM     17  C1  NAG B   2      -1.424  -5.868  29.6800  0.00  0.00     0.000 C
ATOM     18  C2  NAG B   2      -0.359  -6.703  28.9670  0.00  0.00     0.000 C
ATOM     19  C3  NAG B   2      -0.565  -8.184  29.2470  0.00  0.00     0.000 C
ATOM     20  C4  NAG B   2      -1.536  -8.413  30.4080  0.00  0.00     0.000 C
ATOM     21  C5  NAG B   2      -1.456  -7.376  31.5380  0.00  0.00     0.000 C
ATOM     22  O5  NAG B   2      -1.172  -6.051  31.0750  0.00  0.00     0.000 O
ATOM     23   O  NAG B   2      -2.867  -8.460  29.8860  0.00  0.00     0.000 O
ATOM     25  HD  NAG B   2      -2.745  -7.810  29.3260  0.00  0.00     0.000 HD
ATOM     25   C  NAG B   2      -0.388  -7.776  32.5650  0.00  0.00     0.000 C
ATOM     26   O  NAG B   2      -0.907  -8.687  33.5450  0.00  0.00     0.000 O
ATOM     28  HD  NAG B   2      -0.785  -8.037  32.9850  0.00  0.00     0.000 HD
BRANCH 18 30
ATOM     28   N  NAG B   2      -1.333  -7.010  27.9200  0.00  0.00     0.000 N
ATOM     30  HD  NAG B   2      -1.574  -7.637  27.3740  0.00  0.00     0.000 HD
ATOM     30   C  NAG B   2      -1.359  -6.443  26.7060  0.00  0.00     0.000 C
ATOM     31   C  NAG B   2      -2.466  -6.920  25.8090  0.00  0.00     0.000 C
ATOM     32   O  NAG B   2      -0.557  -5.615  26.3400  0.00  0.00     0.000 OA
ENDBRANCH 18 30
BRANCH 17 33
ATOM     33  O4  BDP B   3      -1.909  -4.633  30.2490  0.00  0.00     0.000 O
BRANCH 33 37
ATOM     34  C1  BDP B   3      -5.057  -2.291  31.9360  0.00  0.00     0.000 C
ATOM     35  C2  BDP B   3      -5.447  -3.602  31.2630  0.00  0.00     0.000 C
ATOM     36  C3  BDP B   3      -4.278  -4.561  31.0720  0.00  0.00     0.000 C
ATOM     37  C4  BDP B   3      -3.073  -3.794  30.5070  0.00  0.00     0.000 C
ATOM     38  C5  BDP B   3      -2.769  -2.639  31.4800  0.00  0.00     0.000 C
ATOM     39  O5  BDP B   3      -3.868  -1.736  31.3620  0.00  0.00     0.000 O
ATOM     40   O  BDP B   3      -6.487  -4.168  32.0640  0.00  0.00     0.000 O
ATOM     42  HD  BDP B   3      -6.942  -3.594  31.6020  0.00  0.00     0.000 HD
ATOM     42   O  BDP B   3      -4.726  -5.580  30.1790  0.00  0.00     0.000 O
ATOM     44  HD  BDP B   3      -5.181  -5.005  29.7180  0.00  0.00     0.000 HD
BRANCH 38 44
ATOM     44   C  BDP B   3      -1.487  -1.917  31.2020  0.00  0.00     0.000 C
ATOM     45   O  BDP B   3      -0.416  -2.493  31.4930  0.00  0.00     0.000 OA
ATOM     46   O  BDP B   3      -1.519  -0.775  30.6950  0.00  0.00     0.000 OA
ENDBRANCH 38 44
BRANCH 34 47
ATOM     47  O3  NAG B   4      -5.766  -1.179  31.3910  0.00  0.00     0.000 O
BRANCH 47 50
ATOM     48  C1  NAG B   4      -7.954   0.826  33.7020  0.00  0.00     0.000 C
ATOM     49  C2  NAG B   4      -7.512  -0.376  32.8850  0.00  0.00     0.000 C
ATOM     50  C3  NAG B   4      -6.171  -0.075  32.2260  0.00  0.00     0.000 C
ATOM     51  C4  NAG B   4      -6.228   1.196  31.3940  0.00  0.00     0.000 C
ATOM     52  C5  NAG B   4      -6.745   2.353  32.2490  0.00  0.00     0.000 C
ATOM     53  O5  NAG B   4      -7.989   2.001  32.8680  0.00  0.00     0.000 O
ATOM     54   O  NAG B   4      -4.920   1.484  30.8920  0.00  0.00     0.000 O
ATOM     56  HD  NAG B   4      -5.538   1.944  30.4970  0.00  0.00     0.000 HD
ATOM     56   C  NAG B   4      -6.934   3.615  31.4160  0.00  0.00     0.000 C
ATOM     57   O  NAG B   4      -7.884   3.351  30.3760  0.00  0.00     0.000 O
ATOM     59  HD  NAG B   4      -8.502   3.812  29.9800  0.00  0.00     0.000 HD
BRANCH 49 61
ATOM     59   N  NAG B   4      -8.629  -0.657  31.9820  0.00  0.00     0.000 N
ATOM     61  HD  NAG B   4      -7.880  -1.020  32.2220  0.00  0.00     0.000 HD
ATOM     61   O  NAG B   4      -8.806  -2.860  32.4470  0.00  0.00     0.000 OA
ATOM     62   C  NAG B   4      -9.225  -1.853  31.8960  0.00  0.00     0.000 C
ATOM     63   C  NAG B   4     -10.479  -1.894  31.0820  0.00  0.00     0.000 C
ENDBRANCH 49 61
BRANCH 48 64
ATOM     64  O4  BDP B   5      -8.750   0.961  34.8750  0.00  0.00     0.000 O
BRANCH 64 68
ATOM     65  C1  BDP B   5     -10.478   0.327  38.6140  0.00  0.00     0.000 C
ATOM     66  C2  BDP B   5      -9.749   1.651  38.4330  0.00  0.00     0.000 C
ATOM     67  C3  BDP B   5      -9.555   1.930  36.9480  0.00  0.00     0.000 C
ATOM     68  C4  BDP B   5      -8.822   0.768  36.2870  0.00  0.00     0.000 C
ATOM     69  C5  BDP B   5      -9.499  -0.569  36.5610  0.00  0.00     0.000 C
ATOM     70  O5  BDP B   5      -9.750  -0.730  37.9680  0.00  0.00     0.000 O
ATOM     71   O  BDP B   5     -10.487   2.700  39.0780  0.00  0.00     0.000 O
ATOM     73  HD  BDP B   5     -10.981   3.297  39.4650  0.00  0.00     0.000 HD
ATOM     73   O  BDP B   5      -8.803   3.134  36.7560  0.00  0.00     0.000 O
ATOM     75  HD  BDP B   5      -9.297   3.731  37.1430  0.00  0.00     0.000 HD
BRANCH 69 75
ATOM     75   C  BDP B   5      -8.585  -1.669  36.0840  0.00  0.00     0.000 C
ATOM     76   O  BDP B   5      -9.062  -2.583  35.3820  0.00  0.00     0.000 OA
ATOM     77   O  BDP B   5      -7.381  -1.632  36.3990  0.00  0.00     0.000 OA
ENDBRANCH 69 75
BRANCH 65 78
ATOM     78  O3  NAG B   6     -10.348  -0.569  39.7220  0.00  0.00     0.000 O
BRANCH 78 81
ATOM     79  C1  NAG B   6     -12.379  -1.899  42.6270  0.00  0.00     0.000 C
ATOM     80  C2  NAG B   6     -11.469  -0.930  41.8550  0.00  0.00     0.000 C
ATOM     81  C3  NAG B   6     -11.320  -1.384  40.4120  0.00  0.00     0.000 C
ATOM     82  C4  NAG B   6     -10.908  -2.859  40.3440  0.00  0.00     0.000 C
ATOM     83  C5  NAG B   6     -11.901  -3.699  41.1390  0.00  0.00     0.000 C
ATOM     84  O5  NAG B   6     -11.873  -3.239  42.4900  0.00  0.00     0.000 O
BRANCH 80 87
ATOM     85   N  NAG B   6     -10.856   0.268  42.4220  0.00  0.00     0.000 N
ATOM     87  HD  NAG B   6     -10.428   1.013  42.3130  0.00  0.00     0.000 HD
ATOM     87   C  NAG B   6     -11.301   1.512  42.2060  0.00  0.00     0.000 C
ATOM     88   C  NAG B   6     -10.554   2.600  42.9080  0.00  0.00     0.000 C
ATOM     89   O  NAG B   6     -12.267   1.762  41.4940  0.00  0.00     0.000 OA
ENDBRANCH 80 87
ATOM     90   O  NAG B   6     -12.614  -5.878  40.3700  0.00  0.00     0.000 O
ATOM     92  HD  NAG B   6     -12.833  -5.168  40.8150  0.00  0.00     0.000 HD
ATOM     92   O  NAG B   6     -12.614  -5.878  40.3700  0.00  0.00     0.000 O
ATOM     94  HD  NAG B   6     -12.833  -5.168  40.8150  0.00  0.00     0.000 HD
ENDBRANCH 78 81
ENDBRANCH 65 78
ENDBRANCH 64 68
ENDBRANCH 48 64
ENDBRANCH 47 50
ENDBRANCH 34 47
ENDBRANCH 33 37
ENDBRANCH 17 33
ENDBRANCH 16 19
ENDBRANCH 1 16
TORSDOF 16
ENDMDL
MODEL 91
REMARK VINA RESULT:      -8.4      8.590     16.657
ROOT
ATOM      1  C1  BDP B   1       1.919  -8.942  31.4510  0.00  0.00     0.000 C
ATOM      2  C2  BDP B   1       3.063  -8.909  30.4530  0.00  0.00     0.000 C
ATOM      3  C3  BDP B   1       3.616 -10.291  30.1750  0.00  0.00     0.000 C
ATOM      4  C4  BDP B   1       2.717 -11.427  30.6490  0.00  0.00     0.000 C
ATOM      5  C5  BDP B   1       2.199 -11.217  32.0690  0.00  0.00     0.000 C
ATOM      6  O5  BDP B   1       2.293  -9.843  32.4820  0.00  0.00     0.000 O
ATOM      7   O  BDP B   1       2.625  -8.311  29.2290  0.00  0.00     0.000 O
ATOM      9  HD  BDP B   1       2.196  -7.696  28.7950  0.00  0.00     0.000 HD
ATOM      9   O  BDP B   1       4.891 -10.447  30.8170  0.00  0.00     0.000 O
ATOM     11  HD  BDP B   1       4.463  -9.832  30.3820  0.00  0.00     0.000 HD
ATOM     11   O  BDP B   1       1.612 -11.598  29.7520  0.00  0.00     0.000 O
ATOM     13  HD  BDP B   1       1.184 -10.983  29.3180  0.00  0.00     0.000 HD
ENDROOT
BRANCH 5 13
ATOM     13   C  BDP B   1       3.024 -12.070  32.9690  0.00  0.00     0.000 C
ATOM     14   O  BDP B   1       2.451 -12.972  33.6140  0.00  0.00     0.000 OA
ATOM     15   O  BDP B   1       4.257 -11.875  33.0290  0.00  0.00     0.000 OA
ENDBRANCH 5 13
BRANCH 1 16
ATOM     16  O3  NAG B   2       0.568  -8.502  31.3260  0.00  0.00     0.000 O
BRANCH 16 19
ATOM     17  C1  NAG B   2      -2.283  -6.285  30.8680  0.00  0.00     0.000 C
ATOM     18  C2  NAG B   2      -0.799  -6.595  30.6710  0.00  0.00     0.000 C
ATOM     19  C3  NAG B   2      -0.574  -8.096  30.5700  0.00  0.00     0.000 C
ATOM     20  C4  NAG B   2      -1.804  -8.885  31.0280  0.00  0.00     0.000 C
ATOM     21  C5  NAG B   2      -2.587  -8.257  32.1890  0.00  0.00     0.000 C
ATOM     22  O5  NAG B   2      -2.612  -6.825  32.1490  0.00  0.00     0.000 O
ATOM     23   O  NAG B   2      -2.670  -9.070  29.9030  0.00  0.00     0.000 O
ATOM     25  HD  NAG B   2      -2.553  -8.270  29.5930  0.00  0.00     0.000 HD
ATOM     25   C  NAG B   2      -2.003  -8.699  33.5380  0.00  0.00     0.000 C
ATOM     26   O  NAG B   2      -2.541  -9.960  33.9620  0.00  0.00     0.000 O
ATOM     28  HD  NAG B   2      -2.423  -9.160  33.6510  0.00  0.00     0.000 HD
BRANCH 18 30
ATOM     28   N  NAG B   2      -0.334  -5.766  29.5590  0.00  0.00     0.000 N
ATOM     30  HD  NAG B   2      -0.369  -4.959  29.2470  0.00  0.00     0.000 HD
ATOM     30   C  NAG B   2      -0.744  -5.886  28.2880  0.00  0.00     0.000 C
ATOM     31   C  NAG B   2      -0.109  -4.923  27.3260  0.00  0.00     0.000 C
ATOM     32   O  NAG B   2      -1.566  -6.696  27.9270  0.00  0.00     0.000 OA
ENDBRANCH 18 30
BRANCH 17 33
ATOM     33  O4  BDP B   3      -3.363  -5.428  31.3000  0.00  0.00     0.000 O
BRANCH 33 37
ATOM     34  C1  BDP B   3      -3.633  -1.894  33.6830  0.00  0.00     0.000 C
ATOM     35  C2  BDP B   3      -4.721  -2.945  33.8690  0.00  0.00     0.000 C
ATOM     36  C3  BDP B   3      -4.343  -4.318  33.3260  0.00  0.00     0.000 C
ATOM     37  C4  BDP B   3      -3.725  -4.164  31.9280  0.00  0.00     0.000 C
ATOM     38  C5  BDP B   3      -2.528  -3.203  32.0610  0.00  0.00     0.000 C
ATOM     39  O5  BDP B   3      -3.090  -1.925  32.3580  0.00  0.00     0.000 O
ATOM     40   O  BDP B   3      -5.011  -2.978  35.2680  0.00  0.00     0.000 O
ATOM     42  HD  BDP B   3      -5.475  -2.287  35.0300  0.00  0.00     0.000 HD
ATOM     42   O  BDP B   3      -5.542  -5.091  33.2940  0.00  0.00     0.000 O
ATOM     44  HD  BDP B   3      -6.007  -4.400  33.0560  0.00  0.00     0.000 HD
BRANCH 38 44
ATOM     44   C  BDP B   3      -1.672  -3.107  30.8360  0.00  0.00     0.000 C
ATOM     45   O  BDP B   3      -0.431  -3.094  30.9900  0.00  0.00     0.000 OA
ATOM     46   O  BDP B   3      -2.210  -3.043  29.7100  0.00  0.00     0.000 OA
ENDBRANCH 38 44
BRANCH 34 47
ATOM     47  O3  NAG B   4      -4.176  -0.614  33.3660  0.00  0.00     0.000 O
BRANCH 47 50
ATOM     48  C1  NAG B   4      -2.019   2.436  33.8000  0.00  0.00     0.000 C
ATOM     49  C2  NAG B   4      -2.861   1.246  34.2250  0.00  0.00     0.000 C
ATOM     50  C3  NAG B   4      -3.319   0.483  32.9870  0.00  0.00     0.000 C
ATOM     51  C4  NAG B   4      -4.054   1.388  32.0120  0.00  0.00     0.000 C
ATOM     52  C5  NAG B   4      -3.187   2.602  31.6770  0.00  0.00     0.000 C
ATOM     53  O5  NAG B   4      -2.760   3.258  32.8780  0.00  0.00     0.000 O
ATOM     54   O  NAG B   4      -4.363   0.646  30.8290  0.00  0.00     0.000 O
ATOM     56  HD  NAG B   4      -4.798   1.394  30.8770  0.00  0.00     0.000 HD
ATOM     56   C  NAG B   4      -3.941   3.595  30.8000  0.00  0.00     0.000 C
ATOM     57   O  NAG B   4      -5.111   4.042  31.4980  0.00  0.00     0.000 O
ATOM     59  HD  NAG B   4      -5.546   4.790  31.5450  0.00  0.00     0.000 HD
BRANCH 49 61
ATOM     59   N  NAG B   4      -1.998   0.820  35.3270  0.00  0.00     0.000 N
ATOM     61  HD  NAG B   4      -2.705   1.304  35.2060  0.00  0.00     0.000 HD
ATOM     61   O  NAG B   4      -3.644   0.394  36.8130  0.00  0.00     0.000 OA
ATOM     62   C  NAG B   4      -2.464   0.363  36.4950  0.00  0.00     0.000 C
ATOM     63   C  NAG B   4      -1.442  -0.225  37.4150  0.00  0.00     0.000 C
ENDBRANCH 49 61
BRANCH 48 64
ATOM     64  O4  BDP B   5      -0.950   3.140  34.4250  0.00  0.00     0.000 O
BRANCH 64 68
ATOM     65  C1  BDP B   5       2.110   5.813  35.3540  0.00  0.00     0.000 C
ATOM     66  C2  BDP B   5       1.133   6.266  34.2770  0.00  0.00     0.000 C
ATOM     67  C3  BDP B   5      -0.133   5.423  34.3480  0.00  0.00     0.000 C
ATOM     68  C4  BDP B   5       0.214   3.943  34.2320  0.00  0.00     0.000 C
ATOM     69  C5  BDP B   5       1.271   3.519  35.2440  0.00  0.00     0.000 C
ATOM     70  O5  BDP B   5       2.397   4.414  35.2030  0.00  0.00     0.000 O
ATOM     71   O  BDP B   5       0.850   7.664  34.4400  0.00  0.00     0.000 O
ATOM     73  HD  BDP B   5       0.699   8.502  34.5950  0.00  0.00     0.000 HD
ATOM     73   O  BDP B   5      -1.035   5.780  33.2930  0.00  0.00     0.000 O
ATOM     75  HD  BDP B   5      -1.186   6.619  33.4490  0.00  0.00     0.000 HD
BRANCH 69 75
ATOM     75   C  BDP B   5       1.724   2.123  34.9000  0.00  0.00     0.000 C
ATOM     76   O  BDP B   5       2.723   1.981  34.1660  0.00  0.00     0.000 OA
ATOM     77   O  BDP B   5       1.093   1.154  35.3590  0.00  0.00     0.000 OA
ENDBRANCH 69 75
BRANCH 65 78
ATOM     78  O3  NAG B   6       3.537   5.880  35.2870  0.00  0.00     0.000 O
BRANCH 78 81
ATOM     79  C1  NAG B   6       6.302   7.654  37.1690  0.00  0.00     0.000 C
ATOM     80  C2  NAG B   6       5.133   7.488  36.1860  0.00  0.00     0.000 C
ATOM     81  C3  NAG B   6       4.534   6.096  36.3110  0.00  0.00     0.000 C
ATOM     82  C4  NAG B   6       5.623   5.023  36.2160  0.00  0.00     0.000 C
ATOM     83  C5  NAG B   6       6.704   5.306  37.2520  0.00  0.00     0.000 C
ATOM     84  O5  NAG B   6       7.252   6.593  36.9650  0.00  0.00     0.000 O
BRANCH 80 87
ATOM     85   N  NAG B   6       4.230   8.607  36.4420  0.00  0.00     0.000 N
ATOM     87  HD  NAG B   6       4.034   9.446  36.3540  0.00  0.00     0.000 HD
ATOM     87   C  NAG B   6       3.547   9.252  35.4890  0.00  0.00     0.000 C
ATOM     88   C  NAG B   6       2.648  10.349  35.9640  0.00  0.00     0.000 C
ATOM     89   O  NAG B   6       3.629   8.967  34.3000  0.00  0.00     0.000 OA
ENDBRANCH 80 87
ATOM     90   O  NAG B   6       7.779   3.519  38.4770  0.00  0.00     0.000 O
ATOM     92  HD  NAG B   6       7.525   4.347  38.4920  0.00  0.00     0.000 HD
ATOM     92   O  NAG B   6       7.779   3.519  38.4770  0.00  0.00     0.000 O
ATOM     94  HD  NAG B   6       7.525   4.347  38.4920  0.00  0.00     0.000 HD
ENDBRANCH 78 81
ENDBRANCH 65 78
ENDBRANCH 64 68
ENDBRANCH 48 64
ENDBRANCH 47 50
ENDBRANCH 34 47
ENDBRANCH 33 37
ENDBRANCH 17 33
ENDBRANCH 16 19
ENDBRANCH 1 16
TORSDOF 16
ENDMDL
MODEL 92
REMARK VINA RESULT:      -8.4     27.402     30.770
ROOT
ATOM      1  C1  BDP B   1      -5.511 -35.609  30.4860  0.00  0.00     0.000 C
ATOM      2  C2  BDP B   1      -5.906 -34.494  29.5350  0.00  0.00     0.000 C
ATOM      3  C3  BDP B   1      -6.279 -35.019  28.1650  0.00  0.00     0.000 C
ATOM      4  C4  BDP B   1      -6.525 -36.523  28.1220  0.00  0.00     0.000 C
ATOM      5  C5  BDP B   1      -5.441 -37.319  28.8410  0.00  0.00     0.000 C
ATOM      6  O5  BDP B   1      -4.687 -36.506  29.7550  0.00  0.00     0.000 O
ATOM      7   O  BDP B   1      -7.003 -33.754  30.0820  0.00  0.00     0.000 O
ATOM      9  HD  BDP B   1      -7.400 -33.362  30.7440  0.00  0.00     0.000 HD
ATOM      9   O  BDP B   1      -5.235 -34.720  27.2250  0.00  0.00     0.000 O
ATOM     11  HD  BDP B   1      -5.632 -34.329  27.8880  0.00  0.00     0.000 HD
ATOM     11   O  BDP B   1      -7.807 -36.835  28.6820  0.00  0.00     0.000 O
ATOM     13  HD  BDP B   1      -8.204 -36.444  29.3440  0.00  0.00     0.000 HD
ENDROOT
BRANCH 5 13
ATOM     13   C  BDP B   1      -4.535 -37.872  27.7970  0.00  0.00     0.000 C
ATOM     14   O  BDP B   1      -4.768 -37.588  26.6030  0.00  0.00     0.000 OA
ATOM     15   O  BDP B   1      -3.564 -38.576  28.1460  0.00  0.00     0.000 OA
ENDBRANCH 5 13
BRANCH 1 16
ATOM     16  O3  NAG B   2      -6.060 -35.992  31.7460  0.00  0.00     0.000 O
BRANCH 16 19
ATOM     17  C1  NAG B   2      -6.688 -37.998  34.7180  0.00  0.00     0.000 C
ATOM     18  C2  NAG B   2      -6.579 -36.633  34.0380  0.00  0.00     0.000 C
ATOM     19  C3  NAG B   2      -6.961 -36.735  32.5690  0.00  0.00     0.000 C
ATOM     20  C4  NAG B   2      -7.012 -38.190  32.0960  0.00  0.00     0.000 C
ATOM     21  C5  NAG B   2      -5.968 -39.119  32.7300  0.00  0.00     0.000 C
ATOM     22  O5  NAG B   2      -5.685 -38.807  34.0990  0.00  0.00     0.000 O
ATOM     23   O  NAG B   2      -8.327 -38.701  32.3390  0.00  0.00     0.000 O
ATOM     25  HD  NAG B   2      -8.408 -38.319  33.1120  0.00  0.00     0.000 HD
ATOM     25   C  NAG B   2      -4.654 -39.078  31.9370  0.00  0.00     0.000 C
ATOM     26   O  NAG B   2      -4.674 -39.988  30.8280  0.00  0.00     0.000 O
ATOM     28  HD  NAG B   2      -4.755 -39.606  31.6010  0.00  0.00     0.000 HD
BRANCH 18 30
ATOM     28   N  NAG B   2      -7.313 -35.804  34.9930  0.00  0.00     0.000 N
ATOM     30  HD  NAG B   2      -7.499 -35.735  35.8360  0.00  0.00     0.000 HD
ATOM     30   C  NAG B   2      -8.649 -35.714  35.0640  0.00  0.00     0.000 C
ATOM     31   C  NAG B   2      -9.164 -34.785  36.1270  0.00  0.00     0.000 C
ATOM     32   O  NAG B   2      -9.397 -36.331  34.3420  0.00  0.00     0.000 OA
ENDBRANCH 18 30
BRANCH 17 33
ATOM     33  O4  BDP B   3      -6.352 -38.934  35.7650  0.00  0.00     0.000 O
BRANCH 33 37
ATOM     34  C1  BDP B   3      -3.275 -39.002  38.7270  0.00  0.00     0.000 C
ATOM     35  C2  BDP B   3      -3.218 -40.067  37.6380  0.00  0.00     0.000 C
ATOM     36  C3  BDP B   3      -4.064 -39.735  36.4140  0.00  0.00     0.000 C
ATOM     37  C4  BDP B   3      -5.447 -39.243  36.8660  0.00  0.00     0.000 C
ATOM     38  C5  BDP B   3      -5.222 -38.041  37.8030  0.00  0.00     0.000 C
ATOM     39  O5  BDP B   3      -4.619 -38.577  38.9810  0.00  0.00     0.000 O
ATOM     40   O  BDP B   3      -1.836 -40.231  37.3130  0.00  0.00     0.000 O
ATOM     42  HD  BDP B   3      -1.885 -40.717  38.0280  0.00  0.00     0.000 HD
ATOM     42   O  BDP B   3      -4.152 -40.930  35.6400  0.00  0.00     0.000 O
ATOM     44  HD  BDP B   3      -4.201 -41.415  36.3560  0.00  0.00     0.000 HD
BRANCH 38 44
ATOM     44   C  BDP B   3      -6.469 -37.296  38.1660  0.00  0.00     0.000 C
ATOM     45   O  BDP B   3      -7.384 -37.930  38.7360  0.00  0.00     0.000 OA
ATOM     46   O  BDP B   3      -6.564 -36.080  37.8930  0.00  0.00     0.000 OA
ENDBRANCH 38 44
BRANCH 34 47
ATOM     47  O3  NAG B   4      -3.273 -39.574  40.0340  0.00  0.00     0.000 O
BRANCH 47 50
ATOM     48  C1  NAG B   4      -0.628 -38.587  42.5190  0.00  0.00     0.000 C
ATOM     49  C2  NAG B   4      -1.215 -39.276  41.3000  0.00  0.00     0.000 C
ATOM     50  C3  NAG B   4      -2.678 -38.877  41.1480  0.00  0.00     0.000 C
ATOM     51  C4  NAG B   4      -3.472 -39.170  42.4110  0.00  0.00     0.000 C
ATOM     52  C5  NAG B   4      -2.795 -38.510  43.6140  0.00  0.00     0.000 C
ATOM     53  O5  NAG B   4      -1.417 -38.895  43.6850  0.00  0.00     0.000 O
ATOM     54   O  NAG B   4      -4.805 -38.678  42.2490  0.00  0.00     0.000 O
ATOM     56  HD  NAG B   4      -4.726 -39.212  42.9260  0.00  0.00     0.000 HD
ATOM     56   C  NAG B   4      -3.493 -38.886  44.9160  0.00  0.00     0.000 C
ATOM     57   O  NAG B   4      -3.441 -40.309  45.0810  0.00  0.00     0.000 O
ATOM     59  HD  NAG B   4      -3.363 -40.843  45.7580  0.00  0.00     0.000 HD
BRANCH 49 61
ATOM     59   N  NAG B   4      -0.768 -40.645  41.5610  0.00  0.00     0.000 N
ATOM     61  HD  NAG B   4      -1.187 -40.205  40.9440  0.00  0.00     0.000 HD
ATOM     61   O  NAG B   4      -0.021 -41.090  39.4760  0.00  0.00     0.000 OA
ATOM     62   C  NAG B   4      -0.146 -41.404  40.6500  0.00  0.00     0.000 C
ATOM     63   C  NAG B   4       0.425 -42.689  41.1610  0.00  0.00     0.000 C
ENDBRANCH 49 61
BRANCH 48 64
ATOM     64  O4  BDP B   5       0.688 -38.150  42.8460  0.00  0.00     0.000 O
BRANCH 64 68
ATOM     65  C1  BDP B   5       4.022 -40.635  43.1150  0.00  0.00     0.000 C
ATOM     66  C2  BDP B   5       3.483 -40.098  44.4340  0.00  0.00     0.000 C
ATOM     67  C3  BDP B   5       2.062 -39.586  44.2360  0.00  0.00     0.000 C
ATOM     68  C4  BDP B   5       2.031 -38.541  43.1260  0.00  0.00     0.000 C
ATOM     69  C5  BDP B   5       2.668 -39.049  41.8390  0.00  0.00     0.000 C
ATOM     70  O5  BDP B   5       3.963 -39.616  42.1050  0.00  0.00     0.000 O
ATOM     71   O  BDP B   5       3.542 -41.127  45.4340  0.00  0.00     0.000 O
ATOM     73  HD  BDP B   5       3.581 -41.787  45.9920  0.00  0.00     0.000 HD
ATOM     73   O  BDP B   5       1.564 -39.005  45.4460  0.00  0.00     0.000 O
ATOM     75  HD  BDP B   5       1.603 -39.665  46.0050  0.00  0.00     0.000 HD
BRANCH 69 75
ATOM     75   C  BDP B   5       2.812 -37.887  40.8900  0.00  0.00     0.000 C
ATOM     76   O  BDP B   5       3.708 -37.046  41.1040  0.00  0.00     0.000 OA
ATOM     77   O  BDP B   5       2.037 -37.801  39.9200  0.00  0.00     0.000 OA
ENDBRANCH 69 75
BRANCH 65 78
ATOM     78  O3  NAG B   6       5.391 -40.649  42.6990  0.00  0.00     0.000 O
BRANCH 78 81
ATOM     79  C1  NAG B   6       7.478 -42.413  40.0790  0.00  0.00     0.000 C
ATOM     80  C2  NAG B   6       6.699 -42.235  41.3920  0.00  0.00     0.000 C
ATOM     81  C3  NAG B   6       5.997 -40.887  41.4100  0.00  0.00     0.000 C
ATOM     82  C4  NAG B   6       6.976 -39.758  41.0760  0.00  0.00     0.000 C
ATOM     83  C5  NAG B   6       7.663 -40.059  39.7490  0.00  0.00     0.000 C
ATOM     84  O5  NAG B   6       8.364 -41.295  39.8960  0.00  0.00     0.000 O
BRANCH 80 87
ATOM     85   N  NAG B   6       5.781 -43.363  41.5280  0.00  0.00     0.000 N
ATOM     87  HD  NAG B   6       5.646 -44.204  41.6820  0.00  0.00     0.000 HD
ATOM     87   C  NAG B   6       5.568 -44.022  42.6740  0.00  0.00     0.000 C
ATOM     88   C  NAG B   6       4.561 -45.126  42.6110  0.00  0.00     0.000 C
ATOM     89   O  NAG B   6       6.141 -43.744  43.7210  0.00  0.00     0.000 OA
ENDBRANCH 80 87
ATOM     90   O  NAG B   6       8.135 -38.313  38.1440  0.00  0.00     0.000 O
ATOM     92  HD  NAG B   6       7.950 -39.151  38.2570  0.00  0.00     0.000 HD
ATOM     92   O  NAG B   6       8.135 -38.313  38.1440  0.00  0.00     0.000 O
ATOM     94  HD  NAG B   6       7.950 -39.151  38.2570  0.00  0.00     0.000 HD
ENDBRANCH 78 81
ENDBRANCH 65 78
ENDBRANCH 64 68
ENDBRANCH 48 64
ENDBRANCH 47 50
ENDBRANCH 34 47
ENDBRANCH 33 37
ENDBRANCH 17 33
ENDBRANCH 16 19
ENDBRANCH 1 16
TORSDOF 16
ENDMDL
MODEL 93
REMARK VINA RESULT:      -8.3     30.754     35.737
ROOT
ATOM      1  C1  BDP B   1       0.013  18.904  17.8390  0.00  0.00     0.000 C
ATOM      2  C2  BDP B   1       1.231  19.800  17.7000  0.00  0.00     0.000 C
ATOM      3  C3  BDP B   1       2.067  19.826  18.9620  0.00  0.00     0.000 C
ATOM      4  C4  BDP B   1       1.734  18.715  19.9510  0.00  0.00     0.000 C
ATOM      5  C5  BDP B   1       0.233  18.557  20.1780  0.00  0.00     0.000 C
ATOM      6  O5  BDP B   1      -0.540  19.154  19.1230  0.00  0.00     0.000 O
ATOM      7   O  BDP B   1       2.035  19.360  16.6000  0.00  0.00     0.000 O
ATOM      9  HD  BDP B   1       2.119  19.077  15.7850  0.00  0.00     0.000 HD
ATOM      9   O  BDP B   1       1.891  21.080  19.6390  0.00  0.00     0.000 O
ATOM     11  HD  BDP B   1       1.975  20.798  18.8250  0.00  0.00     0.000 HD
ATOM     11   O  BDP B   1       2.290  17.470  19.5100  0.00  0.00     0.000 O
ATOM     13  HD  BDP B   1       2.374  17.188  18.6960  0.00  0.00     0.000 HD
ENDROOT
BRANCH 5 13
ATOM     13   C  BDP B   1      -0.089  19.217  21.4730  0.00  0.00     0.000 C
ATOM     14   O  BDP B   1      -0.386  20.430  21.4580  0.00  0.00     0.000 OA
ATOM     15   O  BDP B   1      -0.078  18.537  22.5210  0.00  0.00     0.000 OA
ENDBRANCH 5 13
BRANCH 1 16
ATOM     16  O3  NAG B   2      -0.390  17.763  17.0850  0.00  0.00     0.000 O
BRANCH 16 19
ATOM     17  C1  NAG B   2      -1.504  15.799  14.2290  0.00  0.00     0.000 C
ATOM     18  C2  NAG B   2      -0.807  17.035  14.7970  0.00  0.00     0.000 C
ATOM     19  C3  NAG B   2      -0.163  16.717  16.1380  0.00  0.00     0.000 C
ATOM     20  C4  NAG B   2      -0.664  15.387  16.7080  0.00  0.00     0.000 C
ATOM     21  C5  NAG B   2      -2.138  15.069  16.4180  0.00  0.00     0.000 C
ATOM     22  O5  NAG B   2      -2.577  15.524  15.1330  0.00  0.00     0.000 O
ATOM     23   O  NAG B   2       0.167  14.336  16.2050  0.00  0.00     0.000 O
ATOM     25  HD  NAG B   2       0.219  14.664  15.4060  0.00  0.00     0.000 HD
ATOM     25   C  NAG B   2      -3.045  15.684  17.4920  0.00  0.00     0.000 C
ATOM     26   O  NAG B   2      -3.168  14.830  18.6380  0.00  0.00     0.000 O
ATOM     28  HD  NAG B   2      -3.116  15.158  17.8380  0.00  0.00     0.000 HD
BRANCH 18 30
ATOM     28   N  NAG B   2      -0.080  16.508  13.6430  0.00  0.00     0.000 N
ATOM     30  HD  NAG B   2       0.332  15.801  13.3610  0.00  0.00     0.000 HD
ATOM     30   C  NAG B   2       1.126  16.930  13.2380  0.00  0.00     0.000 C
ATOM     31   C  NAG B   2       1.660  16.237  12.0160  0.00  0.00     0.000 C
ATOM     32   O  NAG B   2       1.754  17.795  13.8030  0.00  0.00     0.000 OA
ENDBRANCH 18 30
BRANCH 17 33
ATOM     33  O4  BDP B   3      -2.478  15.162  13.3740  0.00  0.00     0.000 O
BRANCH 33 37
ATOM     34  C1  BDP B   3      -6.153  14.559  11.2820  0.00  0.00     0.000 C
ATOM     35  C2  BDP B   3      -5.466  15.908  11.1090  0.00  0.00     0.000 C
ATOM     36  C3  BDP B   3      -3.998  15.903  11.5190  0.00  0.00     0.000 C
ATOM     37  C4  BDP B   3      -3.846  15.188  12.8700  0.00  0.00     0.000 C
ATOM     38  C5  BDP B   3      -4.445  13.777  12.7110  0.00  0.00     0.000 C
ATOM     39  O5  BDP B   3      -5.851  13.971  12.5530  0.00  0.00     0.000 O
ATOM     40   O  BDP B   3      -5.644  16.275   9.7390  0.00  0.00     0.000 O
ATOM     42  HD  BDP B   3      -6.411  16.511  10.0630  0.00  0.00     0.000 HD
ATOM     42   O  BDP B   3      -3.588  17.268  11.5930  0.00  0.00     0.000 O
ATOM     44  HD  BDP B   3      -4.356  17.504  11.9170  0.00  0.00     0.000 HD
BRANCH 38 44
ATOM     44   C  BDP B   3      -4.187  12.861  13.8660  0.00  0.00     0.000 C
ATOM     45   O  BDP B   3      -4.775  13.097  14.9440  0.00  0.00     0.000 OA
ATOM     46   O  BDP B   3      -3.401  11.898  13.7270  0.00  0.00     0.000 OA
ENDBRANCH 38 44
BRANCH 34 47
ATOM     47  O3  NAG B   4      -7.498  14.699  11.7340  0.00  0.00     0.000 O
BRANCH 47 50
ATOM     48  C1  NAG B   4      -9.770  12.061  10.3080  0.00  0.00     0.000 C
ATOM     49  C2  NAG B   4      -8.761  13.197  10.2930  0.00  0.00     0.000 C
ATOM     50  C3  NAG B   4      -8.404  13.576  11.7250  0.00  0.00     0.000 C
ATOM     51  C4  NAG B   4      -9.643  13.918  12.5390  0.00  0.00     0.000 C
ATOM     52  C5  NAG B   4     -10.649  12.770  12.4590  0.00  0.00     0.000 C
ATOM     53  O5  NAG B   4     -10.919  12.436  11.0920  0.00  0.00     0.000 O
ATOM     54   O  NAG B   4      -9.258  14.159  13.8950  0.00  0.00     0.000 O
ATOM     56  HD  NAG B   4     -10.063  14.428  13.7240  0.00  0.00     0.000 HD
ATOM     56   C  NAG B   4     -11.955  13.128  13.1600  0.00  0.00     0.000 C
ATOM     57   O  NAG B   4     -12.522  14.283  12.5280  0.00  0.00     0.000 O
ATOM     59  HD  NAG B   4     -13.327  14.553  12.3570  0.00  0.00     0.000 HD
BRANCH 49 61
ATOM     59   N  NAG B   4      -7.858  12.670   9.2690  0.00  0.00     0.000 N
ATOM     61  HD  NAG B   4      -8.546  13.194   9.3220  0.00  0.00     0.000 HD
ATOM     61   O  NAG B   4      -7.616  14.592   8.1060  0.00  0.00     0.000 OA
ATOM     62   C  NAG B   4      -7.308  13.427   8.3120  0.00  0.00     0.000 C
ATOM     63   C  NAG B   4      -6.248  12.762   7.4910  0.00  0.00     0.000 C
ENDBRANCH 49 61
BRANCH 48 64
ATOM     64  O4  BDP B   5     -10.046  10.997   9.4020  0.00  0.00     0.000 O
BRANCH 64 68
ATOM     65  C1  BDP B   5     -11.263   8.597   6.2200  0.00  0.00     0.000 C
ATOM     66  C2  BDP B   5     -10.888  10.030   5.8690  0.00  0.00     0.000 C
ATOM     67  C3  BDP B   5     -10.075  10.640   7.0030  0.00  0.00     0.000 C
ATOM     68  C4  BDP B   5     -10.850  10.547   8.3130  0.00  0.00     0.000 C
ATOM     69  C5  BDP B   5     -11.314   9.126   8.6060  0.00  0.00     0.000 C
ATOM     70  O5  BDP B   5     -11.982   8.566   7.4630  0.00  0.00     0.000 O
ATOM     71   O  BDP B   5     -10.165  10.049   4.6280  0.00  0.00     0.000 O
ATOM     73  HD  BDP B   5      -9.717  10.001   3.8880  0.00  0.00     0.000 HD
ATOM     73   O  BDP B   5      -9.777  12.013   6.7270  0.00  0.00     0.000 O
ATOM     75  HD  BDP B   5      -9.329  11.966   5.9870  0.00  0.00     0.000 HD
BRANCH 69 75
ATOM     75   C  BDP B   5     -12.266   9.170   9.7750  0.00  0.00     0.000 C
ATOM     76   O  BDP B   5     -13.196  10.001   9.7590  0.00  0.00     0.000 OA
ATOM     77   O  BDP B   5     -12.100   8.375  10.7180  0.00  0.00     0.000 OA
ENDBRANCH 69 75
BRANCH 65 78
ATOM     78  O3  NAG B   6     -12.432   7.895   5.7870  0.00  0.00     0.000 O
BRANCH 78 81
ATOM     79  C1  NAG B   6     -13.162   4.668   3.9470  0.00  0.00     0.000 C
ATOM     80  C2  NAG B   6     -12.726   6.130   4.1330  0.00  0.00     0.000 C
ATOM     81  C3  NAG B   6     -12.691   6.485   5.6110  0.00  0.00     0.000 C
ATOM     82  C4  NAG B   6     -14.008   6.105   6.2950  0.00  0.00     0.000 C
ATOM     83  C5  NAG B   6     -14.306   4.633   6.0380  0.00  0.00     0.000 C
ATOM     84  O5  NAG B   6     -14.412   4.453   4.6260  0.00  0.00     0.000 O
BRANCH 80 87
ATOM     85   N  NAG B   6     -12.375   7.062   3.0650  0.00  0.00     0.000 N
ATOM     87  HD  NAG B   6     -12.023   7.811   2.8120  0.00  0.00     0.000 HD
ATOM     87   C  NAG B   6     -11.119   7.367   2.7200  0.00  0.00     0.000 C
ATOM     88   C  NAG B   6     -10.973   8.319   1.5750  0.00  0.00     0.000 C
ATOM     89   O  NAG B   6     -10.138   6.897   3.2840  0.00  0.00     0.000 OA
ENDBRANCH 80 87
ATOM     90   O  NAG B   6     -15.266   3.220   7.7500  0.00  0.00     0.000 O
ATOM     92  HD  NAG B   6     -14.751   3.254   7.0550  0.00  0.00     0.000 HD
ATOM     92   O  NAG B   6     -15.266   3.220   7.7500  0.00  0.00     0.000 O
ATOM     94  HD  NAG B   6     -14.751   3.254   7.0550  0.00  0.00     0.000 HD
ENDBRANCH 78 81
ENDBRANCH 65 78
ENDBRANCH 64 68
ENDBRANCH 48 64
ENDBRANCH 47 50
ENDBRANCH 34 47
ENDBRANCH 33 37
ENDBRANCH 17 33
ENDBRANCH 16 19
ENDBRANCH 1 16
TORSDOF 16
ENDMDL
MODEL 94
REMARK VINA RESULT:      -8.3     28.864     32.466
ROOT
ATOM      1  C1  BDP B   1       1.978  19.058  16.8560  0.00  0.00     0.000 C
ATOM      2  C2  BDP B   1       3.151  19.127  17.8170  0.00  0.00     0.000 C
ATOM      3  C3  BDP B   1       2.847  18.452  19.1380  0.00  0.00     0.000 C
ATOM      4  C4  BDP B   1       1.611  17.560  19.1090  0.00  0.00     0.000 C
ATOM      5  C5  BDP B   1       0.415  18.229  18.4390  0.00  0.00     0.000 C
ATOM      6  O5  BDP B   1       0.807  19.336  17.6100  0.00  0.00     0.000 O
ATOM      7   O  BDP B   1       4.304  18.521  17.2220  0.00  0.00     0.000 O
ATOM      9  HD  BDP B   1       4.832  18.393  16.5480  0.00  0.00     0.000 HD
ATOM      9   O  BDP B   1       2.646  19.442  20.1590  0.00  0.00     0.000 O
ATOM     11  HD  BDP B   1       3.174  19.314  19.4850  0.00  0.00     0.000 HD
ATOM     11   O  BDP B   1       1.904  16.322  18.4500  0.00  0.00     0.000 O
ATOM     13  HD  BDP B   1       2.432  16.194  17.7750  0.00  0.00     0.000 HD
ENDROOT
BRANCH 5 13
ATOM     13   C  BDP B   1      -0.486  18.709  19.5230  0.00  0.00     0.000 C
ATOM     14   O  BDP B   1      -1.492  19.375  19.2020  0.00  0.00     0.000 OA
ATOM     15   O  BDP B   1      -0.224  18.409  20.7080  0.00  0.00     0.000 OA
ENDBRANCH 5 13
BRANCH 1 16
ATOM     16  O3  NAG B   2       1.882  18.497  15.5480  0.00  0.00     0.000 O
BRANCH 16 19
ATOM     17  C1  NAG B   2       3.040  15.714  13.5060  0.00  0.00     0.000 C
ATOM     18  C2  NAG B   2       2.554  16.262  14.8480  0.00  0.00     0.000 C
ATOM     19  C3  NAG B   2       1.606  17.432  14.6370  0.00  0.00     0.000 C
ATOM     20  C4  NAG B   2       1.663  17.956  13.1990  0.00  0.00     0.000 C
ATOM     21  C5  NAG B   2       3.048  17.904  12.5410  0.00  0.00     0.000 C
ATOM     22  O5  NAG B   2       3.822  16.764  12.9330  0.00  0.00     0.000 O
ATOM     23   O  NAG B   2       0.723  17.219  12.4100  0.00  0.00     0.000 O
ATOM     25  HD  NAG B   2       0.905  16.457  12.7770  0.00  0.00     0.000 HD
ATOM     25   C  NAG B   2       3.848  19.174  12.8620  0.00  0.00     0.000 C
ATOM     26   O  NAG B   2       3.543  20.239  11.9510  0.00  0.00     0.000 O
ATOM     28  HD  NAG B   2       3.725  19.476  12.3190  0.00  0.00     0.000 HD
BRANCH 18 30
ATOM     28   N  NAG B   2       1.239  15.689  15.1320  0.00  0.00     0.000 N
ATOM     30  HD  NAG B   2       0.633  15.642  15.7480  0.00  0.00     0.000 HD
ATOM     30   C  NAG B   2       0.990  14.382  15.2960  0.00  0.00     0.000 C
ATOM     31   C  NAG B   2      -0.448  14.042  15.5680  0.00  0.00     0.000 C
ATOM     32   O  NAG B   2       1.845  13.529  15.2400  0.00  0.00     0.000 OA
ENDBRANCH 18 30
BRANCH 17 33
ATOM     33  O4  BDP B   3       3.986  14.989  12.6900  0.00  0.00     0.000 O
BRANCH 33 37
ATOM     34  C1  BDP B   3       7.738  13.381  11.4340  0.00  0.00     0.000 C
ATOM     35  C2  BDP B   3       7.387  13.259  12.9120  0.00  0.00     0.000 C
ATOM     36  C3  BDP B   3       5.904  13.457  13.2060  0.00  0.00     0.000 C
ATOM     37  C4  BDP B   3       5.391  14.688  12.4450  0.00  0.00     0.000 C
ATOM     38  C5  BDP B   3       5.698  14.464  10.9520  0.00  0.00     0.000 C
ATOM     39  O5  BDP B   3       7.119  14.527  10.8370  0.00  0.00     0.000 O
ATOM     40   O  BDP B   3       7.855  11.975  13.3290  0.00  0.00     0.000 O
ATOM     42  HD  BDP B   3       8.593  12.427  13.3620  0.00  0.00     0.000 HD
ATOM     42   O  BDP B   3       5.785  13.617  14.6190  0.00  0.00     0.000 O
ATOM     44  HD  BDP B   3       6.523  14.069  14.6520  0.00  0.00     0.000 HD
BRANCH 38 44
ATOM     44   C  BDP B   3       5.070  15.467  10.0340  0.00  0.00     0.000 C
ATOM     45   O  BDP B   3       5.571  16.612   9.9880  0.00  0.00     0.000 OA
ATOM     46   O  BDP B   3       4.078  15.140   9.3480  0.00  0.00     0.000 OA
ENDBRANCH 38 44
BRANCH 34 47
ATOM     47  O3  NAG B   4       8.992  14.030  11.2340  0.00  0.00     0.000 O
BRANCH 47 50
ATOM     48  C1  NAG B   4      11.108  12.872   8.3480  0.00  0.00     0.000 C
ATOM     49  C2  NAG B   4      10.407  12.786   9.6930  0.00  0.00     0.000 C
ATOM     50  C3  NAG B   4       9.612  14.064   9.9320  0.00  0.00     0.000 C
ATOM     51  C4  NAG B   4      10.491  15.299   9.8200  0.00  0.00     0.000 C
ATOM     52  C5  NAG B   4      11.223  15.296   8.4780  0.00  0.00     0.000 C
ATOM     53  O5  NAG B   4      11.924  14.059   8.2950  0.00  0.00     0.000 O
ATOM     54   O  NAG B   4       9.673  16.466   9.9460  0.00  0.00     0.000 O
ATOM     56  HD  NAG B   4      10.518  16.641  10.0230  0.00  0.00     0.000 HD
ATOM     56   C  NAG B   4      12.209  16.454   8.3820  0.00  0.00     0.000 C
ATOM     57   O  NAG B   4      13.175  16.335   9.4350  0.00  0.00     0.000 O
ATOM     59  HD  NAG B   4      14.019  16.510   9.5120  0.00  0.00     0.000 HD
BRANCH 49 61
ATOM     59   N  NAG B   4      11.575  12.093  10.2380  0.00  0.00     0.000 N
ATOM     61  HD  NAG B   4      10.829  12.429  10.5200  0.00  0.00     0.000 HD
ATOM     61   O  NAG B   4      10.451  10.730  11.6450  0.00  0.00     0.000 OA
ATOM     62   C  NAG B   4      11.492  11.079  11.1080  0.00  0.00     0.000 C
ATOM     63   C  NAG B   4      12.772  10.358  11.3860  0.00  0.00     0.000 C
ENDBRANCH 49 61
BRANCH 48 64
ATOM     64  O4  BDP B   5      11.506  11.889   7.3970  0.00  0.00     0.000 O
BRANCH 64 68
ATOM     65  C1  BDP B   5      10.979   9.717   3.8780  0.00  0.00     0.000 C
ATOM     66  C2  BDP B   5       9.707  10.214   4.5520  0.00  0.00     0.000 C
ATOM     67  C3  BDP B   5      10.050  11.320   5.5420  0.00  0.00     0.000 C
ATOM     68  C4  BDP B   5      11.083  10.824   6.5470  0.00  0.00     0.000 C
ATOM     69  C5  BDP B   5      12.309  10.231   5.8640  0.00  0.00     0.000 C
ATOM     70  O5  BDP B   5      11.919   9.270   4.8680  0.00  0.00     0.000 O
ATOM     71   O  BDP B   5       8.777  10.664   3.5550  0.00  0.00     0.000 O
ATOM     73  HD  BDP B   5       8.263  10.940   2.9150  0.00  0.00     0.000 HD
ATOM     73   O  BDP B   5       8.877  11.749   6.2430  0.00  0.00     0.000 O
ATOM     75  HD  BDP B   5       8.362  12.025   5.6040  0.00  0.00     0.000 HD
BRANCH 69 75
ATOM     75   C  BDP B   5      13.154   9.554   6.9130  0.00  0.00     0.000 C
ATOM     76   O  BDP B   5      14.365   9.846   6.9890  0.00  0.00     0.000 OA
ATOM     77   O  BDP B   5      12.621   8.727   7.6760  0.00  0.00     0.000 OA
ENDBRANCH 69 75
BRANCH 65 78
ATOM     78  O3  NAG B   6      11.217   8.397   3.3830  0.00  0.00     0.000 O
BRANCH 78 81
ATOM     79  C1  NAG B   6      11.904   6.391   0.2470  0.00  0.00     0.000 C
ATOM     80  C2  NAG B   6      11.075   7.019   1.3790  0.00  0.00     0.000 C
ATOM     81  C3  NAG B   6      11.949   7.925   2.2310  0.00  0.00     0.000 C
ATOM     82  C4  NAG B   6      13.218   7.194   2.6810  0.00  0.00     0.000 C
ATOM     83  C5  NAG B   6      13.941   6.637   1.4600  0.00  0.00     0.000 C
ATOM     84  O5  NAG B   6      13.053   5.730   0.8070  0.00  0.00     0.000 O
BRANCH 80 87
ATOM     85   N  NAG B   6       9.738   7.188   1.9410  0.00  0.00     0.000 N
ATOM     87  HD  NAG B   6       9.090   7.706   2.1880  0.00  0.00     0.000 HD
ATOM     87   C  NAG B   6       8.694   7.673   1.2570  0.00  0.00     0.000 C
ATOM     88   C  NAG B   6       7.400   7.733   2.0050  0.00  0.00     0.000 C
ATOM     89   O  NAG B   6       8.770   8.035   0.0890  0.00  0.00     0.000 OA
ENDBRANCH 80 87
ATOM     90   O  NAG B   6      16.354   6.661   1.3000  0.00  0.00     0.000 O
ATOM     92  HD  NAG B   6      15.607   6.692   0.8640  0.00  0.00     0.000 HD
ATOM     92   O  NAG B   6      16.354   6.661   1.3000  0.00  0.00     0.000 O
ATOM     94  HD  NAG B   6      15.607   6.692   0.8640  0.00  0.00     0.000 HD
ENDBRANCH 78 81
ENDBRANCH 65 78
ENDBRANCH 64 68
ENDBRANCH 48 64
ENDBRANCH 47 50
ENDBRANCH 34 47
ENDBRANCH 33 37
ENDBRANCH 17 33
ENDBRANCH 16 19
ENDBRANCH 1 16
TORSDOF 16
ENDMDL
MODEL 95
REMARK VINA RESULT:      -8.2     11.880     20.133
ROOT
ATOM      1  C1  BDP B   1      -0.329  -5.279  25.2190  0.00  0.00     0.000 C
ATOM      2  C2  BDP B   1      -0.284  -4.616  23.8540  0.00  0.00     0.000 C
ATOM      3  C3  BDP B   1      -1.144  -5.340  22.8400  0.00  0.00     0.000 C
ATOM      4  C4  BDP B   1      -2.127  -6.331  23.4540  0.00  0.00     0.000 C
ATOM      5  C5  BDP B   1      -1.481  -7.228  24.5050  0.00  0.00     0.000 C
ATOM      6  O5  BDP B   1      -0.249  -6.680  25.0020  0.00  0.00     0.000 O
ATOM      7   O  BDP B   1      -0.710  -3.253  23.9600  0.00  0.00     0.000 O
ATOM      9  HD  BDP B   1      -0.706  -2.485  24.3600  0.00  0.00     0.000 HD
ATOM      9   O  BDP B   1      -0.313  -6.064  21.9190  0.00  0.00     0.000 O
ATOM     11  HD  BDP B   1      -0.309  -5.296  22.3200  0.00  0.00     0.000 HD
ATOM     11   O  BDP B   1      -3.242  -5.638  24.0280  0.00  0.00     0.000 O
ATOM     13  HD  BDP B   1      -3.238  -4.870  24.4280  0.00  0.00     0.000 HD
ENDROOT
BRANCH 5 13
ATOM     13   C  BDP B   1      -1.221  -8.545  23.8610  0.00  0.00     0.000 C
ATOM     14   O  BDP B   1      -1.852  -9.539  24.2770  0.00  0.00     0.000 OA
ATOM     15   O  BDP B   1      -0.407  -8.609  22.9150  0.00  0.00     0.000 OA
ENDBRANCH 5 13
BRANCH 1 16
ATOM     16  O3  NAG B   2      -0.725  -4.762  26.4880  0.00  0.00     0.000 O
BRANCH 16 19
ATOM     17  C1  NAG B   2      -2.079  -3.714  29.7010  0.00  0.00     0.000 C
ATOM     18  C2  NAG B   2      -1.903  -4.781  28.6210  0.00  0.00     0.000 C
ATOM     19  C3  NAG B   2      -0.576  -4.599  27.8990  0.00  0.00     0.000 C
ATOM     20  C4  NAG B   2       0.050  -3.234  28.1980  0.00  0.00     0.000 C
ATOM     21  C5  NAG B   2      -0.950  -2.081  28.3630  0.00  0.00     0.000 C
ATOM     22  O5  NAG B   2      -2.175  -2.476  28.9930  0.00  0.00     0.000 O
ATOM     23   O  NAG B   2       0.854  -3.351  29.3760  0.00  0.00     0.000 O
ATOM     25  HD  NAG B   2       0.290  -3.856  29.7960  0.00  0.00     0.000 HD
ATOM     25   C  NAG B   2      -1.279  -1.451  27.0030  0.00  0.00     0.000 C
ATOM     26   O  NAG B   2      -0.315  -0.456  26.6310  0.00  0.00     0.000 O
ATOM     28  HD  NAG B   2      -0.879  -0.962  27.0510  0.00  0.00     0.000 HD
BRANCH 18 30
ATOM     28   N  NAG B   2      -2.212  -6.016  29.3400  0.00  0.00     0.000 N
ATOM     30  HD  NAG B   2      -2.727  -6.335  29.9590  0.00  0.00     0.000 HD
ATOM     30   C  NAG B   2      -1.395  -6.620  30.2150  0.00  0.00     0.000 C
ATOM     31   C  NAG B   2      -1.938  -7.886  30.8160  0.00  0.00     0.000 C
ATOM     32   O  NAG B   2      -0.305  -6.191  30.5140  0.00  0.00     0.000 OA
ENDBRANCH 18 30
BRANCH 17 33
ATOM     33  O4  BDP B   3      -2.894  -2.912  30.5830  0.00  0.00     0.000 O
BRANCH 33 37
ATOM     34  C1  BDP B   3      -4.705  -1.773  34.2790  0.00  0.00     0.000 C
ATOM     35  C2  BDP B   3      -3.670  -0.823  33.6890  0.00  0.00     0.000 C
ATOM     36  C3  BDP B   3      -3.390  -1.067  32.2110  0.00  0.00     0.000 C
ATOM     37  C4  BDP B   3      -3.206  -2.573  31.9660  0.00  0.00     0.000 C
ATOM     38  C5  BDP B   3      -4.477  -3.278  32.4760  0.00  0.00     0.000 C
ATOM     39  O5  BDP B   3      -4.456  -3.130  33.8960  0.00  0.00     0.000 O
ATOM     40   O  BDP B   3      -4.152   0.499  33.9370  0.00  0.00     0.000 O
ATOM     42  HD  BDP B   3      -3.801   0.316  34.7070  0.00  0.00     0.000 HD
ATOM     42   O  BDP B   3      -2.212  -0.329  31.8890  0.00  0.00     0.000 O
ATOM     44  HD  BDP B   3      -1.861  -0.513  32.6590  0.00  0.00     0.000 HD
BRANCH 38 44
ATOM     44   C  BDP B   3      -4.566  -4.728  32.1190  0.00  0.00     0.000 C
ATOM     45   O  BDP B   3      -5.398  -5.066  31.2480  0.00  0.00     0.000 OA
ATOM     46   O  BDP B   3      -3.820  -5.553  32.6910  0.00  0.00     0.000 OA
ENDBRANCH 38 44
BRANCH 34 47
ATOM     47  O3  NAG B   4      -4.380  -2.154  35.6150  0.00  0.00     0.000 O
BRANCH 47 50
ATOM     48  C1  NAG B   4      -6.246  -1.313  38.7710  0.00  0.00     0.000 C
ATOM     49  C2  NAG B   4      -5.205  -1.155  37.6760  0.00  0.00     0.000 C
ATOM     50  C3  NAG B   4      -5.401  -2.245  36.6300  0.00  0.00     0.000 C
ATOM     51  C4  NAG B   4      -5.373  -3.631  37.2540  0.00  0.00     0.000 C
ATOM     52  C5  NAG B   4      -6.389  -3.708  38.3940  0.00  0.00     0.000 C
ATOM     53  O5  NAG B   4      -6.177  -2.641  39.3260  0.00  0.00     0.000 O
ATOM     54   O  NAG B   4      -5.669  -4.602  36.2470  0.00  0.00     0.000 O
ATOM     56  HD  NAG B   4      -5.342  -4.957  36.9670  0.00  0.00     0.000 HD
ATOM     56   C  NAG B   4      -6.301  -5.043  39.1250  0.00  0.00     0.000 C
ATOM     57   O  NAG B   4      -4.984  -5.191  39.6710  0.00  0.00     0.000 O
ATOM     59  HD  NAG B   4      -4.657  -5.545  40.3910  0.00  0.00     0.000 HD
BRANCH 49 61
ATOM     59   N  NAG B   4      -4.198  -0.789  38.6740  0.00  0.00     0.000 N
ATOM     61  HD  NAG B   4      -4.243  -0.950  37.8240  0.00  0.00     0.000 HD
ATOM     61   O  NAG B   4      -3.105   0.733  37.4120  0.00  0.00     0.000 OA
ATOM     62   C  NAG B   4      -3.285   0.171  38.4830  0.00  0.00     0.000 C
ATOM     63   C  NAG B   4      -2.483   0.549  39.6870  0.00  0.00     0.000 C
ENDBRANCH 49 61
BRANCH 48 64
ATOM     64  O4  BDP B   5      -6.883  -0.385  39.6440  0.00  0.00     0.000 O
BRANCH 64 68
ATOM     65  C1  BDP B   5      -8.354   1.719  42.9280  0.00  0.00     0.000 C
ATOM     66  C2  BDP B   5      -7.139   2.324  42.2380  0.00  0.00     0.000 C
ATOM     67  C3  BDP B   5      -6.984   1.718  40.8490  0.00  0.00     0.000 C
ATOM     68  C4  BDP B   5      -6.900   0.199  40.9460  0.00  0.00     0.000 C
ATOM     69  C5  BDP B   5      -8.065  -0.393  41.7290  0.00  0.00     0.000 C
ATOM     70  O5  BDP B   5      -8.228   0.289  42.9850  0.00  0.00     0.000 O
ATOM     71   O  BDP B   5      -7.279   3.752  42.1810  0.00  0.00     0.000 O
ATOM     73  HD  BDP B   5      -7.422   4.605  42.1550  0.00  0.00     0.000 HD
ATOM     73   O  BDP B   5      -5.802   2.217  40.2120  0.00  0.00     0.000 O
ATOM     75  HD  BDP B   5      -5.945   3.070  40.1860  0.00  0.00     0.000 HD
BRANCH 69 75
ATOM     75   C  BDP B   5      -7.775  -1.850  41.9810  0.00  0.00     0.000 C
ATOM     76   O  BDP B   5      -8.557  -2.706  41.5200  0.00  0.00     0.000 OA
ATOM     77   O  BDP B   5      -6.763  -2.159  42.6380  0.00  0.00     0.000 OA
ENDBRANCH 69 75
BRANCH 65 78
ATOM     78  O3  NAG B   6      -8.526   1.533  44.3360  0.00  0.00     0.000 O
BRANCH 78 81
ATOM     79  C1  NAG B   6     -11.130   2.465  46.9200  0.00  0.00     0.000 C
ATOM     80  C2  NAG B   6      -9.963   2.669  45.9420  0.00  0.00     0.000 C
ATOM     81  C3  NAG B   6      -9.715   1.399  45.1450  0.00  0.00     0.000 C
ATOM     82  C4  NAG B   6      -9.582   0.189  46.0740  0.00  0.00     0.000 C
ATOM     83  C5  NAG B   6     -10.809   0.103  46.9740  0.00  0.00     0.000 C
ATOM     84  O5  NAG B   6     -10.872   1.309  47.7370  0.00  0.00     0.000 O
BRANCH 80 87
ATOM     85   N  NAG B   6      -9.178   3.886  45.7550  0.00  0.00     0.000 N
ATOM     87  HD  NAG B   6      -8.621   4.353  45.2830  0.00  0.00     0.000 HD
ATOM     87   C  NAG B   6      -9.388   4.770  44.7710  0.00  0.00     0.000 C
ATOM     88   C  NAG B   6      -8.496   5.970  44.7750  0.00  0.00     0.000 C
ATOM     89   O  NAG B   6     -10.260   4.629  43.9220  0.00  0.00     0.000 OA
ENDBRANCH 80 87
ATOM     90   O  NAG B   6     -11.811  -2.022  47.5470  0.00  0.00     0.000 O
ATOM     92  HD  NAG B   6     -11.950  -1.178  47.4110  0.00  0.00     0.000 HD
ATOM     92   O  NAG B   6     -11.811  -2.022  47.5470  0.00  0.00     0.000 O
ATOM     94  HD  NAG B   6     -11.950  -1.178  47.4110  0.00  0.00     0.000 HD
ENDBRANCH 78 81
ENDBRANCH 65 78
ENDBRANCH 64 68
ENDBRANCH 48 64
ENDBRANCH 47 50
ENDBRANCH 34 47
ENDBRANCH 33 37
ENDBRANCH 17 33
ENDBRANCH 16 19
ENDBRANCH 1 16
TORSDOF 16
ENDMDL
MODEL 96
REMARK VINA RESULT:      -8.2     20.614     30.379
ROOT
ATOM      1  C1  BDP B   1      18.135 -38.825  50.0050  0.00  0.00     0.000 C
ATOM      2  C2  BDP B   1      17.207 -39.713  50.8150  0.00  0.00     0.000 C
ATOM      3  C3  BDP B   1      17.076 -39.243  52.2480  0.00  0.00     0.000 C
ATOM      4  C4  BDP B   1      17.589 -37.828  52.4880  0.00  0.00     0.000 C
ATOM      5  C5  BDP B   1      18.954 -37.579  51.8530  0.00  0.00     0.000 C
ATOM      6  O5  BDP B   1      19.257 -38.539  50.8270  0.00  0.00     0.000 O
ATOM      7   O  BDP B   1      15.914 -39.753  50.2020  0.00  0.00     0.000 O
ATOM      9  HD  BDP B   1      15.406 -39.818  49.5040  0.00  0.00     0.000 HD
ATOM      9   O  BDP B   1      17.803 -40.123  53.1210  0.00  0.00     0.000 O
ATOM     11  HD  BDP B   1      17.295 -40.188  52.4220  0.00  0.00     0.000 HD
ATOM     11   O  BDP B   1      16.646 -36.866  51.9990  0.00  0.00     0.000 O
ATOM     13  HD  BDP B   1      16.138 -36.931  51.3010  0.00  0.00     0.000 HD
ENDROOT
BRANCH 5 13
ATOM     13   C  BDP B   1      19.968 -37.668  52.9400  0.00  0.00     0.000 C
ATOM     14   O  BDP B   1      21.175 -37.657  52.6220  0.00  0.00     0.000 OA
ATOM     15   O  BDP B   1      19.583 -37.723  54.1270  0.00  0.00     0.000 OA
ENDBRANCH 5 13
BRANCH 1 16
ATOM     16  O3  NAG B   2      17.896 -38.073  48.8170  0.00  0.00     0.000 O
BRANCH 16 19
ATOM     17  C1  NAG B   2      17.561 -35.598  46.1680  0.00  0.00     0.000 C
ATOM     18  C2  NAG B   2      17.758 -37.048  46.6110  0.00  0.00     0.000 C
ATOM     19  C3  NAG B   2      17.071 -37.298  47.9450  0.00  0.00     0.000 C
ATOM     20  C4  NAG B   2      16.677 -35.989  48.6350  0.00  0.00     0.000 C
ATOM     21  C5  NAG B   2      17.657 -34.825  48.4310  0.00  0.00     0.000 C
ATOM     22  O5  NAG B   2      18.264 -34.812  47.1330  0.00  0.00     0.000 O
ATOM     23   O  NAG B   2      15.373 -35.611  48.1810  0.00  0.00     0.000 O
ATOM     25  HD  NAG B   2      15.519 -35.834  47.3570  0.00  0.00     0.000 HD
ATOM     25   C  NAG B   2      18.767 -34.861  49.4910  0.00  0.00     0.000 C
ATOM     26   O  NAG B   2      18.365 -34.206  50.7030  0.00  0.00     0.000 O
ATOM     28  HD  NAG B   2      18.511 -34.429  49.8790  0.00  0.00     0.000 HD
BRANCH 18 30
ATOM     28   N  NAG B   2      16.466 -37.617  46.2290  0.00  0.00     0.000 N
ATOM     30  HD  NAG B   2      15.977 -38.326  46.3230  0.00  0.00     0.000 HD
ATOM     30   C  NAG B   2      16.130 -37.993  44.9870  0.00  0.00     0.000 C
ATOM     31   C  NAG B   2      14.738 -38.540  44.8470  0.00  0.00     0.000 C
ATOM     32   O  NAG B   2      16.879 -37.912  44.0400  0.00  0.00     0.000 OA
ENDBRANCH 18 30
BRANCH 17 33
ATOM     33  O4  BDP B   3      17.942 -34.433  45.4050  0.00  0.00     0.000 O
BRANCH 33 37
ATOM     34  C1  BDP B   3      17.429 -30.929  43.0170  0.00  0.00     0.000 C
ATOM     35  C2  BDP B   3      17.699 -30.726  44.5030  0.00  0.00     0.000 C
ATOM     36  C3  BDP B   3      18.281 -31.956  45.1910  0.00  0.00     0.000 C
ATOM     37  C4  BDP B   3      17.489 -33.202  44.7690  0.00  0.00     0.000 C
ATOM     38  C5  BDP B   3      17.538 -33.277  43.2310  0.00  0.00     0.000 C
ATOM     39  O5  BDP B   3      16.762 -32.172  42.7660  0.00  0.00     0.000 O
ATOM     40   O  BDP B   3      18.563 -29.592  44.6000  0.00  0.00     0.000 O
ATOM     42  HD  BDP B   3      17.799 -29.196  44.5070  0.00  0.00     0.000 HD
ATOM     42   O  BDP B   3      18.192 -31.720  46.5950  0.00  0.00     0.000 O
ATOM     44  HD  BDP B   3      17.427 -31.324  46.5020  0.00  0.00     0.000 HD
BRANCH 38 44
ATOM     44   C  BDP B   3      17.002 -34.550  42.6550  0.00  0.00     0.000 C
ATOM     45   O  BDP B   3      15.775 -34.767  42.7560  0.00  0.00     0.000 OA
ATOM     46   O  BDP B   3      17.782 -35.353  42.0980  0.00  0.00     0.000 OA
ENDBRANCH 38 44
BRANCH 34 47
ATOM     47  O3  NAG B   4      16.234 -30.273  42.5970  0.00  0.00     0.000 O
BRANCH 47 50
ATOM     48  C1  NAG B   4      16.457 -28.745  39.1670  0.00  0.00     0.000 C
ATOM     49  C2  NAG B   4      16.826 -28.979  40.6210  0.00  0.00     0.000 C
ATOM     50  C3  NAG B   4      15.944 -30.082  41.1970  0.00  0.00     0.000 C
ATOM     51  C4  NAG B   4      14.468 -29.765  41.0230  0.00  0.00     0.000 C
ATOM     52  C5  NAG B   4      14.170 -29.470  39.5520  0.00  0.00     0.000 C
ATOM     53  O5  NAG B   4      15.050 -28.452  39.0590  0.00  0.00     0.000 O
ATOM     54   O  NAG B   4      13.696 -30.878  41.4810  0.00  0.00     0.000 O
ATOM     56  HD  NAG B   4      13.218 -30.164  41.3710  0.00  0.00     0.000 HD
ATOM     56   C  NAG B   4      12.725 -29.027  39.3580  0.00  0.00     0.000 C
ATOM     57   O  NAG B   4      12.494 -27.836  40.1230  0.00  0.00     0.000 O
ATOM     59  HD  NAG B   4      12.017 -27.122  40.0130  0.00  0.00     0.000 HD
BRANCH 49 61
ATOM     59   N  NAG B   4      18.269 -28.883  40.3960  0.00  0.00     0.000 N
ATOM     61  HD  NAG B   4      17.617 -28.377  40.6590  0.00  0.00     0.000 HD
ATOM     61   O  NAG B   4      18.754 -27.683  42.2470  0.00  0.00     0.000 OA
ATOM     62   C  NAG B   4      19.114 -28.309  41.2600  0.00  0.00     0.000 C
ATOM     63   C  NAG B   4      20.568 -28.495  40.9640  0.00  0.00     0.000 C
ENDBRANCH 49 61
BRANCH 48 64
ATOM     64  O4  BDP B   5      17.200 -28.296  38.0380  0.00  0.00     0.000 O
BRANCH 64 68
ATOM     65  C1  BDP B   5      19.161 -27.842  34.3880  0.00  0.00     0.000 C
ATOM     66  C2  BDP B   5      17.707 -27.392  34.4250  0.00  0.00     0.000 C
ATOM     67  C3  BDP B   5      17.263 -27.210  35.8700  0.00  0.00     0.000 C
ATOM     68  C4  BDP B   5      17.492 -28.496  36.6560  0.00  0.00     0.000 C
ATOM     69  C5  BDP B   5      18.924 -28.999  36.5300  0.00  0.00     0.000 C
ATOM     70  O5  BDP B   5      19.323 -29.050  35.1480  0.00  0.00     0.000 O
ATOM     71   O  BDP B   5      17.558 -26.181  33.6670  0.00  0.00     0.000 O
ATOM     73  HD  BDP B   5      17.528 -25.443  33.2160  0.00  0.00     0.000 HD
ATOM     73   O  BDP B   5      15.874 -26.861  35.9300  0.00  0.00     0.000 O
ATOM     75  HD  BDP B   5      15.844 -26.122  35.4790  0.00  0.00     0.000 HD
BRANCH 69 75
ATOM     75   C  BDP B   5      18.995 -30.382  37.1260  0.00  0.00     0.000 C
ATOM     76   O  BDP B   5      18.496 -31.334  36.4930  0.00  0.00     0.000 OA
ATOM     77   O  BDP B   5      19.552 -30.535  38.2290  0.00  0.00     0.000 OA
ENDBRANCH 69 75
BRANCH 65 78
ATOM     78  O3  NAG B   6      19.772 -28.659  33.3860  0.00  0.00     0.000 O
BRANCH 78 81
ATOM     79  C1  NAG B   6      22.499 -28.281  30.7870  0.00  0.00     0.000 C
ATOM     80  C2  NAG B   6      21.107 -28.123  31.4200  0.00  0.00     0.000 C
ATOM     81  C3  NAG B   6      21.109 -28.664  32.8400  0.00  0.00     0.000 C
ATOM     82  C4  NAG B   6      21.686 -30.083  32.8820  0.00  0.00     0.000 C
ATOM     83  C5  NAG B   6      23.067 -30.088  32.2360  0.00  0.00     0.000 C
ATOM     84  O5  NAG B   6      22.912 -29.656  30.8830  0.00  0.00     0.000 O
BRANCH 80 87
ATOM     85   N  NAG B   6      20.757 -26.716  31.2470  0.00  0.00     0.000 N
ATOM     87  HD  NAG B   6      20.470 -26.072  30.7430  0.00  0.00     0.000 HD
ATOM     87   C  NAG B   6      19.515 -26.277  31.0060  0.00  0.00     0.000 C
ATOM     88   C  NAG B   6      19.361 -24.793  30.8950  0.00  0.00     0.000 C
ATOM     89   O  NAG B   6      18.552 -27.026  30.8940  0.00  0.00     0.000 OA
ENDBRANCH 80 87
ATOM     90   O  NAG B   6      24.876 -31.420  33.1290  0.00  0.00     0.000 O
ATOM     92  HD  NAG B   6      24.661 -30.698  32.7030  0.00  0.00     0.000 HD
ATOM     92   O  NAG B   6      24.876 -31.420  33.1290  0.00  0.00     0.000 O
ATOM     94  HD  NAG B   6      24.661 -30.698  32.7030  0.00  0.00     0.000 HD
ENDBRANCH 78 81
ENDBRANCH 65 78
ENDBRANCH 64 68
ENDBRANCH 48 64
ENDBRANCH 47 50
ENDBRANCH 34 47
ENDBRANCH 33 37
ENDBRANCH 17 33
ENDBRANCH 16 19
ENDBRANCH 1 16
TORSDOF 16
ENDMDL
MODEL 97
REMARK VINA RESULT:      -8.1      1.999      2.769
ROOT
ATOM      1  C1  BDP B   1      -0.454  -4.681  24.7140  0.00  0.00     0.000 C
ATOM      2  C2  BDP B   1       0.159  -3.750  23.6830  0.00  0.00     0.000 C
ATOM      3  C3  BDP B   1      -0.837  -2.731  23.1720  0.00  0.00     0.000 C
ATOM      4  C4  BDP B   1      -2.098  -2.614  24.0210  0.00  0.00     0.000 C
ATOM      5  C5  BDP B   1      -2.695  -3.970  24.3820  0.00  0.00     0.000 C
ATOM      6  O5  BDP B   1      -1.743  -5.038  24.2370  0.00  0.00     0.000 O
ATOM      7   O  BDP B   1       1.289  -3.077  24.2470  0.00  0.00     0.000 O
ATOM      9  HD  BDP B   1       2.018  -3.077  24.7160  0.00  0.00     0.000 HD
ATOM      9   O  BDP B   1      -1.242  -3.070  21.8360  0.00  0.00     0.000 O
ATOM     11  HD  BDP B   1      -0.514  -3.070  22.3050  0.00  0.00     0.000 HD
ATOM     11   O  BDP B   1      -1.827  -1.871  25.2170  0.00  0.00     0.000 O
ATOM     13  HD  BDP B   1      -1.099  -1.871  25.6850  0.00  0.00     0.000 HD
ENDROOT
BRANCH 5 13
ATOM     13   C  BDP B   1      -3.850  -4.199  23.4710  0.00  0.00     0.000 C
ATOM     14   O  BDP B   1      -4.310  -5.357  23.3820  0.00  0.00     0.000 OA
ATOM     15   O  BDP B   1      -4.335  -3.230  22.8490  0.00  0.00     0.000 OA
ENDBRANCH 5 13
BRANCH 1 16
ATOM     16  O3  NAG B   2      -0.086  -4.936  26.0680  0.00  0.00     0.000 O
BRANCH 16 19
ATOM     17  C1  NAG B   2       0.997  -6.726  29.0480  0.00  0.00     0.000 C
ATOM     18  C2  NAG B   2       0.924  -5.437  28.2280  0.00  0.00     0.000 C
ATOM     19  C3  NAG B   2      -0.347  -5.407  27.3920  0.00  0.00     0.000 C
ATOM     20  C4  NAG B   2      -1.017  -6.782  27.3280  0.00  0.00     0.000 C
ATOM     21  C5  NAG B   2      -0.052  -7.976  27.2990  0.00  0.00     0.000 C
ATOM     22  O5  NAG B   2       1.127  -7.775  28.0870  0.00  0.00     0.000 O
ATOM     23   O  NAG B   2      -1.908  -6.906  28.4410  0.00  0.00     0.000 O
ATOM     25  HD  NAG B   2      -1.369  -6.527  29.0040  0.00  0.00     0.000 HD
ATOM     25   C  NAG B   2       0.370  -8.296  25.8570  0.00  0.00     0.000 C
ATOM     26   O  NAG B   2      -0.580  -9.148  25.2020  0.00  0.00     0.000 O
ATOM     28  HD  NAG B   2      -0.041  -8.769  25.7650  0.00  0.00     0.000 HD
BRANCH 18 30
ATOM     28   N  NAG B   2       0.869  -4.163  28.9450  0.00  0.00     0.000 N
ATOM     30  HD  NAG B   2       1.372  -3.582  29.3440  0.00  0.00     0.000 HD
ATOM     30   C  NAG B   2       0.326  -3.987  30.1580  0.00  0.00     0.000 C
ATOM     31   C  NAG B   2       0.384  -2.579  30.6770  0.00  0.00     0.000 C
ATOM     32   O  NAG B   2      -0.170  -4.882  30.8010  0.00  0.00     0.000 OA
ENDBRANCH 18 30
BRANCH 17 33
ATOM     33  O4  BDP B   3       1.728  -7.733  29.7810  0.00  0.00     0.000 O
BRANCH 33 37
ATOM     34  C1  BDP B   3       5.836  -8.885  29.9650  0.00  0.00     0.000 C
ATOM     35  C2  BDP B   3       4.805 -10.000  29.8460  0.00  0.00     0.000 C
ATOM     36  C3  BDP B   3       3.439  -9.521  29.3670  0.00  0.00     0.000 C
ATOM     37  C4  BDP B   3       3.042  -8.253  30.1390  0.00  0.00     0.000 C
ATOM     38  C5  BDP B   3       4.165  -7.220  29.9320  0.00  0.00     0.000 C
ATOM     39  O5  BDP B   3       5.298  -7.736  30.6300  0.00  0.00     0.000 O
ATOM     40   O  BDP B   3       5.372 -10.978  28.9720  0.00  0.00     0.000 O
ATOM     42  HD  BDP B   3       5.768 -11.186  29.7140  0.00  0.00     0.000 HD
ATOM     42   O  BDP B   3       2.525 -10.591  29.5960  0.00  0.00     0.000 O
ATOM     44  HD  BDP B   3       2.920 -10.799  30.3380  0.00  0.00     0.000 HD
BRANCH 38 44
ATOM     44   C  BDP B   3       3.843  -5.847  30.4330  0.00  0.00     0.000 C
ATOM     45   O  BDP B   3       3.972  -4.889  29.6400  0.00  0.00     0.000 OA
ATOM     46   O  BDP B   3       3.461  -5.694  31.6140  0.00  0.00     0.000 OA
ENDBRANCH 38 44
BRANCH 34 47
ATOM     47  O3  NAG B   4       6.688  -9.064  31.0950  0.00  0.00     0.000 O
BRANCH 47 50
ATOM     48  C1  NAG B   4      10.107 -10.501  31.7250  0.00  0.00     0.000 C
ATOM     49  C2  NAG B   4       8.601 -10.361  31.8620  0.00  0.00     0.000 C
ATOM     50  C3  NAG B   4       8.108  -9.259  30.9310  0.00  0.00     0.000 C
ATOM     51  C4  NAG B   4       8.833  -7.947  31.1850  0.00  0.00     0.000 C
ATOM     52  C5  NAG B   4      10.344  -8.164  31.1040  0.00  0.00     0.000 C
ATOM     53  O5  NAG B   4      10.743  -9.232  31.9730  0.00  0.00     0.000 O
ATOM     54   O  NAG B   4       8.408  -6.985  30.2160  0.00  0.00     0.000 O
ATOM     56  HD  NAG B   4       8.836  -6.625  30.8780  0.00  0.00     0.000 HD
ATOM     56   C  NAG B   4      11.106  -6.898  31.4760  0.00  0.00     0.000 C
ATOM     57   O  NAG B   4      10.765  -6.524  32.8180  0.00  0.00     0.000 O
ATOM     59  HD  NAG B   4      11.193  -6.164  33.4800  0.00  0.00     0.000 HD
BRANCH 49 61
ATOM     59   N  NAG B   4       8.180 -11.759  31.7590  0.00  0.00     0.000 N
ATOM     61  HD  NAG B   4       8.406 -11.192  32.3730  0.00  0.00     0.000 HD
ATOM     61   O  NAG B   4       6.783 -11.754  33.5340  0.00  0.00     0.000 OA
ATOM     62   C  NAG B   4       7.256 -12.311  32.5540  0.00  0.00     0.000 C
ATOM     63   C  NAG B   4       6.801 -13.682  32.1630  0.00  0.00     0.000 C
ENDBRANCH 49 61
BRANCH 48 64
ATOM     64  O4  BDP B   5      10.997 -11.601  31.8840  0.00  0.00     0.000 O
BRANCH 64 68
ATOM     65  C1  BDP B   5      14.497 -13.782  32.4950  0.00  0.00     0.000 C
ATOM     66  C2  BDP B   5      14.655 -12.268  32.4420  0.00  0.00     0.000 C
ATOM     67  C3  BDP B   5      13.299 -11.604  32.6490  0.00  0.00     0.000 C
ATOM     68  C4  BDP B   5      12.300 -12.120  31.6190  0.00  0.00     0.000 C
ATOM     69  C5  BDP B   5      12.224 -13.641  31.6050  0.00  0.00     0.000 C
ATOM     70  O5  BDP B   5      13.541 -14.213  31.5130  0.00  0.00     0.000 O
ATOM     71   O  BDP B   5      15.607 -11.848  33.4310  0.00  0.00     0.000 O
ATOM     73  HD  BDP B   5      16.173 -11.648  34.0550  0.00  0.00     0.000 HD
ATOM     73   O  BDP B   5      13.413 -10.181  32.5250  0.00  0.00     0.000 O
ATOM     75  HD  BDP B   5      13.978  -9.981  33.1500  0.00  0.00     0.000 HD
BRANCH 69 75
ATOM     75   C  BDP B   5      11.408 -14.063  30.4090  0.00  0.00     0.000 C
ATOM     76   O  BDP B   5      11.988 -14.612  29.4500  0.00  0.00     0.000 OA
ATOM     77   O  BDP B   5      10.180 -13.856  30.4130  0.00  0.00     0.000 OA
ENDBRANCH 69 75
BRANCH 65 78
ATOM     78  O3  NAG B   6      15.299 -14.744  31.8050  0.00  0.00     0.000 O
BRANCH 78 81
ATOM     79  C1  NAG B   6      17.741 -17.553  32.4980  0.00  0.00     0.000 C
ATOM     80  C2  NAG B   6      17.264 -16.112  32.2570  0.00  0.00     0.000 C
ATOM     81  C3  NAG B   6      15.747 -16.064  32.1840  0.00  0.00     0.000 C
ATOM     82  C4  NAG B   6      15.215 -17.101  31.1890  0.00  0.00     0.000 C
ATOM     83  C5  NAG B   6      15.756 -18.478  31.5570  0.00  0.00     0.000 C
ATOM     84  O5  NAG B   6      17.181 -18.415  31.4920  0.00  0.00     0.000 O
BRANCH 80 87
ATOM     85   N  NAG B   6      17.755 -14.743  32.1220  0.00  0.00     0.000 N
ATOM     87  HD  NAG B   6      17.705 -13.905  32.3360  0.00  0.00     0.000 HD
ATOM     87   C  NAG B   6      18.337 -14.055  33.1120  0.00  0.00     0.000 C
ATOM     88   C  NAG B   6      18.802 -12.678  32.7590  0.00  0.00     0.000 C
ATOM     89   O  NAG B   6      18.500 -14.512  34.2370  0.00  0.00     0.000 OA
ENDBRANCH 80 87
ATOM     90   O  NAG B   6      14.388 -20.464  31.3700  0.00  0.00     0.000 O
ATOM     92  HD  NAG B   6      15.037 -20.078  31.7940  0.00  0.00     0.000 HD
ATOM     92   O  NAG B   6      14.388 -20.464  31.3700  0.00  0.00     0.000 O
ATOM     94  HD  NAG B   6      15.037 -20.078  31.7940  0.00  0.00     0.000 HD
ENDBRANCH 78 81
ENDBRANCH 65 78
ENDBRANCH 64 68
ENDBRANCH 48 64
ENDBRANCH 47 50
ENDBRANCH 34 47
ENDBRANCH 33 37
ENDBRANCH 17 33
ENDBRANCH 16 19
ENDBRANCH 1 16
TORSDOF 16
ENDMDL
MODEL 98
REMARK VINA RESULT:      -8.1     10.017     18.751
ROOT
ATOM      1  C1  BDP B   1       1.396  -7.502  30.6330  0.00  0.00     0.000 C
ATOM      2  C2  BDP B   1       2.709  -6.828  30.2750  0.00  0.00     0.000 C
ATOM      3  C3  BDP B   1       3.783  -7.831  29.9120  0.00  0.00     0.000 C
ATOM      4  C4  BDP B   1       3.256  -9.235  29.6360  0.00  0.00     0.000 C
ATOM      5  C5  BDP B   1       2.264  -9.711  30.6940  0.00  0.00     0.000 C
ATOM      6  O5  BDP B   1       1.713  -8.620  31.4500  0.00  0.00     0.000 O
ATOM      7   O  BDP B   1       2.509  -5.922  29.1850  0.00  0.00     0.000 O
ATOM      9  HD  BDP B   1       2.054  -5.303  28.7850  0.00  0.00     0.000 HD
ATOM      9   O  BDP B   1       4.743  -7.927  30.9750  0.00  0.00     0.000 O
ATOM     11  HD  BDP B   1       4.288  -7.308  30.5760  0.00  0.00     0.000 HD
ATOM     11   O  BDP B   1       2.646  -9.294  28.3410  0.00  0.00     0.000 O
ATOM     13  HD  BDP B   1       2.191  -8.675  27.9420  0.00  0.00     0.000 HD
ENDROOT
BRANCH 5 13
ATOM     13   C  BDP B   1       2.999 -10.632  31.6040  0.00  0.00     0.000 C
ATOM     14   O  BDP B   1       2.949 -11.857  31.3690  0.00  0.00     0.000 OA
ATOM     15   O  BDP B   1       3.659 -10.152  32.5500  0.00  0.00     0.000 OA
ENDBRANCH 5 13
BRANCH 1 16
ATOM     16  O3  NAG B   2       0.098  -7.368  30.0570  0.00  0.00     0.000 O
BRANCH 16 19
ATOM     17  C1  NAG B   2      -2.449  -5.018  31.1740  0.00  0.00     0.000 C
ATOM     18  C2  NAG B   2      -1.113  -5.298  30.4830  0.00  0.00     0.000 C
ATOM     19  C3  NAG B   2      -1.127  -6.671  29.8280  0.00  0.00     0.000 C
ATOM     20  C4  NAG B   2      -2.304  -7.520  30.3150  0.00  0.00     0.000 C
ATOM     21  C5  NAG B   2      -2.688  -7.319  31.7880  0.00  0.00     0.000 C
ATOM     22  O5  NAG B   2      -2.526  -5.968  32.2380  0.00  0.00     0.000 O
ATOM     23   O  NAG B   2      -3.435  -7.253  29.4790  0.00  0.00     0.000 O
ATOM     25  HD  NAG B   2      -3.289  -6.400  29.4340  0.00  0.00     0.000 HD
ATOM     25   C  NAG B   2      -1.858  -8.240  32.6940  0.00  0.00     0.000 C
ATOM     26   O  NAG B   2      -2.444  -9.545  32.8020  0.00  0.00     0.000 O
ATOM     28  HD  NAG B   2      -2.298  -8.693  32.7580  0.00  0.00     0.000 HD
BRANCH 18 30
ATOM     28   N  NAG B   2      -1.971  -4.498  29.6090  0.00  0.00     0.000 N
ATOM     30  HD  NAG B   2      -2.592  -4.570  29.0100  0.00  0.00     0.000 HD
ATOM     30   C  NAG B   2      -1.544  -3.784  28.5580  0.00  0.00     0.000 C
ATOM     31   C  NAG B   2      -2.620  -3.037  27.8230  0.00  0.00     0.000 C
ATOM     32   O  NAG B   2      -0.387  -3.738  28.2100  0.00  0.00     0.000 OA
ENDBRANCH 18 30
BRANCH 17 33
ATOM     33  O4  BDP B   3      -3.263  -4.330  32.1480  0.00  0.00     0.000 O
BRANCH 33 37
ATOM     34  C1  BDP B   3      -6.742  -2.589  33.9110  0.00  0.00     0.000 C
ATOM     35  C2  BDP B   3      -6.873  -4.004  33.3600  0.00  0.00     0.000 C
ATOM     36  C3  BDP B   3      -5.535  -4.702  33.1450  0.00  0.00     0.000 C
ATOM     37  C4  BDP B   3      -4.566  -3.744  32.4370  0.00  0.00     0.000 C
ATOM     38  C5  BDP B   3      -4.465  -2.473  33.3030  0.00  0.00     0.000 C
ATOM     39  O5  BDP B   3      -5.741  -1.841  33.2110  0.00  0.00     0.000 O
ATOM     40   O  BDP B   3      -7.712  -4.713  34.2750  0.00  0.00     0.000 O
ATOM     42  HD  BDP B   3      -8.310  -4.290  33.8130  0.00  0.00     0.000 HD
ATOM     42   O  BDP B   3      -5.801  -5.863  32.3600  0.00  0.00     0.000 O
ATOM     44  HD  BDP B   3      -6.399  -5.441  31.8970  0.00  0.00     0.000 HD
BRANCH 38 44
ATOM     44   C  BDP B   3      -3.393  -1.518  32.8790  0.00  0.00     0.000 C
ATOM     45   O  BDP B   3      -2.684  -1.001  33.7690  0.00  0.00     0.000 OA
ATOM     46   O  BDP B   3      -3.238  -1.264  31.6640  0.00  0.00     0.000 OA
ENDBRANCH 38 44
BRANCH 34 47
ATOM     47  O3  NAG B   4      -7.710  -1.705  33.3480  0.00  0.00     0.000 O
BRANCH 47 50
ATOM     48  C1  NAG B   4      -8.521   0.804  36.0300  0.00  0.00     0.000 C
ATOM     49  C2  NAG B   4      -8.181  -0.554  35.4410  0.00  0.00     0.000 C
ATOM     50  C3  NAG B   4      -7.968  -0.415  33.9380  0.00  0.00     0.000 C
ATOM     51  C4  NAG B   4      -9.171   0.222  33.2590  0.00  0.00     0.000 C
ATOM     52  C5  NAG B   4      -9.508   1.549  33.9390  0.00  0.00     0.000 C
ATOM     53  O5  NAG B   4      -9.663   1.361  35.3520  0.00  0.00     0.000 O
ATOM     54   O  NAG B   4      -8.871   0.425  31.8760  0.00  0.00     0.000 O
ATOM     56  HD  NAG B   4      -9.715   0.509  32.0500  0.00  0.00     0.000 HD
ATOM     56   C  NAG B   4     -10.784   2.156  33.3670  0.00  0.00     0.000 C
ATOM     57   O  NAG B   4     -11.870   1.242  33.5730  0.00  0.00     0.000 O
ATOM     59  HD  NAG B   4     -12.714   1.326  33.7470  0.00  0.00     0.000 HD
BRANCH 49 61
ATOM     59   N  NAG B   4      -9.204  -1.259  36.2150  0.00  0.00     0.000 N
ATOM     61  HD  NAG B   4      -8.604  -1.437  35.6160  0.00  0.00     0.000 HD
ATOM     61   O  NAG B   4      -7.968  -3.088  36.6960  0.00  0.00     0.000 OA
ATOM     62   C  NAG B   4      -8.986  -2.425  36.8340  0.00  0.00     0.000 C
ATOM     63   C  NAG B   4     -10.076  -2.885  37.7500  0.00  0.00     0.000 C
ENDBRANCH 49 61
BRANCH 48 64
ATOM     64  O4  BDP B   5      -8.306   1.385  37.3130  0.00  0.00     0.000 O
BRANCH 64 68
ATOM     65  C1  BDP B   5      -5.361   1.686  40.2470  0.00  0.00     0.000 C
ATOM     66  C2  BDP B   5      -6.699   2.337  40.5750  0.00  0.00     0.000 C
ATOM     67  C3  BDP B   5      -7.775   1.793  39.6440  0.00  0.00     0.000 C
ATOM     68  C4  BDP B   5      -7.367   2.005  38.1900  0.00  0.00     0.000 C
ATOM     69  C5  BDP B   5      -5.982   1.444  37.8950  0.00  0.00     0.000 C
ATOM     70  O5  BDP B   5      -5.030   1.908  38.8670  0.00  0.00     0.000 O
ATOM     71   O  BDP B   5      -7.023   2.103  41.9540  0.00  0.00     0.000 O
ATOM     73  HD  BDP B   5      -7.179   1.917  42.7850  0.00  0.00     0.000 HD
ATOM     73   O  BDP B   5      -9.026   2.449  39.8840  0.00  0.00     0.000 O
ATOM     75  HD  BDP B   5      -9.182   2.262  40.7150  0.00  0.00     0.000 HD
BRANCH 69 75
ATOM     75   C  BDP B   5      -5.566   1.908  36.5220  0.00  0.00     0.000 C
ATOM     76   O  BDP B   5      -5.767   3.098  36.2040  0.00  0.00     0.000 OA
ATOM     77   O  BDP B   5      -5.032   1.094  35.7460  0.00  0.00     0.000 OA
ENDBRANCH 69 75
BRANCH 65 78
ATOM     78  O3  NAG B   6      -4.068   2.272  40.4170  0.00  0.00     0.000 O
BRANCH 78 81
ATOM     79  C1  NAG B   6      -0.861   1.769  42.3660  0.00  0.00     0.000 C
ATOM     80  C2  NAG B   6      -2.287   2.266  42.0810  0.00  0.00     0.000 C
ATOM     81  C3  NAG B   6      -2.793   1.691  40.7680  0.00  0.00     0.000 C
ATOM     82  C4  NAG B   6      -1.782   1.930  39.6410  0.00  0.00     0.000 C
ATOM     83  C5  NAG B   6      -0.423   1.377  40.0550  0.00  0.00     0.000 C
ATOM     84  O5  NAG B   6      -0.018   2.066  41.2390  0.00  0.00     0.000 O
BRANCH 80 87
ATOM     85   N  NAG B   6      -3.209   3.143  42.7980  0.00  0.00     0.000 N
ATOM     87  HD  NAG B   6      -4.019   3.381  42.9900  0.00  0.00     0.000 HD
ATOM     87   C  NAG B   6      -4.038   2.729  43.7640  0.00  0.00     0.000 C
ATOM     88   C  NAG B   6      -4.876   3.793  44.3980  0.00  0.00     0.000 C
ATOM     89   O  NAG B   6      -4.109   1.562  44.1290  0.00  0.00     0.000 OA
ENDBRANCH 80 87
ATOM     90   O  NAG B   6       1.020   0.254  38.4730  0.00  0.00     0.000 O
ATOM     92  HD  NAG B   6       0.774   0.314  39.3010  0.00  0.00     0.000 HD
ATOM     92   O  NAG B   6       1.020   0.254  38.4730  0.00  0.00     0.000 O
ATOM     94  HD  NAG B   6       0.774   0.314  39.3010  0.00  0.00     0.000 HD
ENDBRANCH 78 81
ENDBRANCH 65 78
ENDBRANCH 64 68
ENDBRANCH 48 64
ENDBRANCH 47 50
ENDBRANCH 34 47
ENDBRANCH 33 37
ENDBRANCH 17 33
ENDBRANCH 16 19
ENDBRANCH 1 16
TORSDOF 16
ENDMDL
MODEL 99
REMARK VINA RESULT:      -8.1     11.879     20.228
ROOT
ATOM      1  C1  BDP B   1      -0.327  -5.231  25.2360  0.00  0.00     0.000 C
ATOM      2  C2  BDP B   1      -0.246  -4.539  23.8870  0.00  0.00     0.000 C
ATOM      3  C3  BDP B   1      -1.089  -5.234  22.8390  0.00  0.00     0.000 C
ATOM      4  C4  BDP B   1      -2.094  -6.228  23.4090  0.00  0.00     0.000 C
ATOM      5  C5  BDP B   1      -1.480  -7.154  24.4550  0.00  0.00     0.000 C
ATOM      6  O5  BDP B   1      -0.255  -6.628  24.9920  0.00  0.00     0.000 O
ATOM      7   O  BDP B   1      -0.662  -3.175  24.0130  0.00  0.00     0.000 O
ATOM      9  HD  BDP B   1      -0.660  -2.416  24.4290  0.00  0.00     0.000 HD
ATOM      9   O  BDP B   1      -0.243  -5.945  21.9220  0.00  0.00     0.000 O
ATOM     11  HD  BDP B   1      -0.242  -5.186  22.3380  0.00  0.00     0.000 HD
ATOM     11   O  BDP B   1      -3.216  -5.538  23.9730  0.00  0.00     0.000 O
ATOM     13  HD  BDP B   1      -3.214  -4.779  24.3900  0.00  0.00     0.000 HD
ENDROOT
BRANCH 5 13
ATOM     13   C  BDP B   1      -1.217  -8.459  23.7890  0.00  0.00     0.000 C
ATOM     14   O  BDP B   1      -1.914  -9.441  24.1200  0.00  0.00     0.000 OA
ATOM     15   O  BDP B   1      -0.333  -8.525  22.9080  0.00  0.00     0.000 OA
ENDBRANCH 5 13
BRANCH 1 16
ATOM     16  O3  NAG B   2      -0.748  -4.737  26.5070  0.00  0.00     0.000 O
BRANCH 16 19
ATOM     17  C1  NAG B   2      -2.123  -3.679  29.7080  0.00  0.00     0.000 C
ATOM     18  C2  NAG B   2      -1.951  -4.746  28.6250  0.00  0.00     0.000 C
ATOM     19  C3  NAG B   2      -0.613  -4.582  27.9200  0.00  0.00     0.000 C
ATOM     20  C4  NAG B   2       0.031  -3.228  28.2320  0.00  0.00     0.000 C
ATOM     21  C5  NAG B   2      -0.952  -2.060  28.3900  0.00  0.00     0.000 C
ATOM     22  O5  NAG B   2      -2.191  -2.438  29.0030  0.00  0.00     0.000 O
ATOM     23   O  NAG B   2       0.819  -3.363  29.4190  0.00  0.00     0.000 O
ATOM     25  HD  NAG B   2       0.242  -3.861  29.8300  0.00  0.00     0.000 HD
ATOM     25   C  NAG B   2      -1.255  -1.420  27.0280  0.00  0.00     0.000 C
ATOM     26   O  NAG B   2      -0.270  -0.439  26.6720  0.00  0.00     0.000 O
ATOM     28  HD  NAG B   2      -0.847  -0.937  27.0830  0.00  0.00     0.000 HD
BRANCH 18 30
ATOM     28   N  NAG B   2      -2.296  -5.968  29.3500  0.00  0.00     0.000 N
ATOM     30  HD  NAG B   2      -2.816  -6.268  29.9750  0.00  0.00     0.000 HD
ATOM     30   C  NAG B   2      -1.493  -6.599  30.2180  0.00  0.00     0.000 C
ATOM     31   C  NAG B   2      -2.073  -7.844  30.8270  0.00  0.00     0.000 C
ATOM     32   O  NAG B   2      -0.385  -6.207  30.5060  0.00  0.00     0.000 OA
ENDBRANCH 18 30
BRANCH 17 33
ATOM     33  O4  BDP B   3      -2.935  -2.868  30.5830  0.00  0.00     0.000 O
BRANCH 33 37
ATOM     34  C1  BDP B   3      -4.758  -1.689  34.2620  0.00  0.00     0.000 C
ATOM     35  C2  BDP B   3      -3.687  -0.768  33.6880  0.00  0.00     0.000 C
ATOM     36  C3  BDP B   3      -3.397  -1.015  32.2110  0.00  0.00     0.000 C
ATOM     37  C4  BDP B   3      -3.254  -2.524  31.9630  0.00  0.00     0.000 C
ATOM     38  C5  BDP B   3      -4.552  -3.194  32.4560  0.00  0.00     0.000 C
ATOM     39  O5  BDP B   3      -4.544  -3.052  33.8760  0.00  0.00     0.000 O
ATOM     40   O  BDP B   3      -4.134   0.567  33.9350  0.00  0.00     0.000 O
ATOM     42  HD  BDP B   3      -3.798   0.371  34.7080  0.00  0.00     0.000 HD
ATOM     42   O  BDP B   3      -2.194  -0.311  31.9070  0.00  0.00     0.000 O
ATOM     44  HD  BDP B   3      -1.858  -0.507  32.6810  0.00  0.00     0.000 HD
BRANCH 38 44
ATOM     44   C  BDP B   3      -4.679  -4.640  32.0920  0.00  0.00     0.000 C
ATOM     45   O  BDP B   3      -5.486  -4.947  31.1860  0.00  0.00     0.000 OA
ATOM     46   O  BDP B   3      -3.988  -5.492  32.6920  0.00  0.00     0.000 OA
ENDBRANCH 38 44
BRANCH 34 47
ATOM     47  O3  NAG B   4      -4.460  -2.084  35.6000  0.00  0.00     0.000 O
BRANCH 47 50
ATOM     48  C1  NAG B   4      -6.395  -1.237  38.7120  0.00  0.00     0.000 C
ATOM     49  C2  NAG B   4      -5.334  -1.078  37.6370  0.00  0.00     0.000 C
ATOM     50  C3  NAG B   4      -5.500  -2.177  36.5950  0.00  0.00     0.000 C
ATOM     51  C4  NAG B   4      -5.473  -3.559  37.2290  0.00  0.00     0.000 C
ATOM     52  C5  NAG B   4      -6.512  -3.637  38.3480  0.00  0.00     0.000 C
ATOM     53  O5  NAG B   4      -6.326  -2.561  39.2770  0.00  0.00     0.000 O
ATOM     54   O  NAG B   4      -5.741  -4.539  36.2220  0.00  0.00     0.000 O
ATOM     56  HD  NAG B   4      -5.425  -4.886  36.9510  0.00  0.00     0.000 HD
ATOM     56   C  NAG B   4      -6.427  -4.966  39.0900  0.00  0.00     0.000 C
ATOM     57   O  NAG B   4      -5.120  -5.099  39.6630  0.00  0.00     0.000 O
ATOM     59  HD  NAG B   4      -4.805  -5.446  40.3920  0.00  0.00     0.000 HD
BRANCH 49 61
ATOM     59   N  NAG B   4      -4.249  -0.817  38.5850  0.00  0.00     0.000 N
ATOM     61  HD  NAG B   4      -4.361  -0.891  37.7290  0.00  0.00     0.000 HD
ATOM     61   O  NAG B   4      -3.245   0.825  37.4020  0.00  0.00     0.000 OA
ATOM     62   C  NAG B   4      -3.346   0.157  38.4210  0.00  0.00     0.000 C
ATOM     63   C  NAG B   4      -2.449   0.410  39.5910  0.00  0.00     0.000 C
ENDBRANCH 49 61
BRANCH 48 64
ATOM     64  O4  BDP B   5      -7.058  -0.309  39.5660  0.00  0.00     0.000 O
BRANCH 64 68
ATOM     65  C1  BDP B   5      -7.105   2.232  42.8690  0.00  0.00     0.000 C
ATOM     66  C2  BDP B   5      -6.208   1.007  42.9830  0.00  0.00     0.000 C
ATOM     67  C3  BDP B   5      -5.956   0.426  41.5980  0.00  0.00     0.000 C
ATOM     68  C4  BDP B   5      -7.280   0.114  40.9100  0.00  0.00     0.000 C
ATOM     69  C5  BDP B   5      -8.216   1.316  40.8930  0.00  0.00     0.000 C
ATOM     70  O5  BDP B   5      -8.333   1.885  42.2080  0.00  0.00     0.000 O
ATOM     71   O  BDP B   5      -4.983   1.367  43.6390  0.00  0.00     0.000 O
ATOM     73  HD  BDP B   5      -4.255   1.641  44.0200  0.00  0.00     0.000 HD
ATOM     73   O  BDP B   5      -5.177  -0.773  41.6900  0.00  0.00     0.000 O
ATOM     75  HD  BDP B   5      -4.450  -0.498  42.0710  0.00  0.00     0.000 HD
BRANCH 69 75
ATOM     75   C  BDP B   5      -9.571   0.854  40.4220  0.00  0.00     0.000 C
ATOM     76   O  BDP B   5     -10.045   1.349  39.3790  0.00  0.00     0.000 OA
ATOM     77   O  BDP B   5     -10.178  -0.010  41.0820  0.00  0.00     0.000 OA
ENDBRANCH 69 75
BRANCH 65 78
ATOM     78  O3  NAG B   6      -8.032   2.701  43.8530  0.00  0.00     0.000 O
BRANCH 78 81
ATOM     79  C1  NAG B   6      -8.661   5.881  45.8090  0.00  0.00     0.000 C
ATOM     80  C2  NAG B   6      -7.986   4.550  45.4390  0.00  0.00     0.000 C
ATOM     81  C3  NAG B   6      -8.547   4.021  44.1290  0.00  0.00     0.000 C
ATOM     82  C4  NAG B   6     -10.079   3.988  44.1650  0.00  0.00     0.000 C
ATOM     83  C5  NAG B   6     -10.607   5.370  44.5300  0.00  0.00     0.000 C
ATOM     84  O5  NAG B   6     -10.089   5.705  45.8180  0.00  0.00     0.000 O
BRANCH 80 87
ATOM     85   N  NAG B   6      -6.949   3.828  46.1690  0.00  0.00     0.000 N
ATOM     87  HD  NAG B   6      -6.322   3.230  46.1850  0.00  0.00     0.000 HD
ATOM     87   C  NAG B   6      -5.640   3.922  45.9020  0.00  0.00     0.000 C
ATOM     88   C  NAG B   6      -4.737   3.127  46.7900  0.00  0.00     0.000 C
ATOM     89   O  NAG B   6      -5.191   4.621  45.0010  0.00  0.00     0.000 OA
ENDBRANCH 80 87
ATOM     90   O  NAG B   6     -12.593   6.280  43.4920  0.00  0.00     0.000 O
ATOM     92  HD  NAG B   6     -11.826   6.459  43.8520  0.00  0.00     0.000 HD
ATOM     92   O  NAG B   6     -12.593   6.280  43.4920  0.00  0.00     0.000 O
ATOM     94  HD  NAG B   6     -11.826   6.459  43.8520  0.00  0.00     0.000 HD
ENDBRANCH 78 81
ENDBRANCH 65 78
ENDBRANCH 64 68
ENDBRANCH 48 64
ENDBRANCH 47 50
ENDBRANCH 34 47
ENDBRANCH 33 37
ENDBRANCH 17 33
ENDBRANCH 16 19
ENDBRANCH 1 16
TORSDOF 16
ENDMDL
MODEL 100
REMARK VINA RESULT:      -8.0     11.225     17.455
ROOT
ATOM      1  C1  BDP B   1      -1.114  -6.487  24.1540  0.00  0.00     0.000 C
ATOM      2  C2  BDP B   1      -2.460  -6.441  23.4520  0.00  0.00     0.000 C
ATOM      3  C3  BDP B   1      -3.158  -7.784  23.4710  0.00  0.00     0.000 C
ATOM      4  C4  BDP B   1      -2.565  -8.779  24.4620  0.00  0.00     0.000 C
ATOM      5  C5  BDP B   1      -1.043  -8.848  24.3900  0.00  0.00     0.000 C
ATOM      6  O5  BDP B   1      -0.478  -7.691  23.7510  0.00  0.00     0.000 O
ATOM      7   O  BDP B   1      -3.297  -5.456  24.0680  0.00  0.00     0.000 O
ATOM      9  HD  BDP B   1      -3.420  -4.669  24.4070  0.00  0.00     0.000 HD
ATOM      9   O  BDP B   1      -3.104  -8.383  22.1670  0.00  0.00     0.000 O
ATOM     11  HD  BDP B   1      -3.227  -7.596  22.5070  0.00  0.00     0.000 HD
ATOM     11   O  BDP B   1      -2.971  -8.456  25.7980  0.00  0.00     0.000 O
ATOM     13  HD  BDP B   1      -3.094  -7.669  26.1380  0.00  0.00     0.000 HD
ENDROOT
BRANCH 5 13
ATOM     13   C  BDP B   1      -0.693 -10.070  23.6140  0.00  0.00     0.000 C
ATOM     14   O  BDP B   1      -1.625 -10.755  23.1430  0.00  0.00     0.000 OA
ATOM     15   O  BDP B   1       0.511 -10.355  23.4380  0.00  0.00     0.000 OA
ENDBRANCH 5 13
BRANCH 1 16
ATOM     16  O3  NAG B   2      -0.624  -5.744  25.2680  0.00  0.00     0.000 O
BRANCH 16 19
ATOM     17  C1  NAG B   2      -1.554  -4.368  28.5080  0.00  0.00     0.000 C
ATOM     18  C2  NAG B   2      -1.641  -5.484  27.4660  0.00  0.00     0.000 C
ATOM     19  C3  NAG B   2      -0.354  -5.564  26.6590  0.00  0.00     0.000 C
ATOM     20  C4  NAG B   2       0.519  -4.323  26.8600  0.00  0.00     0.000 C
ATOM     21  C5  NAG B   2      -0.250  -3.006  27.0350  0.00  0.00     0.000 C
ATOM     22  O5  NAG B   2      -1.480  -3.157  27.7530  0.00  0.00     0.000 O
ATOM     23   O  NAG B   2       1.368  -4.542  27.9910  0.00  0.00     0.000 O
ATOM     25  HD  NAG B   2       0.754  -4.926  28.4660  0.00  0.00     0.000 HD
ATOM     25   C  NAG B   2      -0.554  -2.372  25.6700  0.00  0.00     0.000 C
ATOM     26   O  NAG B   2       0.543  -1.576  25.1980  0.00  0.00     0.000 O
ATOM     28  HD  NAG B   2      -0.072  -1.960  25.6730  0.00  0.00     0.000 HD
BRANCH 18 30
ATOM     28   N  NAG B   2      -1.108  -6.082  28.6900  0.00  0.00     0.000 N
ATOM     30  HD  NAG B   2      -0.371  -6.361  29.0480  0.00  0.00     0.000 HD
ATOM     30   C  NAG B   2      -1.358  -7.332  29.1060  0.00  0.00     0.000 C
ATOM     31   C  NAG B   2      -0.700  -7.709  30.4030  0.00  0.00     0.000 C
ATOM     32   O  NAG B   2      -2.051  -8.112  28.4940  0.00  0.00     0.000 OA
ENDBRANCH 18 30
BRANCH 17 33
ATOM     33  O4  BDP B   3      -2.155  -3.406  29.4020  0.00  0.00     0.000 O
BRANCH 33 37
ATOM     34  C1  BDP B   3      -2.309  -0.717  32.7160  0.00  0.00     0.000 C
ATOM     35  C2  BDP B   3      -0.930  -1.104  32.1960  0.00  0.00     0.000 C
ATOM     36  C3  BDP B   3      -0.951  -1.701  30.7940  0.00  0.00     0.000 C
ATOM     37  C4  BDP B   3      -2.074  -2.745  30.6980  0.00  0.00     0.000 C
ATOM     38  C5  BDP B   3      -3.388  -2.040  31.0870  0.00  0.00     0.000 C
ATOM     39  O5  BDP B   3      -3.272  -1.751  32.4800  0.00  0.00     0.000 O
ATOM     40   O  BDP B   3      -0.129   0.077  32.2700  0.00  0.00     0.000 O
ATOM     42  HD  BDP B   3      -0.086  -0.190  33.0930  0.00  0.00     0.000 HD
ATOM     42   O  BDP B   3       0.334  -2.282  30.5760  0.00  0.00     0.000 O
ATOM     44  HD  BDP B   3       0.376  -2.549  31.3980  0.00  0.00     0.000 HD
BRANCH 38 44
ATOM     44   C  BDP B   3      -4.622  -2.850  30.8390  0.00  0.00     0.000 C
ATOM     45   O  BDP B   3      -4.794  -3.881  31.5270  0.00  0.00     0.000 OA
ATOM     46   O  BDP B   3      -5.436  -2.484  29.9640  0.00  0.00     0.000 OA
ENDBRANCH 38 44
BRANCH 34 47
ATOM     47  O3  NAG B   4      -2.450  -0.987  34.1090  0.00  0.00     0.000 O
BRANCH 47 50
ATOM     48  C1  NAG B   4      -3.399   1.848  36.3930  0.00  0.00     0.000 C
ATOM     49  C2  NAG B   4      -2.515   1.037  35.4620  0.00  0.00     0.000 C
ATOM     50  C3  NAG B   4      -3.294  -0.166  34.9430  0.00  0.00     0.000 C
ATOM     51  C4  NAG B   4      -3.852  -1.005  36.0820  0.00  0.00     0.000 C
ATOM     52  C5  NAG B   4      -4.674  -0.123  37.0220  0.00  0.00     0.000 C
ATOM     53  O5  NAG B   4      -3.902   1.007  37.4490  0.00  0.00     0.000 O
ATOM     54   O  NAG B   4      -4.660  -2.052  35.5370  0.00  0.00     0.000 O
ATOM     56  HD  NAG B   4      -4.468  -2.179  36.3710  0.00  0.00     0.000 HD
ATOM     56   C  NAG B   4      -5.146  -0.904  38.2430  0.00  0.00     0.000 C
ATOM     57   O  NAG B   4      -4.002  -1.396  38.9540  0.00  0.00     0.000 O
ATOM     59  HD  NAG B   4      -3.810  -1.523  39.7880  0.00  0.00     0.000 HD
BRANCH 49 61
ATOM     59   N  NAG B   4      -1.335   1.083  36.3270  0.00  0.00     0.000 N
ATOM     61  HD  NAG B   4      -1.567   0.751  35.5610  0.00  0.00     0.000 HD
ATOM     61   O  NAG B   4       0.184   1.443  34.6950  0.00  0.00     0.000 OA
ATOM     62   C  NAG B   4      -0.103   1.353  35.8800  0.00  0.00     0.000 C
ATOM     63   C  NAG B   4       0.935   1.568  36.9350  0.00  0.00     0.000 C
ENDBRANCH 49 61
BRANCH 48 64
ATOM     64  O4  BDP B   5      -3.447   3.232  36.7230  0.00  0.00     0.000 O
BRANCH 64 68
ATOM     65  C1  BDP B   5      -0.176   5.470  38.0150  0.00  0.00     0.000 C
ATOM     66  C2  BDP B   5      -1.265   5.220  39.0510  0.00  0.00     0.000 C
ATOM     67  C3  BDP B   5      -2.151   4.068  38.5960  0.00  0.00     0.000 C
ATOM     68  C4  BDP B   5      -2.721   4.360  37.2120  0.00  0.00     0.000 C
ATOM     69  C5  BDP B   5      -1.634   4.712  36.2050  0.00  0.00     0.000 C
ATOM     70  O5  BDP B   5      -0.767   5.731  36.7320  0.00  0.00     0.000 O
ATOM     71   O  BDP B   5      -0.663   4.955  40.3280  0.00  0.00     0.000 O
ATOM     73  HD  BDP B   5      -0.249   4.781  41.0680  0.00  0.00     0.000 HD
ATOM     73   O  BDP B   5      -3.228   3.866  39.5180  0.00  0.00     0.000 O
ATOM     75  HD  BDP B   5      -2.814   3.693  40.2590  0.00  0.00     0.000 HD
BRANCH 69 75
ATOM     75   C  BDP B   5      -2.298   5.217  34.9490  0.00  0.00     0.000 C
ATOM     76   O  BDP B   5      -2.953   6.277  35.0020  0.00  0.00     0.000 OA
ATOM     77   O  BDP B   5      -2.171   4.565  33.8960  0.00  0.00     0.000 OA
ENDBRANCH 69 75
BRANCH 65 78
ATOM     78  O3  NAG B   6       0.451   6.723  37.7290  0.00  0.00     0.000 O
BRANCH 78 81
ATOM     79  C1  NAG B   6       3.704   8.589  37.2070  0.00  0.00     0.000 C
ATOM     80  C2  NAG B   6       2.421   8.144  37.9260  0.00  0.00     0.000 C
ATOM     81  C3  NAG B   6       1.732   7.039  37.1420  0.00  0.00     0.000 C
ATOM     82  C4  NAG B   6       1.550   7.444  35.6750  0.00  0.00     0.000 C
ATOM     83  C5  NAG B   6       2.898   7.846  35.0890  0.00  0.00     0.000 C
ATOM     84  O5  NAG B   6       3.388   8.950  35.8500  0.00  0.00     0.000 O
BRANCH 80 87
ATOM     85   N  NAG B   6       1.753   8.543  39.1620  0.00  0.00     0.000 N
ATOM     87  HD  NAG B   6       1.254   8.344  39.8410  0.00  0.00     0.000 HD
ATOM     87   C  NAG B   6       2.069   8.066  40.3720  0.00  0.00     0.000 C
ATOM     88   C  NAG B   6       1.288   8.630  41.5160  0.00  0.00     0.000 C
ATOM     89   O  NAG B   6       2.948   7.232  40.5530  0.00  0.00     0.000 OA
ENDBRANCH 80 87
ATOM     90   O  NAG B   6       3.517   7.264  32.8250  0.00  0.00     0.000 O
ATOM     92  HD  NAG B   6       3.801   7.419  33.6280  0.00  0.00     0.000 HD
ATOM     92   O  NAG B   6       3.517   7.264  32.8250  0.00  0.00     0.000 O
ATOM     94  HD  NAG B   6       3.801   7.419  33.6280  0.00  0.00     0.000 HD
ENDBRANCH 78 81
ENDBRANCH 65 78
ENDBRANCH 64 68
ENDBRANCH 48 64
ENDBRANCH 47 50
ENDBRANCH 34 47
ENDBRANCH 33 37
ENDBRANCH 17 33
ENDBRANCH 16 19
ENDBRANCH 1 16
TORSDOF 16
ENDMDL
