MODEL 1
REMARK VINA RESULT:       0.0      0.000      0.000
ROOT
ATOM      1  C1  A00 X   1      47.963 114.751  40.0630  0.00  0.00     0.000 C
ATOM      2  C2  A00 X   1      47.464 116.186  39.7470  0.00  0.00     0.000 C
ATOM      3  C3  A00 X   1      46.116 116.609  40.4190  0.00  0.00     0.000 C
ATOM      4  C4  A00 X   1      45.269 115.450  41.0050  0.00  0.00     0.000 C
ATOM      5  C5  A00 X   1      45.609 114.105  40.3630  0.00  0.00     0.000 C
ATOM      6  O5  A00 X   1      46.996 113.878  40.6990  0.00  0.00     0.000 O
ATOM      7   O  A00 X   1      45.301 117.253  39.4430  0.00  0.00     0.000 O
ATOM      9  HD  A00 X   1      44.783 116.737  39.9070  0.00  0.00     0.000 HD
ATOM      9   O  A00 X   1      45.417 115.360  42.4220  0.00  0.00     0.000 O
ATOM     11  HD  A00 X   1      44.899 114.844  42.8860  0.00  0.00     0.000 HD
ENDROOT
BRANCH 2 11
ATOM     11   O  A00 X   1      48.497 117.107  40.1480  0.00  0.00     0.000 O
ATOM     12   O  A00 X   1      48.153 119.484  40.1390  0.00  0.00     0.000 OA
ATOM     13   O  A00 X   1      48.084 118.263  38.0360  0.00  0.00     0.000 OA
ATOM     14   O  A00 X   1      50.130 118.499  39.2260  0.00  0.00     0.000 OA
ATOM     15   S  A00 X   1      48.697 118.427  39.3250  0.00  0.00     0.000 S
ENDBRANCH 2 11
BRANCH 5 16
ATOM     16   C  A00 X   1      45.319 114.011  38.8620  0.00  0.00     0.000 C
ATOM     17   O  A00 X   1      45.759 113.065  38.2430  0.00  0.00     0.000 OA
ATOM     18   O  A00 X   1      44.660 114.845  38.2720  0.00  0.00     0.000 OA
ENDBRANCH 5 16
BRANCH 1 19
ATOM     19  O4  A00 X   2      48.584 114.109  38.9230  0.00  0.00     0.000 O
BRANCH 19 23
ATOM     20  C1  A00 X   2      51.664 112.251  41.2530  0.00  0.00     0.000 C
ATOM     21  C2  A00 X   2      52.011 113.581  40.5400  0.00  0.00     0.000 C
ATOM     22  C3  A00 X   2      50.729 114.331  40.1210  0.00  0.00     0.000 C
ATOM     23  C4  A00 X   2      49.816 113.416  39.2740  0.00  0.00     0.000 C
ATOM     24  C5  A00 X   2      49.559 112.117  40.0870  0.00  0.00     0.000 C
ATOM     25  O5  A00 X   2      50.832 111.473  40.3520  0.00  0.00     0.000 O
ATOM     26   O  A00 X   2      51.102 115.586  39.5270  0.00  0.00     0.000 O
ATOM     28  HD  A00 X   2      51.673 115.219  38.9900  0.00  0.00     0.000 HD
BRANCH 21 30
ATOM     28   N  A00 X   2      53.372 113.074  40.3410  0.00  0.00     0.000 N
ATOM     30  HD  A00 X   2      53.400 113.928  40.2000  0.00  0.00     0.000 HD
ATOM     30   O  A00 X   2      54.838 114.893  40.3830  0.00  0.00     0.000 OA
ATOM     31   S  A00 X   2      54.375 113.920  39.4580  0.00  0.00     0.000 S
ATOM     32   O  A00 X   2      55.355 112.962  39.0470  0.00  0.00     0.000 OA
ATOM     33   O  A00 X   2      53.641 114.399  38.3250  0.00  0.00     0.000 OA
ENDBRANCH 21 30
BRANCH 24 34
ATOM     34   C  A00 X   2      48.489 111.132  39.5620  0.00  0.00     0.000 C
ATOM     35   O  A00 X   2      49.205 107.735  38.4660  0.00  0.00     0.000 OA
ATOM     36   O  A00 X   2      49.095 110.016  38.8810  0.00  0.00     0.000 O
ATOM     37   O  A00 X   2      49.770 108.581  40.6000  0.00  0.00     0.000 OA
ATOM     38   S  A00 X   2      48.824 108.608  39.5270  0.00  0.00     0.000 S
ATOM     39   O  A00 X   2      47.434 108.579  39.8670  0.00  0.00     0.000 OA
ENDBRANCH 24 34
BRANCH 20 40
ATOM     40  O4  A00 X   3      50.902 112.620  42.4110  0.00  0.00     0.000 O
BRANCH 40 44
ATOM     41  C1  A00 X   3      48.013 111.975  44.5000  0.00  0.00     0.000 C
ATOM     42  C2  A00 X   3      49.023 113.121  44.7240  0.00  0.00     0.000 C
ATOM     43  C3  A00 X   3      50.479 112.587  44.7220  0.00  0.00     0.000 C
ATOM     44  C4  A00 X   3      50.828 111.708  43.5280  0.00  0.00     0.000 C
ATOM     45  C5  A00 X   3      49.772 110.578  43.3710  0.00  0.00     0.000 C
ATOM     46  O5  A00 X   3      48.414 111.127  43.3890  0.00  0.00     0.000 O
ATOM     47   O  A00 X   3      51.495 113.546  45.0070  0.00  0.00     0.000 O
ATOM     49  HD  A00 X   3      51.922 113.110  44.3930  0.00  0.00     0.000 HD
BRANCH 42 49
ATOM     49   O  A00 X   3      48.813 114.084  43.6680  0.00  0.00     0.000 O
ATOM     50   O  A00 X   3      49.818 116.143  42.9750  0.00  0.00     0.000 OA
ATOM     51   O  A00 X   3      49.482 115.758  45.2830  0.00  0.00     0.000 OA
ATOM     52   O  A00 X   3      47.587 116.073  43.9050  0.00  0.00     0.000 OA
ATOM     53   S  A00 X   3      48.930 115.609  43.9590  0.00  0.00     0.000 S
ENDBRANCH 42 49
BRANCH 45 54
ATOM     54   C  A00 X   3      49.983 109.457  44.3950  0.00  0.00     0.000 C
ATOM     55   O  A00 X   3      50.795 109.581  45.2900  0.00  0.00     0.000 OA
ATOM     56   O  A00 X   3      49.341 108.420  44.3290  0.00  0.00     0.000 OA
ENDBRANCH 45 54
BRANCH 41 57
ATOM     57  O4  A00 X   4      47.744 111.254  45.7230  0.00  0.00     0.000 O
BRANCH 57 61
ATOM     58  C1  A00 X   4      44.224 109.282  47.2610  0.00  0.00     0.000 C
ATOM     59  C2  A00 X   4      44.859 108.751  45.9510  0.00  0.00     0.000 C
ATOM     60  C3  A00 X   4      46.284 109.285  45.6980  0.00  0.00     0.000 C
ATOM     61  C4  A00 X   4      46.366 110.814  45.8900  0.00  0.00     0.000 C
ATOM     62  C5  A00 X   4      45.885 111.098  47.3350  0.00  0.00     0.000 C
ATOM     63  O5  A00 X   4      44.500 110.687  47.4660  0.00  0.00     0.000 O
BRANCH 59 66
ATOM     64   N  A00 X   4      44.053 109.198  44.8000  0.00  0.00     0.000 N
ATOM     66  HD  A00 X   4      43.603 109.933  44.8880  0.00  0.00     0.000 HD
ATOM     66   O  A00 X   4      42.584 107.340  45.2350  0.00  0.00     0.000 OA
ATOM     67   S  A00 X   4      43.021 108.163  44.1510  0.00  0.00     0.000 S
ATOM     68   O  A00 X   4      42.039 109.069  43.6300  0.00  0.00     0.000 OA
ATOM     69   O  A00 X   4      43.858 107.564  43.1510  0.00  0.00     0.000 OA
ENDBRANCH 59 66
BRANCH 62 70
ATOM     70   C  A00 X   4      45.999 112.582  47.7590  0.00  0.00     0.000 C
ATOM     71   O  A00 X   4      44.089 115.424  46.5820  0.00  0.00     0.000 OA
ATOM     72   O  A00 X   4      46.413 115.131  46.8230  0.00  0.00     0.000 OA
ATOM     73   O  A00 X   4      44.886 113.316  47.2230  0.00  0.00     0.000 O
ATOM     74   O  A00 X   4      45.253 114.067  44.9630  0.00  0.00     0.000 OA
ATOM     75   S  A00 X   4      45.194 114.550  46.3050  0.00  0.00     0.000 S
ENDBRANCH 62 70
ENDBRANCH 57 61
ENDBRANCH 41 57
ENDBRANCH 40 44
ENDBRANCH 20 40
ENDBRANCH 19 23
ENDBRANCH 1 19
TORSDOF 14
ENDMDL
MODEL 2
REMARK VINA RESULT:       0.0     95.942    100.933
ROOT
ATOM      1  C1  A00 X   1     133.550  65.243  29.2050  0.00  0.00     0.000 C
ATOM      2  C2  A00 X   1     132.462  66.324  28.9640  0.00  0.00     0.000 C
ATOM      3  C3  A00 X   1     131.988  67.116  30.2270  0.00  0.00     0.000 C
ATOM      4  C4  A00 X   1     132.376  66.492  31.5920  0.00  0.00     0.000 C
ATOM      5  C5  A00 X   1     132.656  64.993  31.4830  0.00  0.00     0.000 C
ATOM      6  O5  A00 X   1     133.789  64.895  30.5920  0.00  0.00     0.000 O
ATOM      7   O  A00 X   1     130.565  67.197  30.2080  0.00  0.00     0.000 O
ATOM      9  HD  A00 X   1     130.801  67.035  31.0250  0.00  0.00     0.000 HD
ATOM      9   O  A00 X   1     133.504  67.152  32.1660  0.00  0.00     0.000 O
ATOM     11  HD  A00 X   1     133.740  66.990  32.9840  0.00  0.00     0.000 HD
ENDROOT
BRANCH 2 11
ATOM     11   O  A00 X   1     132.978  67.255  27.9920  0.00  0.00     0.000 O
ATOM     12   O  A00 X   1     131.818  69.283  27.4370  0.00  0.00     0.000 OA
ATOM     13   O  A00 X   1     130.780  67.142  26.9320  0.00  0.00     0.000 OA
ATOM     14   O  A00 X   1     132.718  67.849  25.7490  0.00  0.00     0.000 OA
ATOM     15   S  A00 X   1     131.983  67.925  26.9830  0.00  0.00     0.000 S
ENDBRANCH 2 11
BRANCH 5 16
ATOM     16   C  A00 X   1     131.459  64.141  31.0480  0.00  0.00     0.000 C
ATOM     17   O  A00 X   1     131.652  62.984  30.7350  0.00  0.00     0.000 OA
ATOM     18   O  A00 X   1     130.326  64.578  31.0120  0.00  0.00     0.000 OA
ENDBRANCH 5 16
BRANCH 1 19
ATOM     19  O4  A00 X   2     133.357  64.061  28.3900  0.00  0.00     0.000 O
BRANCH 19 23
ATOM     20  C1  A00 X   2     137.539  63.546  27.6060  0.00  0.00     0.000 C
ATOM     21  C2  A00 X   2     136.692  64.263  26.5260  0.00  0.00     0.000 C
ATOM     22  C3  A00 X   2     135.352  64.753  27.1140  0.00  0.00     0.000 C
ATOM     23  C4  A00 X   2     134.597  63.587  27.7920  0.00  0.00     0.000 C
ATOM     24  C5  A00 X   2     135.554  62.943  28.8330  0.00  0.00     0.000 C
ATOM     25  O5  A00 X   2     136.737  62.461  28.1440  0.00  0.00     0.000 O
ATOM     26   O  A00 X   2     134.636  65.469  26.0950  0.00  0.00     0.000 O
ATOM     28  HD  A00 X   2     134.733  64.837  25.5110  0.00  0.00     0.000 HD
BRANCH 21 30
ATOM     28   N  A00 X   2     137.545  63.646  25.5060  0.00  0.00     0.000 N
ATOM     30  HD  A00 X   2     137.111  64.286  25.1160  0.00  0.00     0.000 HD
ATOM     30   O  A00 X   2     137.676  65.106  23.6870  0.00  0.00     0.000 OA
ATOM     31   S  A00 X   2     137.154  63.819  23.9840  0.00  0.00     0.000 S
ATOM     32   O  A00 X   2     137.822  62.732  23.3370  0.00  0.00     0.000 OA
ATOM     33   O  A00 X   2     135.734  63.657  23.8910  0.00  0.00     0.000 OA
ENDBRANCH 21 30
BRANCH 24 34
ATOM     34   C  A00 X   2     134.966  61.900  29.8120  0.00  0.00     0.000 C
ATOM     35   O  A00 X   2     135.974  58.403  29.9160  0.00  0.00     0.000 OA
ATOM     36   O  A00 X   2     135.281  60.557  29.3950  0.00  0.00     0.000 O
ATOM     37   O  A00 X   2     137.474  60.218  30.1360  0.00  0.00     0.000 OA
ATOM     38   S  A00 X   2     136.157  59.729  30.4070  0.00  0.00     0.000 S
ATOM     39   O  A00 X   2     135.612  59.975  31.7080  0.00  0.00     0.000 OA
ENDBRANCH 24 34
BRANCH 20 40
ATOM     40  O4  A00 X   3     137.772  64.524  28.6290  0.00  0.00     0.000 O
BRANCH 40 44
ATOM     41  C1  A00 X   3     137.866  65.292  32.1680  0.00  0.00     0.000 C
ATOM     42  C2  A00 X   3     138.136  66.310  31.0390  0.00  0.00     0.000 C
ATOM     43  C3  A00 X   3     139.186  65.764  30.0380  0.00  0.00     0.000 C
ATOM     44  C4  A00 X   3     138.896  64.360  29.5200  0.00  0.00     0.000 C
ATOM     45  C5  A00 X   3     138.641  63.395  30.7120  0.00  0.00     0.000 C
ATOM     46  O5  A00 X   3     137.653  63.955  31.6360  0.00  0.00     0.000 O
ATOM     47   O  A00 X   3     139.578  66.657  28.9970  0.00  0.00     0.000 O
ATOM     49  HD  A00 X   3     139.563  65.932  28.5230  0.00  0.00     0.000 HD
BRANCH 42 49
ATOM     49   O  A00 X   3     136.871  66.567  30.3910  0.00  0.00     0.000 O
ATOM     50   O  A00 X   3     136.110  67.872  28.5330  0.00  0.00     0.000 OA
ATOM     51   O  A00 X   3     137.711  68.804  30.0020  0.00  0.00     0.000 OA
ATOM     52   O  A00 X   3     135.518  68.441  30.8070  0.00  0.00     0.000 OA
ATOM     53   S  A00 X   3     136.518  68.001  29.8970  0.00  0.00     0.000 S
ENDBRANCH 42 49
BRANCH 45 54
ATOM     54   C  A00 X   3     139.949  62.987  31.4010  0.00  0.00     0.000 C
ATOM     55   O  A00 X   3     139.954  62.127  32.2580  0.00  0.00     0.000 OA
ATOM     56   O  A00 X   3     141.006  63.521  31.1030  0.00  0.00     0.000 OA
ENDBRANCH 45 54
BRANCH 41 57
ATOM     57  O4  A00 X   4     138.877  65.359  33.2000  0.00  0.00     0.000 O
BRANCH 57 61
ATOM     58  C1  A00 X   4     138.753  64.785  37.4770  0.00  0.00     0.000 C
ATOM     59  C2  A00 X   4     138.376  63.596  36.5580  0.00  0.00     0.000 C
ATOM     60  C3  A00 X   4     138.797  63.797  35.0880  0.00  0.00     0.000 C
ATOM     61  C4  A00 X   4     138.384  65.188  34.5590  0.00  0.00     0.000 C
ATOM     62  C5  A00 X   4     139.042  66.226  35.5020  0.00  0.00     0.000 C
ATOM     63  O5  A00 X   4     138.508  66.060  36.8400  0.00  0.00     0.000 O
BRANCH 59 66
ATOM     64   N  A00 X   4     136.913  63.414  36.5230  0.00  0.00     0.000 N
ATOM     66  HD  A00 X   4     136.420  64.113  36.6550  0.00  0.00     0.000 HD
ATOM     66   O  A00 X   4     137.114  62.213  38.6010  0.00  0.00     0.000 OA
ATOM     67   S  A00 X   4     136.269  62.280  37.4500  0.00  0.00     0.000 S
ATOM     68   O  A00 X   4     134.967  62.837  37.6720  0.00  0.00     0.000 OA
ATOM     69   O  A00 X   4     136.287  61.170  36.5400  0.00  0.00     0.000 OA
ENDBRANCH 59 66
BRANCH 62 70
ATOM     70   C  A00 X   4     138.833  67.696  35.0680  0.00  0.00     0.000 C
ATOM     71   O  A00 X   4     135.787  69.652  35.0970  0.00  0.00     0.000 OA
ATOM     72   O  A00 X   4     137.389  69.333  33.4010  0.00  0.00     0.000 OA
ATOM     73   O  A00 X   4     137.528  68.132  35.4800  0.00  0.00     0.000 O
ATOM     74   O  A00 X   4     135.799  67.556  33.9040  0.00  0.00     0.000 OA
ATOM     75   S  A00 X   4     136.552  68.672  34.3780  0.00  0.00     0.000 S
ENDBRANCH 62 70
ENDBRANCH 57 61
ENDBRANCH 41 57
ENDBRANCH 40 44
ENDBRANCH 20 40
ENDBRANCH 19 23
ENDBRANCH 1 19
TORSDOF 14
ENDMDL
MODEL 3
REMARK VINA RESULT:       0.0     60.494     65.492
ROOT
ATOM      1  C1  A00 X   1      90.771  68.560  19.5710  0.00  0.00     0.000 C
ATOM      2  C2  A00 X   1      89.485  67.710  19.7510  0.00  0.00     0.000 C
ATOM      3  C3  A00 X   1      88.160  68.508  19.9800  0.00  0.00     0.000 C
ATOM      4  C4  A00 X   1      88.337  70.000  20.3650  0.00  0.00     0.000 C
ATOM      5  C5  A00 X   1      89.711  70.281  20.9710  0.00  0.00     0.000 C
ATOM      6  O5  A00 X   1      90.649  69.961  19.9190  0.00  0.00     0.000 O
ATOM      7   O  A00 X   1      87.437  67.898  21.0480  0.00  0.00     0.000 O
ATOM      9  HD  A00 X   1      87.375  68.756  21.1540  0.00  0.00     0.000 HD
ATOM      9   O  A00 X   1      88.120  70.857  19.2440  0.00  0.00     0.000 O
ATOM     11  HD  A00 X   1      88.057  71.714  19.3510  0.00  0.00     0.000 HD
ENDROOT
BRANCH 2 11
ATOM     11   O  A00 X   1      89.338  66.884  18.5790  0.00  0.00     0.000 O
ATOM     12   O  A00 X   1      87.372  65.558  18.1980  0.00  0.00     0.000 OA
ATOM     13   O  A00 X   1      88.791  65.061  20.1100  0.00  0.00     0.000 OA
ATOM     14   O  A00 X   1      89.568  64.663  17.8970  0.00  0.00     0.000 OA
ATOM     15   S  A00 X   1      88.707  65.457  18.7310  0.00  0.00     0.000 S
ENDBRANCH 2 11
BRANCH 5 16
ATOM     16   C  A00 X   1      89.998  69.555  22.2900  0.00  0.00     0.000 C
ATOM     17   O  A00 X   1      91.133  69.558  22.7200  0.00  0.00     0.000 OA
ATOM     18   O  A00 X   1      89.132  68.984  22.9210  0.00  0.00     0.000 OA
ENDBRANCH 5 16
BRANCH 1 19
ATOM     19  O4  A00 X   2      91.932  67.959  20.1950  0.00  0.00     0.000 O
BRANCH 19 23
ATOM     20  C1  A00 X   2      94.590  69.055  17.0170  0.00  0.00     0.000 C
ATOM     21  C2  A00 X   2      94.020  67.616  17.0070  0.00  0.00     0.000 C
ATOM     22  C3  A00 X   2      92.783  67.509  17.9230  0.00  0.00     0.000 C
ATOM     23  C4  A00 X   2      93.114  68.014  19.3460  0.00  0.00     0.000 C
ATOM     24  C5  A00 X   2      93.691  69.450  19.2170  0.00  0.00     0.000 C
ATOM     25  O5  A00 X   2      94.886  69.402  18.3950  0.00  0.00     0.000 O
ATOM     26   O  A00 X   2      92.251  66.177  17.8270  0.00  0.00     0.000 O
ATOM     28  HD  A00 X   2      93.021  65.805  17.9680  0.00  0.00     0.000 HD
BRANCH 21 30
ATOM     28   N  A00 X   2      95.293  67.156  16.4450  0.00  0.00     0.000 N
ATOM     30  HD  A00 X   2      94.719  66.519  16.3210  0.00  0.00     0.000 HD
ATOM     30   O  A00 X   2      94.857  65.326  15.0590  0.00  0.00     0.000 OA
ATOM     31   S  A00 X   2      95.531  65.602  16.2780  0.00  0.00     0.000 S
ATOM     32   O  A00 X   2      96.955  65.481  16.2210  0.00  0.00     0.000 OA
ATOM     33   O  A00 X   2      95.025  64.967  17.4580  0.00  0.00     0.000 OA
ENDBRANCH 21 30
BRANCH 24 34
ATOM     34   C  A00 X   2      93.890  70.271  20.5130  0.00  0.00     0.000 C
ATOM     35   O  A00 X   2      97.129  71.396  21.7390  0.00  0.00     0.000 OA
ATOM     36   O  A00 X   2      95.271  70.266  20.9280  0.00  0.00     0.000 O
ATOM     37   O  A00 X   2      96.290  71.884  19.5820  0.00  0.00     0.000 OA
ATOM     38   S  A00 X   2      95.967  71.675  20.9610  0.00  0.00     0.000 S
ATOM     39   O  A00 X   2      95.032  72.575  21.5670  0.00  0.00     0.000 OA
ENDBRANCH 24 34
BRANCH 20 40
ATOM     40  O4  A00 X   3      93.533  69.894  16.5270  0.00  0.00     0.000 O
BRANCH 40 44
ATOM     41  C1  A00 X   3      91.648  72.967  16.8820  0.00  0.00     0.000 C
ATOM     42  C2  A00 X   3      91.375  71.885  15.8150  0.00  0.00     0.000 C
ATOM     43  C3  A00 X   3      92.676  71.513  15.0570  0.00  0.00     0.000 C
ATOM     44  C4  A00 X   3      93.859  71.179  15.9560  0.00  0.00     0.000 C
ATOM     45  C5  A00 X   3      94.073  72.314  16.9980  0.00  0.00     0.000 C
ATOM     46  O5  A00 X   3      92.819  72.639  17.6800  0.00  0.00     0.000 O
ATOM     47   O  A00 X   3      92.528  70.584  13.9850  0.00  0.00     0.000 O
ATOM     49  HD  A00 X   3      93.278  70.281  14.2930  0.00  0.00     0.000 HD
BRANCH 42 49
ATOM     49   O  A00 X   3      90.819  70.743  16.5020  0.00  0.00     0.000 O
ATOM     50   O  A00 X   3      90.103  68.539  15.9010  0.00  0.00     0.000 OA
ATOM     51   O  A00 X   3      89.556  70.345  14.4760  0.00  0.00     0.000 OA
ATOM     52   O  A00 X   3      88.529  70.235  16.6020  0.00  0.00     0.000 OA
ATOM     53   S  A00 X   3      89.685  69.905  15.8430  0.00  0.00     0.000 S
ENDBRANCH 42 49
BRANCH 45 54
ATOM     54   C  A00 X   3      94.755  73.537  16.3730  0.00  0.00     0.000 C
ATOM     55   O  A00 X   3      95.132  74.457  17.0680  0.00  0.00     0.000 OA
ATOM     56   O  A00 X   3      94.928  73.607  15.1660  0.00  0.00     0.000 OA
ENDBRANCH 45 54
BRANCH 41 57
ATOM     57  O4  A00 X   4      91.683  74.291  16.3040  0.00  0.00     0.000 O
BRANCH 57 61
ATOM     58  C1  A00 X   4      90.481  78.172  17.7640  0.00  0.00     0.000 C
ATOM     59  C2  A00 X   4      91.616  77.421  18.5040  0.00  0.00     0.000 C
ATOM     60  C3  A00 X   4      92.198  76.240  17.7000  0.00  0.00     0.000 C
ATOM     61  C4  A00 X   4      91.086  75.338  17.1210  0.00  0.00     0.000 C
ATOM     62  C5  A00 X   4      90.192  76.254  16.2490  0.00  0.00     0.000 C
ATOM     63  O5  A00 X   4      89.580  77.265  17.0900  0.00  0.00     0.000 O
BRANCH 59 66
ATOM     64   N  A00 X   4      91.111  76.829  19.7560  0.00  0.00     0.000 N
ATOM     66  HD  A00 X   4      90.272  76.616  19.7870  0.00  0.00     0.000 HD
ATOM     66   O  A00 X   4      91.392  78.993  20.7750  0.00  0.00     0.000 OA
ATOM     67   S  A00 X   4      91.385  77.607  21.1260  0.00  0.00     0.000 S
ATOM     68   O  A00 X   4      90.259  77.173  21.9000  0.00  0.00     0.000 OA
ATOM     69   O  A00 X   4      92.631  77.008  21.5130  0.00  0.00     0.000 OA
ENDBRANCH 59 66
BRANCH 62 70
ATOM     70   C  A00 X   4      89.073  75.505  15.4870  0.00  0.00     0.000 C
ATOM     71   O  A00 X   4      86.098  73.927  16.8150  0.00  0.00     0.000 OA
ATOM     72   O  A00 X   4      87.721  73.121  15.3120  0.00  0.00     0.000 OA
ATOM     73   O  A00 X   4      87.972  75.262  16.3780  0.00  0.00     0.000 O
ATOM     74   O  A00 X   4      88.244  73.259  17.6880  0.00  0.00     0.000 OA
ATOM     75   S  A00 X   4      87.507  73.779  16.5820  0.00  0.00     0.000 S
ENDBRANCH 62 70
ENDBRANCH 57 61
ENDBRANCH 41 57
ENDBRANCH 40 44
ENDBRANCH 20 40
ENDBRANCH 19 23
ENDBRANCH 1 19
TORSDOF 14
ENDMDL
MODEL 4
REMARK VINA RESULT:       0.0      8.850     12.884
ROOT
ATOM      1  C1  A00 X   1      57.118 108.679  32.1460  0.00  0.00     0.000 C
ATOM      2  C2  A00 X   1      57.420 109.992  31.3760  0.00  0.00     0.000 C
ATOM      3  C3  A00 X   1      56.710 111.280  31.9090  0.00  0.00     0.000 C
ATOM      4  C4  A00 X   1      55.529 111.037  32.8850  0.00  0.00     0.000 C
ATOM      5  C5  A00 X   1      54.931 109.639  32.7300  0.00  0.00     0.000 C
ATOM      6  O5  A00 X   1      56.008 108.739  33.0750  0.00  0.00     0.000 O
ATOM      7   O  A00 X   1      56.177 112.000  30.8000  0.00  0.00     0.000 O
ATOM      9  HD  A00 X   1      55.584 112.027  31.4310  0.00  0.00     0.000 HD
ATOM      9   O  A00 X   1      55.921 111.247  34.2410  0.00  0.00     0.000 O
ATOM     11  HD  A00 X   1      55.328 111.274  34.8720  0.00  0.00     0.000 HD
ENDROOT
BRANCH 2 11
ATOM     11   O  A00 X   1      58.846 110.198  31.4020  0.00  0.00     0.000 O
ATOM     12   O  A00 X   1      59.851 112.224  30.5950  0.00  0.00     0.000 OA
ATOM     13   O  A00 X   1      58.658 110.785  29.0390  0.00  0.00     0.000 OA
ATOM     14   O  A00 X   1      60.712 110.073  30.0050  0.00  0.00     0.000 OA
ATOM     15   S  A00 X   1      59.535 110.883  30.1730  0.00  0.00     0.000 S
ENDBRANCH 2 11
BRANCH 5 16
ATOM     16   C  A00 X   1      54.305 109.350  31.3620  0.00  0.00     0.000 C
ATOM     17   O  A00 X   1      54.001 108.206  31.0920  0.00  0.00     0.000 OA
ATOM     18   O  A00 X   1      54.096 110.223  30.5430  0.00  0.00     0.000 OA
ENDBRANCH 5 16
BRANCH 1 19
ATOM     19  O4  A00 X   2      57.015 107.527  31.2730  0.00  0.00     0.000 O
BRANCH 19 23
ATOM     20  C1  A00 X   2      59.047 104.904  33.9850  0.00  0.00     0.000 C
ATOM     21  C2  A00 X   2      59.878 105.529  32.8380  0.00  0.00     0.000 C
ATOM     22  C3  A00 X   2      59.150 106.747  32.2330  0.00  0.00     0.000 C
ATOM     23  C4  A00 X   2      57.718 106.364  31.7970  0.00  0.00     0.000 C
ATOM     24  C5  A00 X   2      57.001 105.736  33.0240  0.00  0.00     0.000 C
ATOM     25  O5  A00 X   2      57.742 104.563  33.4480  0.00  0.00     0.000 O
ATOM     26   O  A00 X   2      59.989 107.331  31.2220  0.00  0.00     0.000 O
ATOM     28  HD  A00 X   2      60.125 106.573  30.8260  0.00  0.00     0.000 HD
BRANCH 21 30
ATOM     28   N  A00 X   2      60.655 104.287  32.7760  0.00  0.00     0.000 N
ATOM     30  HD  A00 X   2      61.106 104.887  32.3430  0.00  0.00     0.000 HD
ATOM     30   O  A00 X   2      62.833 104.825  32.1200  0.00  0.00     0.000 OA
ATOM     31   S  A00 X   2      61.713 104.112  31.6140  0.00  0.00     0.000 S
ATOM     32   O  A00 X   2      61.889 102.695  31.5260  0.00  0.00     0.000 OA
ATOM     33   O  A00 X   2      61.112 104.615  30.4150  0.00  0.00     0.000 OA
ENDBRANCH 21 30
BRANCH 24 34
ATOM     34   C  A00 X   2      55.479 105.476  32.9200  0.00  0.00     0.000 C
ATOM     35   O  A00 X   2      53.953 102.178  33.1410  0.00  0.00     0.000 OA
ATOM     36   O  A00 X   2      55.202 104.081  32.6870  0.00  0.00     0.000 O
ATOM     37   O  A00 X   2      55.366 103.094  34.8010  0.00  0.00     0.000 OA
ATOM     38   S  A00 X   2      54.368 103.365  33.8120  0.00  0.00     0.000 S
ATOM     39   O  A00 X   2      53.311 104.264  34.1660  0.00  0.00     0.000 OA
ENDBRANCH 24 34
BRANCH 20 40
ATOM     40  O4  A00 X   3      58.906 105.939  34.9690  0.00  0.00     0.000 O
BRANCH 40 44
ATOM     41  C1  A00 X   3      56.770 107.707  37.3000  0.00  0.00     0.000 C
ATOM     42  C2  A00 X   3      58.257 108.036  37.0460  0.00  0.00     0.000 C
ATOM     43  C3  A00 X   3      59.134 106.763  37.1580  0.00  0.00     0.000 C
ATOM     44  C4  A00 X   3      58.636 105.577  36.3410  0.00  0.00     0.000 C
ATOM     45  C5  A00 X   3      57.138 105.305  36.6550  0.00  0.00     0.000 C
ATOM     46  O5  A00 X   3      56.350 106.535  36.5470  0.00  0.00     0.000 O
ATOM     47   O  A00 X   3      60.540 106.962  37.0260  0.00  0.00     0.000 O
ATOM     49  HD  A00 X   3      60.491 106.217  36.5870  0.00  0.00     0.000 HD
BRANCH 42 49
ATOM     49   O  A00 X   3      58.341 108.621  35.7280  0.00  0.00     0.000 O
ATOM     50   O  A00 X   3      60.083 109.434  34.3010  0.00  0.00     0.000 OA
ATOM     51   O  A00 X   3      60.167 109.942  36.6090  0.00  0.00     0.000 OA
ATOM     52   O  A00 X   3      58.464 110.927  35.3000  0.00  0.00     0.000 OA
ATOM     53   S  A00 X   3      59.319 109.800  35.4520  0.00  0.00     0.000 S
ENDBRANCH 42 49
BRANCH 45 54
ATOM     54   C  A00 X   3      56.961 104.591  38.0000  0.00  0.00     0.000 C
ATOM     55   O  A00 X   3      55.871 104.183  38.3450  0.00  0.00     0.000 OA
ATOM     56   O  A00 X   3      57.911 104.421  38.7480  0.00  0.00     0.000 OA
ENDBRANCH 45 54
BRANCH 41 57
ATOM     57  O4  A00 X   4      56.473 107.634  38.7130  0.00  0.00     0.000 O
BRANCH 57 61
ATOM     58  C1  A00 X   4      52.978 108.639  41.0390  0.00  0.00     0.000 C
ATOM     59  C2  A00 X   4      52.860 107.528  39.9660  0.00  0.00     0.000 C
ATOM     60  C3  A00 X   4      54.223 107.012  39.4630  0.00  0.00     0.000 C
ATOM     61  C4  A00 X   4      55.177 108.171  39.1010  0.00  0.00     0.000 C
ATOM     62  C5  A00 X   4      55.316 109.036  40.3780  0.00  0.00     0.000 C
ATOM     63  O5  A00 X   4      54.020 109.590  40.7230  0.00  0.00     0.000 O
BRANCH 59 66
ATOM     64   N  A00 X   4      52.170 108.026  38.7620  0.00  0.00     0.000 N
ATOM     66  HD  A00 X   4      52.237 108.871  38.5830  0.00  0.00     0.000 HD
ATOM     66   O  A00 X   4      50.092 107.649  39.9190  0.00  0.00     0.000 OA
ATOM     67   S  A00 X   4      50.614 107.695  38.5890  0.00  0.00     0.000 S
ATOM     68   O  A00 X   4      50.197 108.818  37.8020  0.00  0.00     0.000 OA
ATOM     69   O  A00 X   4      50.697 106.463  37.8590  0.00  0.00     0.000 OA
ENDBRANCH 59 66
BRANCH 62 70
ATOM     70   C  A00 X   4      56.328 110.199  40.2480  0.00  0.00     0.000 C
ATOM     71   O  A00 X   4      56.061 113.219  38.2690  0.00  0.00     0.000 OA
ATOM     72   O  A00 X   4      57.813 111.657  38.4550  0.00  0.00     0.000 OA
ATOM     73   O  A00 X   4      55.706 111.295  39.5580  0.00  0.00     0.000 O
ATOM     74   O  A00 X   4      55.827 111.091  37.1600  0.00  0.00     0.000 OA
ATOM     75   S  A00 X   4      56.391 111.822  38.2490  0.00  0.00     0.000 S
ENDBRANCH 62 70
ENDBRANCH 57 61
ENDBRANCH 41 57
ENDBRANCH 40 44
ENDBRANCH 20 40
ENDBRANCH 19 23
ENDBRANCH 1 19
TORSDOF 14
ENDMDL
MODEL 5
REMARK VINA RESULT:       0.0     54.668     59.011
ROOT
ATOM      1  C1  A00 X   1      83.266  69.152  41.5340  0.00  0.00     0.000 C
ATOM      2  C2  A00 X   1      82.343  68.927  42.7610  0.00  0.00     0.000 C
ATOM      3  C3  A00 X   1      81.880  67.454  43.0120  0.00  0.00     0.000 C
ATOM      4  C4  A00 X   1      82.086  66.478  41.8260  0.00  0.00     0.000 C
ATOM      5  C5  A00 X   1      82.183  67.209  40.4870  0.00  0.00     0.000 C
ATOM      6  O5  A00 X   1      83.358  68.042  40.6080  0.00  0.00     0.000 O
ATOM      7   O  A00 X   1      80.483  67.456  43.2980  0.00  0.00     0.000 O
ATOM      9  HD  A00 X   1      80.637  66.781  42.7770  0.00  0.00     0.000 HD
ATOM      9   O  A00 X   1      83.242  65.662  42.0150  0.00  0.00     0.000 O
ATOM     11  HD  A00 X   1      83.395  64.988  41.4940  0.00  0.00     0.000 HD
ENDROOT
BRANCH 2 11
ATOM     11   O  A00 X   1      83.040  69.405  43.9280  0.00  0.00     0.000 O
ATOM     12   O  A00 X   1      82.182  69.071  46.1460  0.00  0.00     0.000 OA
ATOM     13   O  A00 X   1      80.932  70.451  44.5810  0.00  0.00     0.000 OA
ATOM     14   O  A00 X   1      83.026  71.191  45.4330  0.00  0.00     0.000 OA
ATOM     15   S  A00 X   1      82.214  70.053  45.0920  0.00  0.00     0.000 S
ENDBRANCH 2 11
BRANCH 5 16
ATOM     16   C  A00 X   1      80.925  67.980  40.0760  0.00  0.00     0.000 C
ATOM     17   O  A00 X   1      80.994  68.750  39.1410  0.00  0.00     0.000 OA
ATOM     18   O  A00 X   1      79.861  67.843  40.6480  0.00  0.00     0.000 OA
ENDBRANCH 5 16
BRANCH 1 19
ATOM     19  O4  A00 X   2      82.988  70.395  40.8430  0.00  0.00     0.000 O
BRANCH 19 23
ATOM     20  C1  A00 X   2      87.117  71.259  40.0930  0.00  0.00     0.000 C
ATOM     21  C2  A00 X   2      86.453  71.948  41.3090  0.00  0.00     0.000 C
ATOM     22  C3  A00 X   2      85.145  71.228  41.7010  0.00  0.00     0.000 C
ATOM     23  C4  A00 X   2      84.200  71.118  40.4840  0.00  0.00     0.000 C
ATOM     24  C5  A00 X   2      84.986  70.432  39.3330  0.00  0.00     0.000 C
ATOM     25  O5  A00 X   2      86.147  71.241  39.0130  0.00  0.00     0.000 O
ATOM     26   O  A00 X   2      84.604  71.861  42.8730  0.00  0.00     0.000 O
ATOM     28  HD  A00 X   2      84.664  72.656  42.5340  0.00  0.00     0.000 HD
BRANCH 21 30
ATOM     28   N  A00 X   2      87.291  73.123  41.0540  0.00  0.00     0.000 N
ATOM     30  HD  A00 X   2      86.975  73.210  41.8550  0.00  0.00     0.000 HD
ATOM     30   O  A00 X   2      87.747  74.150  43.1020  0.00  0.00     0.000 OA
ATOM     31   S  A00 X   2      87.040  74.433  41.9030  0.00  0.00     0.000 S
ATOM     32   O  A00 X   2      87.605  75.471  41.0990  0.00  0.00     0.000 OA
ATOM     33   O  A00 X   2      85.622  74.603  42.0110  0.00  0.00     0.000 OA
ENDBRANCH 21 30
BRANCH 24 34
ATOM     34   C  A00 X   2      84.197  69.994  38.0760  0.00  0.00     0.000 C
ATOM     35   O  A00 X   2      84.771  71.332  34.7390  0.00  0.00     0.000 OA
ATOM     36   O  A00 X   2      84.385  70.924  36.9910  0.00  0.00     0.000 O
ATOM     37   O  A00 X   2      86.452  70.334  36.0700  0.00  0.00     0.000 OA
ATOM     38   S  A00 X   2      85.068  70.327  35.7070  0.00  0.00     0.000 S
ATOM     39   O  A00 X   2      84.449  69.057  35.4720  0.00  0.00     0.000 OA
ENDBRANCH 24 34
BRANCH 20 40
ATOM     40  O4  A00 X   3      87.394  69.915  40.5120  0.00  0.00     0.000 O
BRANCH 40 44
ATOM     41  C1  A00 X   3      87.314  66.383  39.7090  0.00  0.00     0.000 C
ATOM     42  C2  A00 X   3      87.794  66.969  41.0550  0.00  0.00     0.000 C
ATOM     43  C3  A00 X   3      88.840  68.091  40.8300  0.00  0.00     0.000 C
ATOM     44  C4  A00 X   3      88.418  69.159  39.8290  0.00  0.00     0.000 C
ATOM     45  C5  A00 X   3      87.955  68.493  38.5030  0.00  0.00     0.000 C
ATOM     46  O5  A00 X   3      86.977  67.435  38.7630  0.00  0.00     0.000 O
ATOM     47   O  A00 X   3      89.419  68.647  42.0080  0.00  0.00     0.000 O
ATOM     49  HD  A00 X   3      89.351  69.384  41.5580  0.00  0.00     0.000 HD
BRANCH 42 49
ATOM     49   O  A00 X   3      86.624  67.468  41.7400  0.00  0.00     0.000 O
ATOM     50   O  A00 X   3      86.176  68.609  43.7960  0.00  0.00     0.000 OA
ATOM     51   O  A00 X   3      87.763  66.857  43.7860  0.00  0.00     0.000 OA
ATOM     52   O  A00 X   3      85.488  66.318  43.4430  0.00  0.00     0.000 OA
ATOM     53   S  A00 X   3      86.491  67.313  43.2830  0.00  0.00     0.000 S
ENDBRANCH 42 49
BRANCH 45 54
ATOM     54   C  A00 X   3      89.145  68.021  37.6600  0.00  0.00     0.000 C
ATOM     55   O  A00 X   3      88.974  67.578  36.5420  0.00  0.00     0.000 OA
ATOM     56   O  A00 X   3      90.284  68.079  38.0970  0.00  0.00     0.000 OA
ENDBRANCH 45 54
BRANCH 41 57
ATOM     57  O4  A00 X   4      88.243  65.404  39.1920  0.00  0.00     0.000 O
BRANCH 57 61
ATOM     58  C1  A00 X   4      87.722  61.780  36.9050  0.00  0.00     0.000 C
ATOM     59  C2  A00 X   4      87.266  63.122  36.2800  0.00  0.00     0.000 C
ATOM     60  C3  A00 X   4      87.820  64.360  37.0140  0.00  0.00     0.000 C
ATOM     61  C4  A00 X   4      87.631  64.254  38.5420  0.00  0.00     0.000 C
ATOM     62  C5  A00 X   4      88.343  62.950  38.9800  0.00  0.00     0.000 C
ATOM     63  O5  A00 X   4      87.692  61.816  38.3500  0.00  0.00     0.000 O
BRANCH 59 66
ATOM     64   N  A00 X   4      85.802  63.287  36.3240  0.00  0.00     0.000 N
ATOM     66  HD  A00 X   4      85.375  62.900  36.9700  0.00  0.00     0.000 HD
ATOM     66   O  A00 X   4      85.686  61.880  34.3730  0.00  0.00     0.000 OA
ATOM     67   S  A00 X   4      84.961  62.935  35.0100  0.00  0.00     0.000 S
ATOM     68   O  A00 X   4      83.709  62.556  35.5980  0.00  0.00     0.000 OA
ATOM     69   O  A00 X   4      84.944  64.219  34.3680  0.00  0.00     0.000 OA
ENDBRANCH 59 66
BRANCH 62 70
ATOM     70   C  A00 X   4      88.358  62.720  40.5100  0.00  0.00     0.000 C
ATOM     71   O  A00 X   4      85.593  61.912  42.7030  0.00  0.00     0.000 OA
ATOM     72   O  A00 X   4      87.269  63.555  42.8890  0.00  0.00     0.000 OA
ATOM     73   O  A00 X   4      87.091  62.183  40.9220  0.00  0.00     0.000 O
ATOM     74   O  A00 X   4      85.431  63.883  41.3230  0.00  0.00     0.000 OA
ATOM     75   S  A00 X   4      86.281  62.966  42.0120  0.00  0.00     0.000 S
ENDBRANCH 62 70
ENDBRANCH 57 61
ENDBRANCH 41 57
ENDBRANCH 40 44
ENDBRANCH 20 40
ENDBRANCH 19 23
ENDBRANCH 1 19
TORSDOF 14
ENDMDL
MODEL 6
REMARK VINA RESULT:       0.0     91.998     96.490
ROOT
ATOM      1  C1  A00 X   1     128.394 145.805  88.3740  0.00  0.00     0.000 C
ATOM      2  C2  A00 X   1     129.416 146.518  89.2990  0.00  0.00     0.000 C
ATOM      3  C3  A00 X   1     130.657 147.153  88.5900  0.00  0.00     0.000 C
ATOM      4  C4  A00 X   1     130.906 146.687  87.1330  0.00  0.00     0.000 C
ATOM      5  C5  A00 X   1     130.257 145.334  86.8410  0.00  0.00     0.000 C
ATOM      6  O5  A00 X   1     128.841 145.560  87.0180  0.00  0.00     0.000 O
ATOM      7   O  A00 X   1     131.829 146.814  89.3290  0.00  0.00     0.000 O
ATOM      9  HD  A00 X   1     132.026 146.739  88.4890  0.00  0.00     0.000 HD
ATOM      9   O  A00 X   1     130.447 147.655  86.1900  0.00  0.00     0.000 O
ATOM     11  HD  A00 X   1     130.644 147.580  85.3500  0.00  0.00     0.000 HD
ENDROOT
BRANCH 2 11
ATOM     11   O  A00 X   1     128.711 147.546  90.0220  0.00  0.00     0.000 O
ATOM     12   O  A00 X   1     129.857 149.134  91.4110  0.00  0.00     0.000 OA
ATOM     13   O  A00 X   1     129.915 146.776  92.0030  0.00  0.00     0.000 OA
ATOM     14   O  A00 X   1     127.885 148.007  92.1570  0.00  0.00     0.000 OA
ATOM     15   S  A00 X   1     129.152 147.880  91.4890  0.00  0.00     0.000 S
ENDBRANCH 2 11
BRANCH 5 16
ATOM     16   C  A00 X   1     130.800 144.164  87.6680  0.00  0.00     0.000 C
ATOM     17   O  A00 X   1     130.198 143.110  87.6470  0.00  0.00     0.000 OA
ATOM     18   O  A00 X   1     131.811 144.251  88.3360  0.00  0.00     0.000 OA
ENDBRANCH 5 16
BRANCH 1 19
ATOM     19  O4  A00 X   2     127.837 144.608  88.9710  0.00  0.00     0.000 O
BRANCH 19 23
ATOM     20  C1  A00 X   2     123.889 145.322  87.4650  0.00  0.00     0.000 C
ATOM     21  C2  A00 X   2     124.187 145.754  88.9210  0.00  0.00     0.000 C
ATOM     22  C3  A00 X   2     125.707 145.838  89.1690  0.00  0.00     0.000 C
ATOM     23  C4  A00 X   2     126.396 144.509  88.7840  0.00  0.00     0.000 C
ATOM     24  C5  A00 X   2     126.005 144.179  87.3170  0.00  0.00     0.000 C
ATOM     25  O5  A00 X   2     124.561 144.055  87.2350  0.00  0.00     0.000 O
ATOM     26   O  A00 X   2     125.931 146.308  90.5090  0.00  0.00     0.000 O
ATOM     28  HD  A00 X   2     125.392 145.726  90.8570  0.00  0.00     0.000 HD
BRANCH 21 30
ATOM     28   N  A00 X   2     122.808 145.398  89.2690  0.00  0.00     0.000 N
ATOM     30  HD  A00 X   2     123.112 145.886  89.9170  0.00  0.00     0.000 HD
ATOM     30   O  A00 X   2     122.099 146.823  90.9800  0.00  0.00     0.000 OA
ATOM     31   S  A00 X   2     122.373 145.443  90.7880  0.00  0.00     0.000 S
ATOM     32   O  A00 X   2     121.228 144.587  90.8380  0.00  0.00     0.000 OA
ATOM     33   O  A00 X   2     123.447 144.882  91.5520  0.00  0.00     0.000 OA
ENDBRANCH 21 30
BRANCH 24 34
ATOM     34   C  A00 X   2     126.745 143.018  86.6130  0.00  0.00     0.000 C
ATOM     35   O  A00 X   2     125.118 139.989  85.4150  0.00  0.00     0.000 OA
ATOM     36   O  A00 X   2     125.933 141.828  86.5740  0.00  0.00     0.000 O
ATOM     37   O  A00 X   2     124.479 142.174  84.7760  0.00  0.00     0.000 OA
ATOM     38   S  A00 X   2     125.565 141.314  85.1340  0.00  0.00     0.000 S
ATOM     39   O  A00 X   2     126.763 141.398  84.3550  0.00  0.00     0.000 OA
ENDBRANCH 24 34
BRANCH 20 40
ATOM     40  O4  A00 X   3     124.473 146.334  86.6330  0.00  0.00     0.000 O
BRANCH 40 44
ATOM     41  C1  A00 X   3     126.444 147.111  83.6940  0.00  0.00     0.000 C
ATOM     42  C2  A00 X   3     125.883 148.158  84.6790  0.00  0.00     0.000 C
ATOM     43  C3  A00 X   3     124.367 147.938  84.9200  0.00  0.00     0.000 C
ATOM     44  C4  A00 X   3     123.985 146.509  85.2850  0.00  0.00     0.000 C
ATOM     45  C5  A00 X   3     124.581 145.517  84.2470  0.00  0.00     0.000 C
ATOM     46  O5  A00 X   3     126.009 145.768  84.0440  0.00  0.00     0.000 O
ATOM     47   O  A00 X   3     123.721 148.903  85.7480  0.00  0.00     0.000 O
ATOM     49  HD  A00 X   3     123.305 148.203  86.0450  0.00  0.00     0.000 HD
BRANCH 42 49
ATOM     49   O  A00 X   3     126.635 148.033  85.9050  0.00  0.00     0.000 O
ATOM     50   O  A00 X   3     126.595 149.043  88.0750  0.00  0.00     0.000 OA
ATOM     51   O  A00 X   3     126.287 150.413  86.1720  0.00  0.00     0.000 OA
ATOM     52   O  A00 X   3     128.411 149.438  86.5280  0.00  0.00     0.000 OA
ATOM     53   S  A00 X   3     127.010 149.298  86.7310  0.00  0.00     0.000 S
ENDBRANCH 42 49
BRANCH 45 54
ATOM     54   C  A00 X   3     123.778 145.512  82.9410  0.00  0.00     0.000 C
ATOM     55   O  A00 X   3     124.052 144.736  82.0490  0.00  0.00     0.000 OA
ATOM     56   O  A00 X   3     122.849 146.288  82.7750  0.00  0.00     0.000 OA
ENDBRANCH 45 54
BRANCH 41 57
ATOM     57  O4  A00 X   4     126.180 147.474  82.3200  0.00  0.00     0.000 O
BRANCH 57 61
ATOM     58  C1  A00 X   4     128.382 146.896  78.6520  0.00  0.00     0.000 C
ATOM     59  C2  A00 X   4     127.916 145.647  79.4420  0.00  0.00     0.000 C
ATOM     60  C3  A00 X   4     126.852 145.959  80.5130  0.00  0.00     0.000 C
ATOM     61  C4  A00 X   4     127.252 147.170  81.3830  0.00  0.00     0.000 C
ATOM     62  C5  A00 X   4     127.464 148.356  80.4090  0.00  0.00     0.000 C
ATOM     63  O5  A00 X   4     128.560 148.045  79.5110  0.00  0.00     0.000 O
BRANCH 59 66
ATOM     64   N  A00 X   4     129.039 145.040  80.1800  0.00  0.00     0.000 N
ATOM     66  HD  A00 X   4     129.682 145.563  80.4290  0.00  0.00     0.000 HD
ATOM     66   O  A00 X   4     129.677 143.962  78.1230  0.00  0.00     0.000 OA
ATOM     67   S  A00 X   4     129.770 143.771  79.5370  0.00  0.00     0.000 S
ATOM     68   O  A00 X   4     131.082 143.919  80.0950  0.00  0.00     0.000 OA
ATOM     69   O  A00 X   4     128.998 142.712  80.1220  0.00  0.00     0.000 OA
ENDBRANCH 59 66
BRANCH 62 70
ATOM     70   C  A00 X   4     127.767 149.702  81.1080  0.00  0.00     0.000 C
ATOM     71   O  A00 X   4     130.742 150.690  82.9190  0.00  0.00     0.000 OA
ATOM     72   O  A00 X   4     128.467 150.850  83.5030  0.00  0.00     0.000 OA
ATOM     73   O  A00 X   4     129.154 149.741  81.4820  0.00  0.00     0.000 O
ATOM     74   O  A00 X   4     129.587 148.688  83.6060  0.00  0.00     0.000 OA
ATOM     75   S  A00 X   4     129.499 149.975  82.9940  0.00  0.00     0.000 S
ENDBRANCH 62 70
ENDBRANCH 57 61
ENDBRANCH 41 57
ENDBRANCH 40 44
ENDBRANCH 20 40
ENDBRANCH 19 23
ENDBRANCH 1 19
TORSDOF 14
ENDMDL
MODEL 7
REMARK VINA RESULT:       0.0     67.774     73.174
ROOT
ATOM      1  C1  A00 X   1     116.018  93.513  44.0630  0.00  0.00     0.000 C
ATOM      2  C2  A00 X   1     114.886  92.572  44.5530  0.00  0.00     0.000 C
ATOM      3  C3  A00 X   1     115.336  91.338  45.4030  0.00  0.00     0.000 C
ATOM      4  C4  A00 X   1     116.848  91.002  45.3440  0.00  0.00     0.000 C
ATOM      5  C5  A00 X   1     117.515  91.562  44.0880  0.00  0.00     0.000 C
ATOM      6  O5  A00 X   1     117.365  92.995  44.2000  0.00  0.00     0.000 O
ATOM      7   O  A00 X   1     114.646  90.182  44.9340  0.00  0.00     0.000 O
ATOM      9  HD  A00 X   1     115.464  89.946  45.0880  0.00  0.00     0.000 HD
ATOM      9   O  A00 X   1     117.533  91.473  46.5050  0.00  0.00     0.000 O
ATOM     11  HD  A00 X   1     118.352  91.236  46.6590  0.00  0.00     0.000 HD
ENDROOT
BRANCH 2 11
ATOM     11   O  A00 X   1     113.962  93.363  45.3270  0.00  0.00     0.000 O
ATOM     12   O  A00 X   1     112.155  92.366  46.5540  0.00  0.00     0.000 OA
ATOM     13   O  A00 X   1     112.183  92.194  44.1280  0.00  0.00     0.000 OA
ATOM     14   O  A00 X   1     111.827  94.296  45.1830  0.00  0.00     0.000 OA
ATOM     15   S  A00 X   1     112.438  92.999  45.2910  0.00  0.00     0.000 S
ENDBRANCH 2 11
BRANCH 5 16
ATOM     16   C  A00 X   1     116.990  90.991  42.7670  0.00  0.00     0.000 C
ATOM     17   O  A00 X   1     117.314  91.533  41.7300  0.00  0.00     0.000 OA
ATOM     18   O  A00 X   1     116.268  90.015  42.7190  0.00  0.00     0.000 OA
ENDBRANCH 5 16
BRANCH 1 19
ATOM     19  O4  A00 X   2     115.783  94.027  42.7300  0.00  0.00     0.000 O
BRANCH 19 23
ATOM     20  C1  A00 X   2     117.267  97.942  43.6470  0.00  0.00     0.000 C
ATOM     21  C2  A00 X   2     115.734  97.731  43.6900  0.00  0.00     0.000 C
ATOM     22  C3  A00 X   2     115.389  96.229  43.7710  0.00  0.00     0.000 C
ATOM     23  C4  A00 X   2     116.070  95.451  42.6220  0.00  0.00     0.000 C
ATOM     24  C5  A00 X   2     117.591  95.760  42.6770  0.00  0.00     0.000 C
ATOM     25  O5  A00 X   2     117.784  97.189  42.5170  0.00  0.00     0.000 O
ATOM     26   O  A00 X   2     113.962  96.090  43.8770  0.00  0.00     0.000 O
ATOM     28  HD  A00 X   2     113.810  96.609  43.2020  0.00  0.00     0.000 HD
BRANCH 21 30
ATOM     28   N  A00 X   2     115.570  99.101  43.1950  0.00  0.00     0.000 N
ATOM     30  HD  A00 X   2     114.801  98.853  43.5060  0.00  0.00     0.000 HD
ATOM     30   O  A00 X   2     113.587  99.961  44.0830  0.00  0.00     0.000 OA
ATOM     31   S  A00 X   2     114.119  99.602  42.8170  0.00  0.00     0.000 S
ATOM     32   O  A00 X   2     114.360 100.698  41.9290  0.00  0.00     0.000 OA
ATOM     33   O  A00 X   2     113.470  98.531  42.1200  0.00  0.00     0.000 OA
ENDBRANCH 21 30
BRANCH 24 34
ATOM     34   C  A00 X   2     118.533  94.926  41.7770  0.00  0.00     0.000 C
ATOM     35   O  A00 X   2     120.529  96.318  39.0690  0.00  0.00     0.000 OA
ATOM     36   O  A00 X   2     118.908  95.657  40.5930  0.00  0.00     0.000 O
ATOM     37   O  A00 X   2     120.622  97.080  41.3050  0.00  0.00     0.000 OA
ATOM     38   S  A00 X   2     120.446  95.951  40.4440  0.00  0.00     0.000 S
ATOM     39   O  A00 X   2     121.125  94.739  40.7920  0.00  0.00     0.000 OA
ENDBRANCH 24 34
BRANCH 20 40
ATOM     40  O4  A00 X   3     117.770  97.380  44.8680  0.00  0.00     0.000 O
BRANCH 40 44
ATOM     41  C1  A00 X   3     120.282  95.340  46.4970  0.00  0.00     0.000 C
ATOM     42  C2  A00 X   3     119.087  96.004  47.2140  0.00  0.00     0.000 C
ATOM     43  C3  A00 X   3     118.999  97.512  46.8660  0.00  0.00     0.000 C
ATOM     44  C4  A00 X   3     119.048  97.822  45.3750  0.00  0.00     0.000 C
ATOM     45  C5  A00 X   3     120.277  97.124  44.7270  0.00  0.00     0.000 C
ATOM     46  O5  A00 X   3     120.325  95.707  45.0900  0.00  0.00     0.000 O
ATOM     47   O  A00 X   3     117.982  98.250  47.5410  0.00  0.00     0.000 O
ATOM     49  HD  A00 X   3     117.905  98.634  46.7690  0.00  0.00     0.000 HD
BRANCH 42 49
ATOM     49   O  A00 X   3     117.898  95.297  46.8000  0.00  0.00     0.000 O
ATOM     50   O  A00 X   3     115.544  95.485  47.1930  0.00  0.00     0.000 OA
ATOM     51   O  A00 X   3     117.032  95.792  49.0050  0.00  0.00     0.000 OA
ATOM     52   O  A00 X   3     116.829  93.632  48.0660  0.00  0.00     0.000 OA
ATOM     53   S  A00 X   3     116.748  95.030  47.8140  0.00  0.00     0.000 S
ENDBRANCH 42 49
BRANCH 45 54
ATOM     54   C  A00 X   3     121.580  97.871  45.0340  0.00  0.00     0.000 C
ATOM     55   O  A00 X   3     121.598  98.779  45.8390  0.00  0.00     0.000 OA
ATOM     56   O  A00 X   3     122.622  97.567  44.4730  0.00  0.00     0.000 OA
ENDBRANCH 45 54
BRANCH 41 57
ATOM     57  O4  A00 X   4     121.522  95.569  47.2020  0.00  0.00     0.000 O
BRANCH 57 61
ATOM     58  C1  A00 X   4     125.083  93.186  47.7370  0.00  0.00     0.000 C
ATOM     59  C2  A00 X   4     124.687  93.616  46.3020  0.00  0.00     0.000 C
ATOM     60  C3  A00 X   4     123.631  94.740  46.2660  0.00  0.00     0.000 C
ATOM     61  C4  A00 X   4     122.446  94.443  47.2100  0.00  0.00     0.000 C
ATOM     62  C5  A00 X   4     123.050  94.255  48.6230  0.00  0.00     0.000 C
ATOM     63  O5  A00 X   4     123.936  93.106  48.6140  0.00  0.00     0.000 O
BRANCH 59 66
ATOM     64   N  A00 X   4     124.079  92.487  45.5750  0.00  0.00     0.000 N
ATOM     66  HD  A00 X   4     123.669  91.884  46.0430  0.00  0.00     0.000 HD
ATOM     66   O  A00 X   4     126.312  91.713  45.1140  0.00  0.00     0.000 OA
ATOM     67   S  A00 X   4     124.996  91.659  44.5590  0.00  0.00     0.000 S
ATOM     68   O  A00 X   4     124.354  90.379  44.6150  0.00  0.00     0.000 OA
ATOM     69   O  A00 X   4     124.751  92.388  43.3460  0.00  0.00     0.000 OA
ENDBRANCH 59 66
BRANCH 62 70
ATOM     70   C  A00 X   4     121.997  94.055  49.7390  0.00  0.00     0.000 C
ATOM     71   O  A00 X   4     119.823  91.218  50.3150  0.00  0.00     0.000 OA
ATOM     72   O  A00 X   4     119.346  93.521  50.2180  0.00  0.00     0.000 OA
ATOM     73   O  A00 X   4     121.549  92.690  49.7300  0.00  0.00     0.000 O
ATOM     74   O  A00 X   4     119.769  92.292  48.1570  0.00  0.00     0.000 OA
ATOM     75   S  A00 X   4     120.014  92.422  49.5570  0.00  0.00     0.000 S
ENDBRANCH 62 70
ENDBRANCH 57 61
ENDBRANCH 41 57
ENDBRANCH 40 44
ENDBRANCH 20 40
ENDBRANCH 19 23
ENDBRANCH 1 19
TORSDOF 14
ENDMDL
MODEL 8
REMARK VINA RESULT:       0.0     70.307     75.707
ROOT
ATOM      1  C1  A00 X   1     118.843  94.397  44.5040  0.00  0.00     0.000 C
ATOM      2  C2  A00 X   1     117.710  93.456  44.9940  0.00  0.00     0.000 C
ATOM      3  C3  A00 X   1     118.160  92.223  45.8440  0.00  0.00     0.000 C
ATOM      4  C4  A00 X   1     119.673  91.886  45.7850  0.00  0.00     0.000 C
ATOM      5  C5  A00 X   1     120.340  92.446  44.5290  0.00  0.00     0.000 C
ATOM      6  O5  A00 X   1     120.189  93.879  44.6410  0.00  0.00     0.000 O
ATOM      7   O  A00 X   1     117.470  91.067  45.3740  0.00  0.00     0.000 O
ATOM      9  HD  A00 X   1     118.289  90.830  45.5290  0.00  0.00     0.000 HD
ATOM      9   O  A00 X   1     120.357  92.357  46.9450  0.00  0.00     0.000 O
ATOM     11  HD  A00 X   1     121.176  92.121  47.1000  0.00  0.00     0.000 HD
ENDROOT
BRANCH 2 11
ATOM     11   O  A00 X   1     116.786  94.247  45.7670  0.00  0.00     0.000 O
ATOM     12   O  A00 X   1     114.979  93.251  46.9950  0.00  0.00     0.000 OA
ATOM     13   O  A00 X   1     115.007  93.079  44.5690  0.00  0.00     0.000 OA
ATOM     14   O  A00 X   1     114.651  95.181  45.6240  0.00  0.00     0.000 OA
ATOM     15   S  A00 X   1     115.262  93.884  45.7320  0.00  0.00     0.000 S
ENDBRANCH 2 11
BRANCH 5 16
ATOM     16   C  A00 X   1     119.814  91.876  43.2070  0.00  0.00     0.000 C
ATOM     17   O  A00 X   1     120.138  92.418  42.1710  0.00  0.00     0.000 OA
ATOM     18   O  A00 X   1     119.092  90.900  43.1600  0.00  0.00     0.000 OA
ENDBRANCH 5 16
BRANCH 1 19
ATOM     19  O4  A00 X   2     118.607  94.912  43.1710  0.00  0.00     0.000 O
BRANCH 19 23
ATOM     20  C1  A00 X   2     120.091  98.826  44.0880  0.00  0.00     0.000 C
ATOM     21  C2  A00 X   2     118.559  98.615  44.1300  0.00  0.00     0.000 C
ATOM     22  C3  A00 X   2     118.213  97.114  44.2110  0.00  0.00     0.000 C
ATOM     23  C4  A00 X   2     118.894  96.336  43.0630  0.00  0.00     0.000 C
ATOM     24  C5  A00 X   2     120.415  96.644  43.1180  0.00  0.00     0.000 C
ATOM     25  O5  A00 X   2     120.608  98.074  42.9580  0.00  0.00     0.000 O
ATOM     26   O  A00 X   2     116.786  96.974  44.3180  0.00  0.00     0.000 O
ATOM     28  HD  A00 X   2     116.634  97.494  43.6420  0.00  0.00     0.000 HD
BRANCH 21 30
ATOM     28   N  A00 X   2     118.394  99.986  43.6360  0.00  0.00     0.000 N
ATOM     30  HD  A00 X   2     117.625  99.737  43.9460  0.00  0.00     0.000 HD
ATOM     30   O  A00 X   2     116.412 100.846  44.5240  0.00  0.00     0.000 OA
ATOM     31   S  A00 X   2     116.943 100.486  43.2570  0.00  0.00     0.000 S
ATOM     32   O  A00 X   2     117.184 101.582  42.3700  0.00  0.00     0.000 OA
ATOM     33   O  A00 X   2     116.294  99.416  42.5610  0.00  0.00     0.000 OA
ENDBRANCH 21 30
BRANCH 24 34
ATOM     34   C  A00 X   2     121.358  95.810  42.2180  0.00  0.00     0.000 C
ATOM     35   O  A00 X   2     123.353  97.202  39.5090  0.00  0.00     0.000 OA
ATOM     36   O  A00 X   2     121.732  96.542  41.0340  0.00  0.00     0.000 O
ATOM     37   O  A00 X   2     123.446  97.965  41.7460  0.00  0.00     0.000 OA
ATOM     38   S  A00 X   2     123.270  96.836  40.8850  0.00  0.00     0.000 S
ATOM     39   O  A00 X   2     123.949  95.624  41.2320  0.00  0.00     0.000 OA
ENDBRANCH 24 34
BRANCH 20 40
ATOM     40  O4  A00 X   3     120.594  98.265  45.3090  0.00  0.00     0.000 O
BRANCH 40 44
ATOM     41  C1  A00 X   3     123.106  96.224  46.9380  0.00  0.00     0.000 C
ATOM     42  C2  A00 X   3     121.911  96.889  47.6550  0.00  0.00     0.000 C
ATOM     43  C3  A00 X   3     121.823  98.397  47.3060  0.00  0.00     0.000 C
ATOM     44  C4  A00 X   3     121.872  98.706  45.8160  0.00  0.00     0.000 C
ATOM     45  C5  A00 X   3     123.101  98.009  45.1670  0.00  0.00     0.000 C
ATOM     46  O5  A00 X   3     123.149  96.591  45.5310  0.00  0.00     0.000 O
ATOM     47   O  A00 X   3     120.806  99.134  47.9820  0.00  0.00     0.000 O
ATOM     49  HD  A00 X   3     120.729  99.519  47.2100  0.00  0.00     0.000 HD
BRANCH 42 49
ATOM     49   O  A00 X   3     120.722  96.181  47.2400  0.00  0.00     0.000 O
ATOM     50   O  A00 X   3     118.368  96.370  47.6340  0.00  0.00     0.000 OA
ATOM     51   O  A00 X   3     119.856  96.677  49.4450  0.00  0.00     0.000 OA
ATOM     52   O  A00 X   3     119.654  94.517  48.5070  0.00  0.00     0.000 OA
ATOM     53   S  A00 X   3     119.572  95.914  48.2550  0.00  0.00     0.000 S
ENDBRANCH 42 49
BRANCH 45 54
ATOM     54   C  A00 X   3     124.405  98.755  45.4740  0.00  0.00     0.000 C
ATOM     55   O  A00 X   3     124.423  99.664  46.2800  0.00  0.00     0.000 OA
ATOM     56   O  A00 X   3     125.446  98.451  44.9140  0.00  0.00     0.000 OA
ENDBRANCH 45 54
BRANCH 41 57
ATOM     57  O4  A00 X   4     124.346  96.453  47.6430  0.00  0.00     0.000 O
BRANCH 57 61
ATOM     58  C1  A00 X   4     127.907  94.071  48.1780  0.00  0.00     0.000 C
ATOM     59  C2  A00 X   4     127.511  94.500  46.7430  0.00  0.00     0.000 C
ATOM     60  C3  A00 X   4     126.455  95.624  46.7070  0.00  0.00     0.000 C
ATOM     61  C4  A00 X   4     125.270  95.328  47.6500  0.00  0.00     0.000 C
ATOM     62  C5  A00 X   4     125.874  95.139  49.0640  0.00  0.00     0.000 C
ATOM     63  O5  A00 X   4     126.760  93.991  49.0550  0.00  0.00     0.000 O
BRANCH 59 66
ATOM     64   N  A00 X   4     126.903  93.371  46.0160  0.00  0.00     0.000 N
ATOM     66  HD  A00 X   4     126.493  92.769  46.4830  0.00  0.00     0.000 HD
ATOM     66   O  A00 X   4     129.136  92.597  45.5540  0.00  0.00     0.000 OA
ATOM     67   S  A00 X   4     127.820  92.544  44.9990  0.00  0.00     0.000 S
ATOM     68   O  A00 X   4     127.178  91.263  45.0560  0.00  0.00     0.000 OA
ATOM     69   O  A00 X   4     127.575  93.272  43.7870  0.00  0.00     0.000 OA
ENDBRANCH 59 66
BRANCH 62 70
ATOM     70   C  A00 X   4     124.821  94.939  50.1800  0.00  0.00     0.000 C
ATOM     71   O  A00 X   4     122.647  92.102  50.7550  0.00  0.00     0.000 OA
ATOM     72   O  A00 X   4     122.170  94.406  50.6580  0.00  0.00     0.000 OA
ATOM     73   O  A00 X   4     124.373  93.574  50.1710  0.00  0.00     0.000 O
ATOM     74   O  A00 X   4     122.593  93.177  48.5970  0.00  0.00     0.000 OA
ATOM     75   S  A00 X   4     122.838  93.307  49.9980  0.00  0.00     0.000 S
ENDBRANCH 62 70
ENDBRANCH 57 61
ENDBRANCH 41 57
ENDBRANCH 40 44
ENDBRANCH 20 40
ENDBRANCH 19 23
ENDBRANCH 1 19
TORSDOF 14
ENDMDL
MODEL 9
REMARK VINA RESULT:       0.0     99.900    105.414
ROOT
ATOM      1  C1  A00 X   1      46.729  65.024 132.7230  0.00  0.00     0.000 C
ATOM      2  C2  A00 X   1      47.814  65.536 131.7380  0.00  0.00     0.000 C
ATOM      3  C3  A00 X   1      49.032  66.277 132.3810  0.00  0.00     0.000 C
ATOM      4  C4  A00 X   1      48.839  66.730 133.8510  0.00  0.00     0.000 C
ATOM      5  C5  A00 X   1      47.362  66.867 134.2240  0.00  0.00     0.000 C
ATOM      6  O5  A00 X   1      46.822  65.534 134.0760  0.00  0.00     0.000 O
ATOM      7   O  A00 X   1      49.302  67.456 131.6270  0.00  0.00     0.000 O
ATOM      9  HD  A00 X   1      49.383  67.664 132.4630  0.00  0.00     0.000 HD
ATOM      9   O  A00 X   1      49.485  65.840 134.7610  0.00  0.00     0.000 O
ATOM     11  HD  A00 X   1      49.567  66.048 135.5980  0.00  0.00     0.000 HD
ENDROOT
BRANCH 2 11
ATOM     11   O  A00 X   1      48.295  64.404 130.9880  0.00  0.00     0.000 O
ATOM     12   O  A00 X   1      49.874  64.646 129.1950  0.00  0.00     0.000 OA
ATOM     13   O  A00 X   1      47.668  65.648 128.9820  0.00  0.00     0.000 OA
ATOM     14   O  A00 X   1      47.923  63.283 128.9740  0.00  0.00     0.000 OA
ATOM     15   S  A00 X   1      48.458  64.536 129.4350  0.00  0.00     0.000 S
ENDBRANCH 2 11
BRANCH 5 16
ATOM     16   C  A00 X   1      46.592  67.932 133.4370  0.00  0.00     0.000 C
ATOM     17   O  A00 X   1      45.383  67.965 133.5360  0.00  0.00     0.000 OA
ATOM     18   O  A00 X   1      47.147  68.745 132.7260  0.00  0.00     0.000 OA
ENDBRANCH 5 16
BRANCH 1 19
ATOM     19  O4  A00 X   2      45.386  65.159 132.1980  0.00  0.00     0.000 O
BRANCH 19 23
ATOM     20  C1  A00 X   2      44.025  61.474 133.9110  0.00  0.00     0.000 C
ATOM     21  C2  A00 X   2      44.424  61.463 132.4150  0.00  0.00     0.000 C
ATOM     22  C3  A00 X   2      45.280  62.698 132.0650  0.00  0.00     0.000 C
ATOM     23  C4  A00 X   2      44.555  63.997 132.4830  0.00  0.00     0.000 C
ATOM     24  C5  A00 X   2      44.195  63.877 133.9890  0.00  0.00     0.000 C
ATOM     25  O5  A00 X   2      43.333  62.724 134.1730  0.00  0.00     0.000 O
ATOM     26   O  A00 X   2      45.680  62.606 130.6880  0.00  0.00     0.000 O
ATOM     28  HD  A00 X   2      44.874  62.452 130.4110  0.00  0.00     0.000 HD
BRANCH 21 30
ATOM     28   N  A00 X   2      43.364  60.477 132.1800  0.00  0.00     0.000 N
ATOM     30  HD  A00 X   2      43.881  60.460 131.4850  0.00  0.00     0.000 HD
ATOM     30   O  A00 X   2      44.045  59.080 130.4360  0.00  0.00     0.000 OA
ATOM     31   S  A00 X   2      43.042  60.051 130.6920  0.00  0.00     0.000 S
ATOM     32   O  A00 X   2      41.709  59.537 130.7690  0.00  0.00     0.000 OA
ATOM     33   O  A00 X   2      43.071  61.241 129.8950  0.00  0.00     0.000 OA
ENDBRANCH 21 30
BRANCH 24 34
ATOM     34   C  A00 X   2      43.667  65.138 134.7130  0.00  0.00     0.000 C
ATOM     35   O  A00 X   2      40.314  65.442 136.1000  0.00  0.00     0.000 OA
ATOM     36   O  A00 X   2      42.231  65.108 134.8340  0.00  0.00     0.000 O
ATOM     37   O  A00 X   2      41.830  63.718 136.6710  0.00  0.00     0.000 OA
ATOM     38   S  A00 X   2      41.682  65.094 136.3070  0.00  0.00     0.000 S
ATOM     39   O  A00 X   2      42.450  66.059 137.0350  0.00  0.00     0.000 OA
ENDBRANCH 24 34
BRANCH 20 40
ATOM     40  O4  A00 X   3      45.260  61.448 134.6420  0.00  0.00     0.000 O
BRANCH 40 44
ATOM     41  C1  A00 X   3      47.183  62.805 137.3960  0.00  0.00     0.000 C
ATOM     42  C2  A00 X   3      47.702  61.749 136.3970  0.00  0.00     0.000 C
ATOM     43  C3  A00 X   3      46.706  60.567 136.2710  0.00  0.00     0.000 C
ATOM     44  C4  A00 X   3      45.263  60.981 136.0080  0.00  0.00     0.000 C
ATOM     45  C5  A00 X   3      44.813  62.039 137.0540  0.00  0.00     0.000 C
ATOM     46  O5  A00 X   3      45.787  63.129 137.1470  0.00  0.00     0.000 O
ATOM     47   O  A00 X   3      47.122  59.487 135.4380  0.00  0.00     0.000 O
ATOM     49  HD  A00 X   3      46.288  59.491 135.2070  0.00  0.00     0.000 HD
BRANCH 42 49
ATOM     49   O  A00 X   3      47.889  62.419 135.1310  0.00  0.00     0.000 O
ATOM     50   O  A00 X   3      48.558  61.790 132.9200  0.00  0.00     0.000 OA
ATOM     51   O  A00 X   3      49.714  60.871 134.7670  0.00  0.00     0.000 OA
ATOM     52   O  A00 X   3      49.957  63.180 134.3200  0.00  0.00     0.000 OA
ATOM     53   S  A00 X   3      49.095  62.053 134.2180  0.00  0.00     0.000 S
ENDBRANCH 42 49
BRANCH 45 54
ATOM     54   C  A00 X   3      44.495  61.398 138.4100  0.00  0.00     0.000 C
ATOM     55   O  A00 X   3      43.964  62.043 139.2900  0.00  0.00     0.000 OA
ATOM     56   O  A00 X   3      44.771  60.228 138.6280  0.00  0.00     0.000 OA
ENDBRANCH 45 54
BRANCH 41 57
ATOM     57  O4  A00 X   4      47.464  62.431 138.7630  0.00  0.00     0.000 O
BRANCH 57 61
ATOM     58  C1  A00 X   4      48.400  64.716 142.3040  0.00  0.00     0.000 C
ATOM     59  C2  A00 X   4      47.027  64.937 141.6210  0.00  0.00     0.000 C
ATOM     60  C3  A00 X   4      46.662  63.834 140.6060  0.00  0.00     0.000 C
ATOM     61  C4  A00 X   4      47.829  63.532 139.6430  0.00  0.00     0.000 C
ATOM     62  C5  A00 X   4      49.034  63.131 140.5310  0.00  0.00     0.000 C
ATOM     63  O5  A00 X   4      49.402  64.255 141.3700  0.00  0.00     0.000 O
BRANCH 59 66
ATOM     64   N  A00 X   4      47.034  66.192 140.8490  0.00  0.00     0.000 N
ATOM     66  HD  A00 X   4      47.794  66.465 140.5360  0.00  0.00     0.000 HD
ATOM     66   O  A00 X   4      46.593  67.348 142.9150  0.00  0.00     0.000 OA
ATOM     67   S  A00 X   4      46.374  67.491 141.5100  0.00  0.00     0.000 S
ATOM     68   O  A00 X   4      47.136  68.523 140.8690  0.00  0.00     0.000 OA
ATOM     69   O  A00 X   4      45.029  67.366 141.0250  0.00  0.00     0.000 OA
ENDBRANCH 59 66
BRANCH 62 70
ATOM     70   C  A00 X   4      50.283  62.681 139.7360  0.00  0.00     0.000 C
ATOM     71   O  A00 X   4      52.484  64.672 137.6640  0.00  0.00     0.000 OA
ATOM     72   O  A00 X   4      51.417  62.617 137.2360  0.00  0.00     0.000 OA
ATOM     73   O  A00 X   4      50.987  63.840 139.2620  0.00  0.00     0.000 O
ATOM     74   O  A00 X   4      50.123  64.681 137.1770  0.00  0.00     0.000 OA
ATOM     75   S  A00 X   4      51.234  63.968 137.7190  0.00  0.00     0.000 S
ENDBRANCH 62 70
ENDBRANCH 57 61
ENDBRANCH 41 57
ENDBRANCH 40 44
ENDBRANCH 20 40
ENDBRANCH 19 23
ENDBRANCH 1 19
TORSDOF 14
ENDMDL
MODEL 10
REMARK VINA RESULT:       0.0     84.572     88.508
ROOT
ATOM      1  C1  A00 X   1      88.478  94.814 118.5380  0.00  0.00     0.000 C
ATOM      2  C2  A00 X   1      87.744  93.511 118.9530  0.00  0.00     0.000 C
ATOM      3  C3  A00 X   1      87.495  93.320 120.4850  0.00  0.00     0.000 C
ATOM      4  C4  A00 X   1      88.317  94.248 121.4170  0.00  0.00     0.000 C
ATOM      5  C5  A00 X   1      89.580  94.777 120.7360  0.00  0.00     0.000 C
ATOM      6  O5  A00 X   1      89.096  95.556 119.6190  0.00  0.00     0.000 O
ATOM      7   O  A00 X   1      87.837  91.983 120.8420  0.00  0.00     0.000 O
ATOM      9  HD  A00 X   1      88.134  92.499 121.4710  0.00  0.00     0.000 HD
ATOM      9   O  A00 X   1      87.531  95.341 121.8910  0.00  0.00     0.000 O
ATOM     11  HD  A00 X   1      87.828  95.857 122.5200  0.00  0.00     0.000 HD
ENDROOT
BRANCH 2 11
ATOM     11   O  A00 X   1      86.478  93.482 118.2650  0.00  0.00     0.000 O
ATOM     12   O  A00 X   1      84.813  91.818 118.7380  0.00  0.00     0.000 OA
ATOM     13   O  A00 X   1      86.949  91.131 117.7990  0.00  0.00     0.000 OA
ATOM     14   O  A00 X   1      85.411  92.394 116.4960  0.00  0.00     0.000 OA
ATOM     15   S  A00 X   1      85.888  92.100 117.8200  0.00  0.00     0.000 S
ENDBRANCH 2 11
BRANCH 5 16
ATOM     16   C  A00 X   1      90.600  93.705 120.3400  0.00  0.00     0.000 C
ATOM     17   O  A00 X   1      91.519  94.018 119.6120  0.00  0.00     0.000 OA
ATOM     18   O  A00 X   1      90.525  92.557 120.7330  0.00  0.00     0.000 OA
ENDBRANCH 5 16
BRANCH 1 19
ATOM     19  O4  A00 X   2      89.401  94.613 117.4400  0.00  0.00     0.000 O
BRANCH 19 23
ATOM     20  C1  A00 X   2      88.425  98.328 115.5380  0.00  0.00     0.000 C
ATOM     21  C2  A00 X   2      87.731  97.050 115.0080  0.00  0.00     0.000 C
ATOM     22  C3  A00 X   2      87.836  95.902 116.0340  0.00  0.00     0.000 C
ATOM     23  C4  A00 X   2      89.309  95.663 116.4340  0.00  0.00     0.000 C
ATOM     24  C5  A00 X   2      89.892  97.015 116.9270  0.00  0.00     0.000 C
ATOM     25  O5  A00 X   2      89.802  97.984 115.8510  0.00  0.00     0.000 O
ATOM     26   O  A00 X   2      87.119  94.763 115.5260  0.00  0.00     0.000 O
ATOM     28  HD  A00 X   2      87.516  94.794 114.7570  0.00  0.00     0.000 HD
BRANCH 21 30
ATOM     28   N  A00 X   2      87.777  97.629 113.6610  0.00  0.00     0.000 N
ATOM     30  HD  A00 X   2      87.211  96.973 113.6330  0.00  0.00     0.000 HD
ATOM     30   O  A00 X   2      85.912  96.867 112.4790  0.00  0.00     0.000 OA
ATOM     31   S  A00 X   2      87.325  96.738 112.4370  0.00  0.00     0.000 S
ATOM     32   O  A00 X   2      87.956  97.360 111.3140  0.00  0.00     0.000 OA
ATOM     33   O  A00 X   2      87.864  95.427 112.6450  0.00  0.00     0.000 OA
ENDBRANCH 21 30
BRANCH 24 34
ATOM     34   C  A00 X   2      91.284  97.002 117.6030  0.00  0.00     0.000 C
ATOM     35   O  A00 X   2      94.211  98.715 116.2790  0.00  0.00     0.000 OA
ATOM     36   O  A00 X   2      92.310  97.450 116.6940  0.00  0.00     0.000 O
ATOM     37   O  A00 X   2      92.154  99.784 116.7480  0.00  0.00     0.000 OA
ATOM     38   S  A00 X   2      93.071  98.755 117.1340  0.00  0.00     0.000 S
ATOM     39   O  A00 X   2      93.353  98.608 118.5300  0.00  0.00     0.000 OA
ENDBRANCH 24 34
BRANCH 20 40
ATOM     40  O4  A00 X   3      87.731  98.674 116.7450  0.00  0.00     0.000 O
BRANCH 40 44
ATOM     41  C1  A00 X   3      87.924  99.757 120.1960  0.00  0.00     0.000 C
ATOM     42  C2  A00 X   3      86.614  99.429 119.4490  0.00  0.00     0.000 C
ATOM     43  C3  A00 X   3      86.542 100.183 118.0960  0.00  0.00     0.000 C
ATOM     44  C4  A00 X   3      87.780 100.036 117.2220  0.00  0.00     0.000 C
ATOM     45  C5  A00 X   3      89.054 100.387 118.0410  0.00  0.00     0.000 C
ATOM     46  O5  A00 X   3      89.076  99.662 119.3130  0.00  0.00     0.000 O
ATOM     47   O  A00 X   3      85.332 100.022 117.3580  0.00  0.00     0.000 O
ATOM     49  HD  A00 X   3      85.878 100.003 116.6850  0.00  0.00     0.000 HD
BRANCH 42 49
ATOM     49   O  A00 X   3      86.584  97.997 119.2580  0.00  0.00     0.000 O
ATOM     50   O  A00 X   3      85.122  96.421 118.2050  0.00  0.00     0.000 OA
ATOM     51   O  A00 X   3      84.180  98.184 119.4660  0.00  0.00     0.000 OA
ATOM     52   O  A00 X   3      85.381  96.499 120.6080  0.00  0.00     0.000 OA
ATOM     53   S  A00 X   3      85.244  97.215 119.3870  0.00  0.00     0.000 S
ENDBRANCH 42 49
BRANCH 45 54
ATOM     54   C  A00 X   3      89.221 101.903 118.2080  0.00  0.00     0.000 C
ATOM     55   O  A00 X   3      90.253 102.367 118.6470  0.00  0.00     0.000 OA
ATOM     56   O  A00 X   3      88.319 102.668 117.9040  0.00  0.00     0.000 OA
ENDBRANCH 45 54
BRANCH 41 57
ATOM     57  O4  A00 X   4      87.833 101.012 120.9070  0.00  0.00     0.000 O
BRANCH 57 61
ATOM     58  C1  A00 X   4      89.552 102.426 124.6070  0.00  0.00     0.000 C
ATOM     59  C2  A00 X   4      90.504 102.031 123.4500  0.00  0.00     0.000 C
ATOM     60  C3  A00 X   4      89.793 101.892 122.0890  0.00  0.00     0.000 C
ATOM     61  C4  A00 X   4      88.509 101.042 122.1970  0.00  0.00     0.000 C
ATOM     62  C5  A00 X   4      87.614 101.736 123.2540  0.00  0.00     0.000 C
ATOM     63  O5  A00 X   4      88.292 101.720 124.5370  0.00  0.00     0.000 O
BRANCH 59 66
ATOM     64   N  A00 X   4      91.107 100.712 123.7140  0.00  0.00     0.000 N
ATOM     66  HD  A00 X   4      90.656 100.155 124.2000  0.00  0.00     0.000 HD
ATOM     66   O  A00 X   4      92.707 101.836 125.1200  0.00  0.00     0.000 OA
ATOM     67   S  A00 X   4      92.591 100.663 124.3110  0.00  0.00     0.000 S
ATOM     68   O  A00 X   4      92.540  99.422 125.0270  0.00  0.00     0.000 OA
ATOM     69   O  A00 X   4      93.351 100.610 123.0940  0.00  0.00     0.000 OA
ENDBRANCH 59 66
BRANCH 62 70
ATOM     70   C  A00 X   4      86.220 101.087 123.4270  0.00  0.00     0.000 C
ATOM     71   O  A00 X   4      85.385  97.871 124.8630  0.00  0.00     0.000 OA
ATOM     72   O  A00 X   4      84.719  98.865 122.8350  0.00  0.00     0.000 OA
ATOM     73   O  A00 X   4      86.337  99.925 124.2640  0.00  0.00     0.000 O
ATOM     74   O  A00 X   4      86.966  97.945 123.0440  0.00  0.00     0.000 OA
ATOM     75   S  A00 X   4      85.845  98.553 123.6860  0.00  0.00     0.000 S
ENDBRANCH 62 70
ENDBRANCH 57 61
ENDBRANCH 41 57
ENDBRANCH 40 44
ENDBRANCH 20 40
ENDBRANCH 19 23
ENDBRANCH 1 19
TORSDOF 14
ENDMDL
MODEL 11
REMARK VINA RESULT:       0.0     54.900     59.570
ROOT
ATOM      1  C1  A00 X   1      85.808  74.469  12.9200  0.00  0.00     0.000 C
ATOM      2  C2  A00 X   1      87.107  75.316  12.8670  0.00  0.00     0.000 C
ATOM      3  C3  A00 X   1      86.942  76.845  13.1510  0.00  0.00     0.000 C
ATOM      4  C4  A00 X   1      85.490  77.385  13.0840  0.00  0.00     0.000 C
ATOM      5  C5  A00 X   1      84.580  76.490  12.2440  0.00  0.00     0.000 C
ATOM      6  O5  A00 X   1      84.570  75.222  12.9390  0.00  0.00     0.000 O
ATOM      7   O  A00 X   1      87.690  77.574  12.1800  0.00  0.00     0.000 O
ATOM      9  HD  A00 X   1      86.939  77.990  12.2890  0.00  0.00     0.000 HD
ATOM      9   O  A00 X   1      84.935  77.550  14.3890  0.00  0.00     0.000 O
ATOM     11  HD  A00 X   1      84.183  77.967  14.4980  0.00  0.00     0.000 HD
ENDROOT
BRANCH 2 11
ATOM     11   O  A00 X   1      88.033  74.759  13.8210  0.00  0.00     0.000 O
ATOM     12   O  A00 X   1      90.115  75.833  14.3460  0.00  0.00     0.000 OA
ATOM     13   O  A00 X   1      89.739  75.005  12.0910  0.00  0.00     0.000 OA
ATOM     14   O  A00 X   1      89.989  73.487  13.9050  0.00  0.00     0.000 OA
ATOM     15   S  A00 X   1      89.567  74.802  13.5030  0.00  0.00     0.000 S
ENDBRANCH 2 11
BRANCH 5 16
ATOM     16   C  A00 X   1      84.967  76.376  10.7660  0.00  0.00     0.000 C
ATOM     17   O  A00 X   1      84.430  75.524  10.0890  0.00  0.00     0.000 OA
ATOM     18   O  A00 X   1      85.785  77.110  10.2490  0.00  0.00     0.000 OA
ENDBRANCH 5 16
BRANCH 1 19
ATOM     19  O4  A00 X   2      85.776  73.426  11.9150  0.00  0.00     0.000 O
BRANCH 19 23
ATOM     20  C1  A00 X   2      83.991  70.538  14.5290  0.00  0.00     0.000 C
ATOM     21  C2  A00 X   2      85.526  70.475  14.3360  0.00  0.00     0.000 C
ATOM     22  C3  A00 X   2      86.060  71.796  13.7450  0.00  0.00     0.000 C
ATOM     23  C4  A00 X   2      85.306  72.154  12.4440  0.00  0.00     0.000 C
ATOM     24  C5  A00 X   2      83.786  72.166  12.7650  0.00  0.00     0.000 C
ATOM     25  O5  A00 X   2      83.398  70.851  13.2410  0.00  0.00     0.000 O
ATOM     26   O  A00 X   2      87.492  71.713  13.6490  0.00  0.00     0.000 O
ATOM     28  HD  A00 X   2      87.471  70.947  13.2440  0.00  0.00     0.000 HD
BRANCH 21 30
ATOM     28   N  A00 X   2      85.443  69.015  14.4520  0.00  0.00     0.000 N
ATOM     30  HD  A00 X   2      86.276  69.228  14.5560  0.00  0.00     0.000 HD
ATOM     30   O  A00 X   2      87.421  68.249  15.4310  0.00  0.00     0.000 OA
ATOM     31   S  A00 X   2      86.744  68.158  14.1860  0.00  0.00     0.000 S
ATOM     32   O  A00 X   2      86.235  66.859  13.8690  0.00  0.00     0.000 OA
ATOM     33   O  A00 X   2      87.400  68.727  13.0470  0.00  0.00     0.000 OA
ENDBRANCH 21 30
BRANCH 24 34
ATOM     34   C  A00 X   2      82.822  72.721  11.6900  0.00  0.00     0.000 C
ATOM     35   O  A00 X   2      82.581  71.418   8.2990  0.00  0.00     0.000 OA
ATOM     36   O  A00 X   2      83.189  72.263  10.3730  0.00  0.00     0.000 O
ATOM     37   O  A00 X   2      82.310  70.099  10.2430  0.00  0.00     0.000 OA
ATOM     38   S  A00 X   2      82.109  71.383   9.6440  0.00  0.00     0.000 S
ATOM     39   O  A00 X   2      80.848  72.026   9.8610  0.00  0.00     0.000 OA
ENDBRANCH 24 34
BRANCH 20 40
ATOM     40  O4  A00 X   3      83.760  71.621  15.4410  0.00  0.00     0.000 O
BRANCH 40 44
ATOM     41  C1  A00 X   3      81.799  74.557  16.2560  0.00  0.00     0.000 C
ATOM     42  C2  A00 X   3      82.998  74.042  17.0810  0.00  0.00     0.000 C
ATOM     43  C3  A00 X   3      82.845  72.534  17.4030  0.00  0.00     0.000 C
ATOM     44  C4  A00 X   3      82.530  71.657  16.1970  0.00  0.00     0.000 C
ATOM     45  C5  A00 X   3      81.312  72.235  15.4230  0.00  0.00     0.000 C
ATOM     46  O5  A00 X   3      81.495  73.662  15.1500  0.00  0.00     0.000 O
ATOM     47   O  A00 X   3      83.854  71.969  18.2370  0.00  0.00     0.000 O
ATOM     49  HD  A00 X   3      83.764  71.296  17.6990  0.00  0.00     0.000 HD
BRANCH 42 49
ATOM     49   O  A00 X   3      84.188  74.298  16.3030  0.00  0.00     0.000 O
ATOM     50   O  A00 X   3      86.534  73.887  16.5390  0.00  0.00     0.000 OA
ATOM     51   O  A00 X   3      85.309  74.620  18.4230  0.00  0.00     0.000 OA
ATOM     52   O  A00 X   3      85.625  76.126  16.6290  0.00  0.00     0.000 OA
ATOM     53   S  A00 X   3      85.500  74.759  17.0010  0.00  0.00     0.000 S
ENDBRANCH 42 49
BRANCH 45 54
ATOM     54   C  A00 X   3      79.989  71.921  16.1310  0.00  0.00     0.000 C
ATOM     55   O  A00 X   3      79.982  71.438  17.2450  0.00  0.00     0.000 OA
ATOM     56   O  A00 X   3      78.919  72.151  15.5880  0.00  0.00     0.000 OA
ENDBRANCH 45 54
BRANCH 41 57
ATOM     57  O4  A00 X   4      80.662  74.858  17.0970  0.00  0.00     0.000 O
BRANCH 57 61
ATOM     58  C1  A00 X   4      77.537  77.827  16.8590  0.00  0.00     0.000 C
ATOM     59  C2  A00 X   4      77.664  76.791  15.7150  0.00  0.00     0.000 C
ATOM     60  C3  A00 X   4      78.557  75.586  16.0730  0.00  0.00     0.000 C
ATOM     61  C4  A00 X   4      79.895  76.030  16.7020  0.00  0.00     0.000 C
ATOM     62  C5  A00 X   4      79.531  76.877  17.9470  0.00  0.00     0.000 C
ATOM     63  O5  A00 X   4      78.801  78.057  17.5240  0.00  0.00     0.000 O
BRANCH 59 66
ATOM     64   N  A00 X   4      78.293  77.404  14.5310  0.00  0.00     0.000 N
ATOM     66  HD  A00 X   4      78.838  78.063  14.6640  0.00  0.00     0.000 HD
ATOM     66   O  A00 X   4      76.128  78.297  13.9680  0.00  0.00     0.000 OA
ATOM     67   S  A00 X   4      77.346  77.892  13.3380  0.00  0.00     0.000 S
ATOM     68   O  A00 X   4      78.142  78.953  12.7940  0.00  0.00     0.000 OA
ATOM     69   O  A00 X   4      77.320  76.704  12.5330  0.00  0.00     0.000 OA
ENDBRANCH 59 66
BRANCH 62 70
ATOM     70   C  A00 X   4      80.752  77.328  18.7830  0.00  0.00     0.000 C
ATOM     71   O  A00 X   4      83.318  79.733  17.9250  0.00  0.00     0.000 OA
ATOM     72   O  A00 X   4      83.490  77.543  18.7740  0.00  0.00     0.000 OA
ATOM     73   O  A00 X   4      81.358  78.472  18.1610  0.00  0.00     0.000 O
ATOM     74   O  A00 X   4      82.925  77.883  16.4280  0.00  0.00     0.000 OA
ATOM     75   S  A00 X   4      82.872  78.377  17.7670  0.00  0.00     0.000 S
ENDBRANCH 62 70
ENDBRANCH 57 61
ENDBRANCH 41 57
ENDBRANCH 40 44
ENDBRANCH 20 40
ENDBRANCH 19 23
ENDBRANCH 1 19
TORSDOF 14
ENDMDL
MODEL 12
REMARK VINA RESULT:       0.0     96.414    100.215
ROOT
ATOM      1  C1  A00 X   1     116.754  55.018  84.5560  0.00  0.00     0.000 C
ATOM      2  C2  A00 X   1     116.399  55.191  83.0540  0.00  0.00     0.000 C
ATOM      3  C3  A00 X   1     115.654  53.992  82.3820  0.00  0.00     0.000 C
ATOM      4  C4  A00 X   1     115.687  52.657  83.1700  0.00  0.00     0.000 C
ATOM      5  C5  A00 X   1     116.858  52.595  84.1510  0.00  0.00     0.000 C
ATOM      6  O5  A00 X   1     116.616  53.675  85.0800  0.00  0.00     0.000 O
ATOM      7   O  A00 X   1     116.258  53.730  81.1170  0.00  0.00     0.000 O
ATOM      9  HD  A00 X   1     116.096  52.963  81.4860  0.00  0.00     0.000 HD
ATOM      9   O  A00 X   1     114.462  52.432  83.8670  0.00  0.00     0.000 O
ATOM     11  HD  A00 X   1     114.300  51.666  84.2360  0.00  0.00     0.000 HD
ENDROOT
BRANCH 2 11
ATOM     11   O  A00 X   1     115.590  56.377  82.9290  0.00  0.00     0.000 O
ATOM     12   O  A00 X   1     114.539  56.983  80.8560  0.00  0.00     0.000 OA
ATOM     13   O  A00 X   1     116.967  56.937  80.9910  0.00  0.00     0.000 OA
ATOM     14   O  A00 X   1     115.726  58.583  82.1770  0.00  0.00     0.000 OA
ATOM     15   S  A00 X   1     115.722  57.251  81.6350  0.00  0.00     0.000 S
ENDBRANCH 2 11
BRANCH 5 16
ATOM     16   C  A00 X   1     118.247  52.642  83.5050  0.00  0.00     0.000 C
ATOM     17   O  A00 X   1     119.214  52.810  84.2190  0.00  0.00     0.000 OA
ATOM     18   O  A00 X   1     118.415  52.511  82.3090  0.00  0.00     0.000 OA
ENDBRANCH 5 16
BRANCH 1 19
ATOM     19  O4  A00 X   2     118.040  55.590  84.8980  0.00  0.00     0.000 O
BRANCH 19 23
ATOM     20  C1  A00 X   2     116.700  57.121  88.6700  0.00  0.00     0.000 C
ATOM     21  C2  A00 X   2     116.735  58.101  87.4730  0.00  0.00     0.000 C
ATOM     22  C3  A00 X   2     116.810  57.334  86.1360  0.00  0.00     0.000 C
ATOM     23  C4  A00 X   2     118.001  56.349  86.1400  0.00  0.00     0.000 C
ATOM     24  C5  A00 X   2     117.860  55.440  87.3910  0.00  0.00     0.000 C
ATOM     25  O5  A00 X   2     117.876  56.273  88.5790  0.00  0.00     0.000 O
ATOM     26   O  A00 X   2     116.770  58.283  85.0570  0.00  0.00     0.000 O
ATOM     28  HD  A00 X   2     117.399  58.772  85.3970  0.00  0.00     0.000 HD
BRANCH 21 30
ATOM     28   N  A00 X   2     117.103  59.170  88.4070  0.00  0.00     0.000 N
ATOM     30  HD  A00 X   2     116.846  59.554  87.6750  0.00  0.00     0.000 HD
ATOM     30   O  A00 X   2     116.212  61.175  87.6050  0.00  0.00     0.000 OA
ATOM     31   S  A00 X   2     117.486  60.588  87.8240  0.00  0.00     0.000 S
ATOM     32   O  A00 X   2     118.256  61.188  88.8700  0.00  0.00     0.000 OA
ATOM     33   O  A00 X   2     118.304  60.365  86.6690  0.00  0.00     0.000 OA
ENDBRANCH 21 30
BRANCH 24 34
ATOM     34   C  A00 X   2     118.799  54.216  87.5080  0.00  0.00     0.000 C
ATOM     35   O  A00 X   2     121.262  53.779  90.1540  0.00  0.00     0.000 OA
ATOM     36   O  A00 X   2     119.885  54.476  88.4200  0.00  0.00     0.000 O
ATOM     37   O  A00 X   2     118.957  54.139  90.5410  0.00  0.00     0.000 OA
ATOM     38   S  A00 X   2     119.936  53.542  89.6850  0.00  0.00     0.000 S
ATOM     39   O  A00 X   2     119.686  52.212  89.2170  0.00  0.00     0.000 OA
ENDBRANCH 24 34
BRANCH 20 40
ATOM     40  O4  A00 X   3     115.520  56.325  88.4850  0.00  0.00     0.000 O
BRANCH 40 44
ATOM     41  C1  A00 X   3     114.001  53.037  88.5500  0.00  0.00     0.000 C
ATOM     42  C2  A00 X   3     113.269  54.337  88.1530  0.00  0.00     0.000 C
ATOM     43  C3  A00 X   3     113.474  55.439  89.2240  0.00  0.00     0.000 C
ATOM     44  C4  A00 X   3     114.925  55.670  89.6260  0.00  0.00     0.000 C
ATOM     45  C5  A00 X   3     115.590  54.320  90.0150  0.00  0.00     0.000 C
ATOM     46  O5  A00 X   3     115.363  53.307  88.9820  0.00  0.00     0.000 O
ATOM     47   O  A00 X   3     112.769  56.660  89.0050  0.00  0.00     0.000 O
ATOM     49  HD  A00 X   3     113.503  57.006  89.3060  0.00  0.00     0.000 HD
BRANCH 42 49
ATOM     49   O  A00 X   3     113.794  54.744  86.8700  0.00  0.00     0.000 O
ATOM     50   O  A00 X   3     113.474  56.582  85.3700  0.00  0.00     0.000 OA
ATOM     51   O  A00 X   3     111.586  55.631  86.4300  0.00  0.00     0.000 OA
ATOM     52   O  A00 X   3     112.736  54.348  84.8120  0.00  0.00     0.000 OA
ATOM     53   S  A00 X   3     112.854  55.367  85.7970  0.00  0.00     0.000 S
ENDBRANCH 42 49
BRANCH 45 54
ATOM     54   C  A00 X   3     115.163  53.860  91.4150  0.00  0.00     0.000 C
ATOM     55   O  A00 X   3     115.703  52.910  91.9450  0.00  0.00     0.000 OA
ATOM     56   O  A00 X   3     114.274  54.438  92.0190  0.00  0.00     0.000 OA
ENDBRANCH 45 54
BRANCH 41 57
ATOM     57  O4  A00 X   4     113.230  52.257  89.4910  0.00  0.00     0.000 O
BRANCH 57 61
ATOM     58  C1  A00 X   4     112.783  48.008  90.1170  0.00  0.00     0.000 C
ATOM     59  C2  A00 X   4     114.186  48.641  90.2970  0.00  0.00     0.000 C
ATOM     60  C3  A00 X   4     114.158  50.179  90.4040  0.00  0.00     0.000 C
ATOM     61  C4  A00 X   4     113.292  50.815  89.2960  0.00  0.00     0.000 C
ATOM     62  C5  A00 X   4     111.880  50.195  89.4350  0.00  0.00     0.000 C
ATOM     63  O5  A00 X   4     111.961  48.766  89.1990  0.00  0.00     0.000 O
BRANCH 59 66
ATOM     64   N  A00 X   4     115.031  48.344  89.1260  0.00  0.00     0.000 N
ATOM     66  HD  A00 X   4     114.634  48.218  88.3670  0.00  0.00     0.000 HD
ATOM     66   O  A00 X   4     115.483  46.198  90.1220  0.00  0.00     0.000 OA
ATOM     67   S  A00 X   4     116.085  47.146  89.2380  0.00  0.00     0.000 S
ATOM     68   O  A00 X   4     116.166  46.744  87.8640  0.00  0.00     0.000 OA
ATOM     69   O  A00 X   4     117.236  47.864  89.7090  0.00  0.00     0.000 OA
ENDBRANCH 59 66
BRANCH 62 70
ATOM     70   C  A00 X   4     110.828  50.793  88.4710  0.00  0.00     0.000 C
ATOM     71   O  A00 X   4     110.591  50.431  84.8760  0.00  0.00     0.000 OA
ATOM     72   O  A00 X   4     110.504  52.353  86.2340  0.00  0.00     0.000 OA
ATOM     73   O  A00 X   4     110.975  50.190  87.1750  0.00  0.00     0.000 O
ATOM     74   O  A00 X   4     112.647  51.270  85.8170  0.00  0.00     0.000 OA
ATOM     75   S  A00 X   4     111.232  51.136  85.9510  0.00  0.00     0.000 S
ENDBRANCH 62 70
ENDBRANCH 57 61
ENDBRANCH 41 57
ENDBRANCH 40 44
ENDBRANCH 20 40
ENDBRANCH 19 23
ENDBRANCH 1 19
TORSDOF 14
ENDMDL
MODEL 13
REMARK VINA RESULT:       0.0     81.648     85.689
ROOT
ATOM      1  C1  A00 X   1      74.701 132.608 119.4900  0.00  0.00     0.000 C
ATOM      2  C2  A00 X   1      74.010 131.330 120.0350  0.00  0.00     0.000 C
ATOM      3  C3  A00 X   1      74.075 131.122 121.5840  0.00  0.00     0.000 C
ATOM      4  C4  A00 X   1      75.114 131.996 122.3330  0.00  0.00     0.000 C
ATOM      5  C5  A00 X   1      76.231 132.482 121.4110  0.00  0.00     0.000 C
ATOM      6  O5  A00 X   1      75.563 133.302 120.4250  0.00  0.00     0.000 O
ATOM      7   O  A00 X   1      74.421 129.765 121.8490  0.00  0.00     0.000 O
ATOM      9  HD  A00 X   1      74.866 130.255 122.4080  0.00  0.00     0.000 HD
ATOM      9   O  A00 X   1      74.494 133.113 122.9700  0.00  0.00     0.000 O
ATOM     11  HD  A00 X   1      74.938 133.603 123.5290  0.00  0.00     0.000 HD
ENDROOT
BRANCH 2 11
ATOM     11   O  A00 X   1      72.629 131.369 119.6250  0.00  0.00     0.000 O
ATOM     12   O  A00 X   1      71.023 129.770 120.4170  0.00  0.00     0.000 OA
ATOM     13   O  A00 X   1      72.885 129.010 119.0480  0.00  0.00     0.000 OA
ATOM     14   O  A00 X   1      71.170 130.362 118.1060  0.00  0.00     0.000 OA
ATOM     15   S  A00 X   1      71.897 130.022 119.2990  0.00  0.00     0.000 S
ENDBRANCH 2 11
BRANCH 5 16
ATOM     16   C  A00 X   1      77.097 131.374 120.8010  0.00  0.00     0.000 C
ATOM     17   O  A00 X   1      77.850 131.659 119.8940  0.00  0.00     0.000 OA
ATOM     18   O  A00 X   1      77.060 130.227 121.1980  0.00  0.00     0.000 OA
ENDBRANCH 5 16
BRANCH 1 19
ATOM     19  O4  A00 X   2      75.366 132.388 118.2220  0.00  0.00     0.000 O
BRANCH 19 23
ATOM     20  C1  A00 X   2      74.194 136.177 116.5990  0.00  0.00     0.000 C
ATOM     21  C2  A00 X   2      73.346 134.941 116.2120  0.00  0.00     0.000 C
ATOM     22  C3  A00 X   2      73.607 133.771 117.1830  0.00  0.00     0.000 C
ATOM     23  C4  A00 X   2      75.118 133.460 117.2670  0.00  0.00     0.000 C
ATOM     24  C5  A00 X   2      75.853 134.776 117.6420  0.00  0.00     0.000 C
ATOM     25  O5  A00 X   2      75.587 135.768 116.6170  0.00  0.00     0.000 O
ATOM     26   O  A00 X   2      72.749 132.674 116.8240  0.00  0.00     0.000 O
ATOM     28  HD  A00 X   2      72.978 132.702 115.9900  0.00  0.00     0.000 HD
BRANCH 21 30
ATOM     28   N  A00 X   2      73.138 135.547 114.8930  0.00  0.00     0.000 N
ATOM     30  HD  A00 X   2      72.551 134.916 114.9750  0.00  0.00     0.000 HD
ATOM     30   O  A00 X   2      71.037 134.887 114.1140  0.00  0.00     0.000 OA
ATOM     31   S  A00 X   2      72.404 134.701 113.7780  0.00  0.00     0.000 S
ATOM     32   O  A00 X   2      72.816 135.321 112.5570  0.00  0.00     0.000 OA
ATOM     33   O  A00 X   2      72.916 133.365 113.8540  0.00  0.00     0.000 OA
ENDBRANCH 21 30
BRANCH 24 34
ATOM     34   C  A00 X   2      77.352 134.689 118.0140  0.00  0.00     0.000 C
ATOM     35   O  A00 X   2      79.922 133.323 115.8250  0.00  0.00     0.000 OA
ATOM     36   O  A00 X   2      78.060 133.799 117.1270  0.00  0.00     0.000 O
ATOM     37   O  A00 X   2      78.467 135.085 115.2160  0.00  0.00     0.000 OA
ATOM     38   S  A00 X   2      79.202 134.468 116.2780  0.00  0.00     0.000 S
ATOM     39   O  A00 X   2      79.923 135.324 117.1710  0.00  0.00     0.000 OA
ENDBRANCH 24 34
BRANCH 20 40
ATOM     40  O4  A00 X   3      73.781 136.530 117.9280  0.00  0.00     0.000 O
BRANCH 40 44
ATOM     41  C1  A00 X   3      74.772 137.516 121.2700  0.00  0.00     0.000 C
ATOM     42  C2  A00 X   3      73.316 137.269 120.8200  0.00  0.00     0.000 C
ATOM     43  C3  A00 X   3      72.992 138.060 119.5270  0.00  0.00     0.000 C
ATOM     44  C4  A00 X   3      74.003 137.876 118.4020  0.00  0.00     0.000 C
ATOM     45  C5  A00 X   3      75.441 138.145 118.9300  0.00  0.00     0.000 C
ATOM     46  O5  A00 X   3      75.698 137.387 120.1560  0.00  0.00     0.000 O
ATOM     47   O  A00 X   3      71.645 137.976 119.0660  0.00  0.00     0.000 O
ATOM     49  HD  A00 X   3      72.030 137.948 118.2910  0.00  0.00     0.000 HD
BRANCH 42 49
ATOM     49   O  A00 X   3      73.170 135.846 120.6200  0.00  0.00     0.000 O
ATOM     50   O  A00 X   3      71.436 134.369 119.8830  0.00  0.00     0.000 OA
ATOM     51   O  A00 X   3      70.879 136.143 121.3420  0.00  0.00     0.000 OA
ATOM     52   O  A00 X   3      72.206 134.374 122.1750  0.00  0.00     0.000 OA
ATOM     53   S  A00 X   3      71.850 135.126 121.0220  0.00  0.00     0.000 S
ENDBRANCH 42 49
BRANCH 45 54
ATOM     54   C  A00 X   3      75.718 139.646 119.0780  0.00  0.00     0.000 C
ATOM     55   O  A00 X   3      74.822 140.456 118.9600  0.00  0.00     0.000 OA
ATOM     56   O  A00 X   3      76.845 140.053 119.3170  0.00  0.00     0.000 OA
ENDBRANCH 45 54
BRANCH 41 57
ATOM     57  O4  A00 X   4      74.902 138.755 122.0020  0.00  0.00     0.000 O
BRANCH 57 61
ATOM     58  C1  A00 X   4      77.441 139.986 125.2690  0.00  0.00     0.000 C
ATOM     59  C2  A00 X   4      78.103 139.576 123.9300  0.00  0.00     0.000 C
ATOM     60  C3  A00 X   4      77.112 139.508 122.7500  0.00  0.00     0.000 C
ATOM     61  C4  A00 X   4      75.837 138.719 123.1170  0.00  0.00     0.000 C
ATOM     62  C5  A00 X   4      75.226 139.427 124.3520  0.00  0.00     0.000 C
ATOM     63  O5  A00 X   4      76.160 139.344 125.4600  0.00  0.00     0.000 O
BRANCH 59 66
ATOM     64   N  A00 X   4      78.691 138.227 124.0110  0.00  0.00     0.000 N
ATOM     66  HD  A00 X   4      78.328 137.665 124.5610  0.00  0.00     0.000 HD
ATOM     66   O  A00 X   4      80.597 139.232 125.0870  0.00  0.00     0.000 OA
ATOM     67   S  A00 X   4      80.263 138.101 124.2780  0.00  0.00     0.000 S
ATOM     68   O  A00 X   4      80.312 136.831 124.9420  0.00  0.00     0.000 OA
ATOM     69   O  A00 X   4      80.748 138.077 122.9270  0.00  0.00     0.000 OA
ENDBRANCH 59 66
BRANCH 62 70
ATOM     70   C  A00 X   4      73.869 138.842 124.8090  0.00  0.00     0.000 C
ATOM     71   O  A00 X   4      73.191 135.637 126.3500  0.00  0.00     0.000 OA
ATOM     72   O  A00 X   4      72.163 136.708 124.5220  0.00  0.00     0.000 OA
ATOM     73   O  A00 X   4      74.100 137.657 125.5870  0.00  0.00     0.000 O
ATOM     74   O  A00 X   4      74.353 135.677 124.2370  0.00  0.00     0.000 OA
ATOM     75   S  A00 X   4      73.427 136.323 125.1110  0.00  0.00     0.000 S
ENDBRANCH 62 70
ENDBRANCH 57 61
ENDBRANCH 41 57
ENDBRANCH 40 44
ENDBRANCH 20 40
ENDBRANCH 19 23
ENDBRANCH 1 19
TORSDOF 14
ENDMDL
MODEL 14
REMARK VINA RESULT:       0.0      3.168      7.716
ROOT
ATOM      1  C1  A00 X   1      49.422 113.846  45.8290  0.00  0.00     0.000 C
ATOM      2  C2  A00 X   1      50.882 113.319  45.8570  0.00  0.00     0.000 C
ATOM      3  C3  A00 X   1      51.087 111.894  46.4680  0.00  0.00     0.000 C
ATOM      4  C4  A00 X   1      49.895 111.342  47.2920  0.00  0.00     0.000 C
ATOM      5  C5  A00 X   1      48.987 112.456  47.8120  0.00  0.00     0.000 C
ATOM      6  O5  A00 X   1      48.470 113.093  46.6210  0.00  0.00     0.000 O
ATOM      7   O  A00 X   1      52.206 111.931  47.3500  0.00  0.00     0.000 O
ATOM      9  HD  A00 X   1      51.595 111.452  47.7330  0.00  0.00     0.000 HD
ATOM      9   O  A00 X   1      49.127 110.406  46.5360  0.00  0.00     0.000 O
ATOM     11  HD  A00 X   1      48.515 109.927  46.9190  0.00  0.00     0.000 HD
ENDROOT
BRANCH 2 11
ATOM     11   O  A00 X   1      51.376 113.326  44.5040  0.00  0.00     0.000 O
ATOM     12   O  A00 X   1      53.477 112.322  43.9150  0.00  0.00     0.000 OA
ATOM     13   O  A00 X   1      53.451 114.233  45.4200  0.00  0.00     0.000 OA
ATOM     14   O  A00 X   1      52.859 114.494  43.1310  0.00  0.00     0.000 OA
ATOM     15   S  A00 X   1      52.899 113.598  44.2550  0.00  0.00     0.000 S
ENDBRANCH 2 11
BRANCH 5 16
ATOM     16   C  A00 X   1      49.652 113.432  48.7890  0.00  0.00     0.000 C
ATOM     17   O  A00 X   1      49.067 114.456  49.0760  0.00  0.00     0.000 OA
ATOM     18   O  A00 X   1      50.737 113.214  49.2900  0.00  0.00     0.000 OA
ENDBRANCH 5 16
BRANCH 1 19
ATOM     19  O4  A00 X   2      49.331 115.265  46.1030  0.00  0.00     0.000 O
BRANCH 19 23
ATOM     20  C1  A00 X   2      46.288 115.950  43.1650  0.00  0.00     0.000 C
ATOM     21  C2  A00 X   2      47.751 116.264  42.7660  0.00  0.00     0.000 C
ATOM     22  C3  A00 X   2      48.742 115.578  43.7280  0.00  0.00     0.000 C
ATOM     23  C4  A00 X   2      48.426 115.953  45.1930  0.00  0.00     0.000 C
ATOM     24  C5  A00 X   2      46.935 115.609  45.4610  0.00  0.00     0.000 C
ATOM     25  O5  A00 X   2      46.108 116.371  44.5430  0.00  0.00     0.000 O
ATOM     26   O  A00 X   2      50.081 115.842  43.2760  0.00  0.00     0.000 O
ATOM     28  HD  A00 X   2      49.945 116.695  43.2120  0.00  0.00     0.000 HD
BRANCH 21 30
ATOM     28   N  A00 X   2      47.251 117.380  41.9560  0.00  0.00     0.000 N
ATOM     30  HD  A00 X   2      48.065 117.229  41.7010  0.00  0.00     0.000 HD
ATOM     30   O  A00 X   2      48.673 117.641  40.1210  0.00  0.00     0.000 OA
ATOM     31   S  A00 X   2      48.297 118.359  41.2870  0.00  0.00     0.000 S
ATOM     32   O  A00 X   2      47.540 119.548  41.0460  0.00  0.00     0.000 OA
ATOM     33   O  A00 X   2      49.323 118.609  42.2550  0.00  0.00     0.000 OA
ENDBRANCH 21 30
BRANCH 24 34
ATOM     34   C  A00 X   2      46.426 115.675  46.9200  0.00  0.00     0.000 C
ATOM     35   O  A00 X   2      46.579 118.659  49.0010  0.00  0.00     0.000 OA
ATOM     36   O  A00 X   2      46.929 116.844  47.5970  0.00  0.00     0.000 O
ATOM     37   O  A00 X   2      45.530 118.578  46.8830  0.00  0.00     0.000 OA
ATOM     38   S  A00 X   2      45.833 117.861  48.0840  0.00  0.00     0.000 S
ATOM     39   O  A00 X   2      44.787 117.078  48.6720  0.00  0.00     0.000 OA
ENDBRANCH 24 34
BRANCH 20 40
ATOM     40  O4  A00 X   3      46.160 114.523  43.0780  0.00  0.00     0.000 O
BRANCH 40 44
ATOM     41  C1  A00 X   3      44.936 111.475  44.6050  0.00  0.00     0.000 C
ATOM     42  C2  A00 X   3      45.735 111.539  43.2850  0.00  0.00     0.000 C
ATOM     43  C3  A00 X   3      45.111 112.568  42.3080  0.00  0.00     0.000 C
ATOM     44  C4  A00 X   3      44.850 113.940  42.9150  0.00  0.00     0.000 C
ATOM     45  C5  A00 X   3      44.039 113.794  44.2340  0.00  0.00     0.000 C
ATOM     46  O5  A00 X   3      44.658 112.806  45.1210  0.00  0.00     0.000 O
ATOM     47   O  A00 X   3      45.716 112.649  41.0190  0.00  0.00     0.000 O
ATOM     49  HD  A00 X   3      45.570 113.496  41.1280  0.00  0.00     0.000 HD
BRANCH 42 49
ATOM     49   O  A00 X   3      47.092 111.893  43.6290  0.00  0.00     0.000 O
ATOM     50   O  A00 X   3      49.123 112.330  42.4390  0.00  0.00     0.000 OA
ATOM     51   O  A00 X   3      47.753 110.535  41.7380  0.00  0.00     0.000 OA
ATOM     52   O  A00 X   3      48.862 110.361  43.8180  0.00  0.00     0.000 OA
ATOM     53   S  A00 X   3      48.289 111.252  42.8680  0.00  0.00     0.000 S
ENDBRANCH 42 49
BRANCH 45 54
ATOM     54   C  A00 X   3      42.557 113.514  43.9600  0.00  0.00     0.000 C
ATOM     55   O  A00 X   3      41.749 113.515  44.8670  0.00  0.00     0.000 OA
ATOM     56   O  A00 X   3      42.162 113.283  42.8280  0.00  0.00     0.000 OA
ENDBRANCH 45 54
BRANCH 41 57
ATOM     57  O4  A00 X   4      43.765 110.637  44.4810  0.00  0.00     0.000 O
BRANCH 57 61
ATOM     58  C1  A00 X   4      41.699 108.044  47.2460  0.00  0.00     0.000 C
ATOM     59  C2  A00 X   4      41.784 109.557  47.5700  0.00  0.00     0.000 C
ATOM     60  C3  A00 X   4      42.214 110.420  46.3670  0.00  0.00     0.000 C
ATOM     61  C4  A00 X   4      43.452 109.834  45.6540  0.00  0.00     0.000 C
ATOM     62  C5  A00 X   4      43.070 108.394  45.2320  0.00  0.00     0.000 C
ATOM     63  O5  A00 X   4      42.800 107.604  46.4180  0.00  0.00     0.000 O
BRANCH 59 66
ATOM     64   N  A00 X   4      42.805 109.786  48.6090  0.00  0.00     0.000 N
ATOM     66  HD  A00 X   4      43.458 109.219  48.6600  0.00  0.00     0.000 HD
ATOM     66   O  A00 X   4      41.137 109.182  50.2380  0.00  0.00     0.000 OA
ATOM     67   S  A00 X   4      42.317 109.981  50.1200  0.00  0.00     0.000 S
ATOM     68   O  A00 X   4      43.465 109.494  50.8270  0.00  0.00     0.000 OA
ATOM     69   O  A00 X   4      42.165 111.408  50.1550  0.00  0.00     0.000 OA
ENDBRANCH 59 66
BRANCH 62 70
ATOM     70   C  A00 X   4      44.155 107.671  44.3970  0.00  0.00     0.000 C
ATOM     71   O  A00 X   4      47.405 106.482  45.4590  0.00  0.00     0.000 OA
ATOM     72   O  A00 X   4      46.780 107.783  43.5990  0.00  0.00     0.000 OA
ATOM     73   O  A00 X   4      45.172 107.165  45.2770  0.00  0.00     0.000 O
ATOM     74   O  A00 X   4      46.856 108.803  45.8110  0.00  0.00     0.000 OA
ATOM     75   S  A00 X   4      46.650 107.626  45.0300  0.00  0.00     0.000 S
ENDBRANCH 62 70
ENDBRANCH 57 61
ENDBRANCH 41 57
ENDBRANCH 40 44
ENDBRANCH 20 40
ENDBRANCH 19 23
ENDBRANCH 1 19
TORSDOF 14
ENDMDL
MODEL 15
REMARK VINA RESULT:       0.0     38.085     42.871
ROOT
ATOM      1  C1  A00 X   1      73.471  79.440  31.0930  0.00  0.00     0.000 C
ATOM      2  C2  A00 X   1      73.892  79.098  32.5470  0.00  0.00     0.000 C
ATOM      3  C3  A00 X   1      73.029  79.741  33.6820  0.00  0.00     0.000 C
ATOM      4  C4  A00 X   1      72.110  80.910  33.2430  0.00  0.00     0.000 C
ATOM      5  C5  A00 X   1      72.595  81.572  31.9530  0.00  0.00     0.000 C
ATOM      6  O5  A00 X   1      72.523  80.528  30.9560  0.00  0.00     0.000 O
ATOM      7   O  A00 X   1      73.902  80.265  34.6800  0.00  0.00     0.000 O
ATOM      9  HD  A00 X   1      73.267  80.843  34.5670  0.00  0.00     0.000 HD
ATOM      9   O  A00 X   1      70.758  80.481  33.0860  0.00  0.00     0.000 O
ATOM     11  HD  A00 X   1      70.123  81.059  32.9730  0.00  0.00     0.000 HD
ENDROOT
BRANCH 2 11
ATOM     11   O  A00 X   1      73.860  77.665  32.6880  0.00  0.00     0.000 O
ATOM     12   O  A00 X   1      74.141  76.590  34.8170  0.00  0.00     0.000 OA
ATOM     13   O  A00 X   1      75.980  77.878  33.8820  0.00  0.00     0.000 OA
ATOM     14   O  A00 X   1      75.301  75.837  32.8680  0.00  0.00     0.000 OA
ATOM     15   S  A00 X   1      74.889  76.973  33.6460  0.00  0.00     0.000 S
ENDBRANCH 2 11
BRANCH 5 16
ATOM     16   C  A00 X   1      73.972  82.238  32.0440  0.00  0.00     0.000 C
ATOM     17   O  A00 X   1      74.513  82.596  31.0180  0.00  0.00     0.000 OA
ATOM     18   O  A00 X   1      74.535  82.427  33.1040  0.00  0.00     0.000 OA
ENDBRANCH 5 16
BRANCH 1 19
ATOM     19  O4  A00 X   2      74.604  79.611  30.2060  0.00  0.00     0.000 O
BRANCH 19 23
ATOM     20  C1  A00 X   2      72.713  77.627  26.9120  0.00  0.00     0.000 C
ATOM     21  C2  A00 X   2      73.695  76.800  27.7760  0.00  0.00     0.000 C
ATOM     22  C3  A00 X   2      73.948  77.489  29.1330  0.00  0.00     0.000 C
ATOM     23  C4  A00 X   2      74.414  78.947  28.9240  0.00  0.00     0.000 C
ATOM     24  C5  A00 X   2      73.361  79.660  28.0330  0.00  0.00     0.000 C
ATOM     25  O5  A00 X   2      73.272  78.960  26.7640  0.00  0.00     0.000 O
ATOM     26   O  A00 X   2      74.809  76.651  29.9230  0.00  0.00     0.000 O
ATOM     28  HD  A00 X   2      75.387  76.558  29.2860  0.00  0.00     0.000 HD
BRANCH 21 30
ATOM     28   N  A00 X   2      74.095  76.079  26.5640  0.00  0.00     0.000 N
ATOM     30  HD  A00 X   2      74.379  75.614  27.2370  0.00  0.00     0.000 HD
ATOM     30   O  A00 X   2      74.672  73.898  27.1710  0.00  0.00     0.000 OA
ATOM     31   S  A00 X   2      75.300  75.060  26.6500  0.00  0.00     0.000 S
ATOM     32   O  A00 X   2      75.748  74.949  25.2960  0.00  0.00     0.000 OA
ATOM     33   O  A00 X   2      76.313  75.669  27.4600  0.00  0.00     0.000 OA
ENDBRANCH 21 30
BRANCH 24 34
ATOM     34   C  A00 X   2      73.472  81.193  27.8620  0.00  0.00     0.000 C
ATOM     35   O  A00 X   2      74.011  82.857  24.6680  0.00  0.00     0.000 OA
ATOM     36   O  A00 X   2      74.029  81.537  26.5780  0.00  0.00     0.000 O
ATOM     37   O  A00 X   2      72.227  81.364  25.0960  0.00  0.00     0.000 OA
ATOM     38   S  A00 X   2      73.085  82.373  25.6390  0.00  0.00     0.000 S
ATOM     39   O  A00 X   2      72.486  83.381  26.4610  0.00  0.00     0.000 OA
ENDBRANCH 24 34
BRANCH 20 40
ATOM     40  O4  A00 X   3      71.496  77.698  27.6690  0.00  0.00     0.000 O
BRANCH 40 44
ATOM     41  C1  A00 X   3      68.719  79.703  28.8500  0.00  0.00     0.000 C
ATOM     42  C2  A00 X   3      68.938  78.213  29.1930  0.00  0.00     0.000 C
ATOM     43  C3  A00 X   3      69.181  77.378  27.9100  0.00  0.00     0.000 C
ATOM     44  C4  A00 X   3      70.250  77.940  26.9810  0.00  0.00     0.000 C
ATOM     45  C5  A00 X   3      69.959  79.437  26.6790  0.00  0.00     0.000 C
ATOM     46  O5  A00 X   3      69.725  80.184  27.9160  0.00  0.00     0.000 O
ATOM     47   O  A00 X   3      69.310  75.970  28.0980  0.00  0.00     0.000 O
ATOM     49  HD  A00 X   3      69.920  76.058  27.4890  0.00  0.00     0.000 HD
BRANCH 42 49
ATOM     49   O  A00 X   3      70.070  78.147  30.0880  0.00  0.00     0.000 O
ATOM     50   O  A00 X   3      71.306  76.421  31.1930  0.00  0.00     0.000 OA
ATOM     51   O  A00 X   3      68.949  76.257  31.1030  0.00  0.00     0.000 OA
ATOM     52   O  A00 X   3      69.911  77.965  32.4240  0.00  0.00     0.000 OA
ATOM     53   S  A00 X   3      70.075  77.141  31.2760  0.00  0.00     0.000 S
ENDBRANCH 42 49
BRANCH 45 54
ATOM     54   C  A00 X   3      68.830  79.600  25.6540  0.00  0.00     0.000 C
ATOM     55   O  A00 X   3      68.187  78.639  25.2830  0.00  0.00     0.000 OA
ATOM     56   O  A00 X   3      68.558  80.697  25.1920  0.00  0.00     0.000 OA
ENDBRANCH 45 54
BRANCH 41 57
ATOM     57  O4  A00 X   4      67.360  79.960  28.4320  0.00  0.00     0.000 O
BRANCH 57 61
ATOM     58  C1  A00 X   4      64.732  83.353  28.9040  0.00  0.00     0.000 C
ATOM     59  C2  A00 X   4      66.048  83.539  28.1090  0.00  0.00     0.000 C
ATOM     60  C3  A00 X   4      66.714  82.210  27.7020  0.00  0.00     0.000 C
ATOM     61  C4  A00 X   4      66.802  81.225  28.8880  0.00  0.00     0.000 C
ATOM     62  C5  A00 X   4      65.352  81.021  29.3930  0.00  0.00     0.000 C
ATOM     63  O5  A00 X   4      64.833  82.286  29.8760  0.00  0.00     0.000 O
BRANCH 59 66
ATOM     64   N  A00 X   4      67.053  84.243  28.9280  0.00  0.00     0.000 N
ATOM     66  HD  A00 X   4      67.004  84.150  29.7870  0.00  0.00     0.000 HD
ATOM     66   O  A00 X   4      65.965  86.302  28.3140  0.00  0.00     0.000 OA
ATOM     67   S  A00 X   4      67.252  85.813  28.6980  0.00  0.00     0.000 S
ATOM     68   O  A00 X   4      67.700  86.210  30.0010  0.00  0.00     0.000 OA
ATOM     69   O  A00 X   4      68.286  85.793  27.7020  0.00  0.00     0.000 OA
ENDBRANCH 59 66
BRANCH 62 70
ATOM     70   C  A00 X   4      65.218  79.971  30.5220  0.00  0.00     0.000 C
ATOM     71   O  A00 X   4      66.383  80.169  33.9440  0.00  0.00     0.000 OA
ATOM     72   O  A00 X   4      66.633  78.469  32.3330  0.00  0.00     0.000 OA
ATOM     73   O  A00 X   4      65.600  80.567  31.7720  0.00  0.00     0.000 O
ATOM     74   O  A00 X   4      67.976  80.495  32.1630  0.00  0.00     0.000 OA
ATOM     75   S  A00 X   4      66.756  79.888  32.5860  0.00  0.00     0.000 S
ENDBRANCH 62 70
ENDBRANCH 57 61
ENDBRANCH 41 57
ENDBRANCH 40 44
ENDBRANCH 20 40
ENDBRANCH 19 23
ENDBRANCH 1 19
TORSDOF 14
ENDMDL
MODEL 16
REMARK VINA RESULT:       0.0    125.181    130.621
ROOT
ATOM      1  C1  A00 X   1      45.374  21.845 135.7860  0.00  0.00     0.000 C
ATOM      2  C2  A00 X   1      45.996  21.911 137.2070  0.00  0.00     0.000 C
ATOM      3  C3  A00 X   1      45.546  20.795 138.2060  0.00  0.00     0.000 C
ATOM      4  C4  A00 X   1      44.285  19.995 137.7920  0.00  0.00     0.000 C
ATOM      5  C5  A00 X   1      43.412  20.766 136.8020  0.00  0.00     0.000 C
ATOM      6  O5  A00 X   1      44.248  20.945 135.6370  0.00  0.00     0.000 O
ATOM      7   O  A00 X   1      45.248  21.400 139.4630  0.00  0.00     0.000 O
ATOM      9  HD  A00 X   1      44.638  20.804 139.3150  0.00  0.00     0.000 HD
ATOM      9   O  A00 X   1      44.630  18.724 137.2430  0.00  0.00     0.000 O
ATOM     11  HD  A00 X   1      44.019  18.128 137.0950  0.00  0.00     0.000 HD
ENDROOT
BRANCH 2 11
ATOM     11   O  A00 X   1      47.429  21.862 137.0610  0.00  0.00     0.000 O
ATOM     12   O  A00 X   1      48.893  21.704 138.9580  0.00  0.00     0.000 OA
ATOM     13   O  A00 X   1      47.511  23.687 138.6830  0.00  0.00     0.000 OA
ATOM     14   O  A00 X   1      49.303  23.249 137.1810  0.00  0.00     0.000 OA
ATOM     15   S  A00 X   1      48.321  22.675 138.0610  0.00  0.00     0.000 S
ENDBRANCH 2 11
BRANCH 5 16
ATOM     16   C  A00 X   1      42.822  22.074 137.3400  0.00  0.00     0.000 C
ATOM     17   O  A00 X   1      42.311  22.847 136.5560  0.00  0.00     0.000 OA
ATOM     18   O  A00 X   1      42.842  22.361 138.5210  0.00  0.00     0.000 OA
ENDBRANCH 5 16
BRANCH 1 19
ATOM     19  O4  A00 X   2      45.080  23.154 135.2400  0.00  0.00     0.000 O
BRANCH 19 23
ATOM     20  C1  A00 X   2      46.310  22.114 131.2690  0.00  0.00     0.000 C
ATOM     21  C2  A00 X   2      47.331  22.862 132.1600  0.00  0.00     0.000 C
ATOM     22  C3  A00 X   2      46.926  22.780 133.6470  0.00  0.00     0.000 C
ATOM     23  C4  A00 X   2      45.477  23.280 133.8450  0.00  0.00     0.000 C
ATOM     24  C5  A00 X   2      44.561  22.469 132.8880  0.00  0.00     0.000 C
ATOM     25  O5  A00 X   2      45.000  22.688 131.5220  0.00  0.00     0.000 O
ATOM     26   O  A00 X   2      47.938  23.428 134.4370  0.00  0.00     0.000 O
ATOM     28  HD  A00 X   2      47.933  24.143 133.9480  0.00  0.00     0.000 HD
BRANCH 21 30
ATOM     28   N  A00 X   2      47.823  23.545 130.9600  0.00  0.00     0.000 N
ATOM     30  HD  A00 X   2      48.421  23.658 131.5750  0.00  0.00     0.000 HD
ATOM     30   O  A00 X   2      50.104  23.962 131.2430  0.00  0.00     0.000 OA
ATOM     31   S  A00 X   2      48.894  24.696 131.1270  0.00  0.00     0.000 S
ATOM     32   O  A00 X   2      48.763  25.458 129.9240  0.00  0.00     0.000 OA
ATOM     33   O  A00 X   2      48.499  25.481 132.2590  0.00  0.00     0.000 OA
ENDBRANCH 21 30
BRANCH 24 34
ATOM     34   C  A00 X   2      43.030  22.614 133.0540  0.00  0.00     0.000 C
ATOM     35   O  A00 X   2      41.249  25.784 132.8640  0.00  0.00     0.000 OA
ATOM     36   O  A00 X   2      42.657  23.988 133.2840  0.00  0.00     0.000 O
ATOM     37   O  A00 X   2      42.658  24.956 131.1550  0.00  0.00     0.000 OA
ATOM     38   S  A00 X   2      41.725  24.623 132.1880  0.00  0.00     0.000 S
ATOM     39   O  A00 X   2      40.726  23.642 131.8890  0.00  0.00     0.000 OA
ENDBRANCH 24 34
BRANCH 20 40
ATOM     40  O4  A00 X   3      46.331  20.751 131.7160  0.00  0.00     0.000 O
BRANCH 40 44
ATOM     41  C1  A00 X   3      44.432  17.801 132.6240  0.00  0.00     0.000 C
ATOM     42  C2  A00 X   3      45.972  17.910 132.6830  0.00  0.00     0.000 C
ATOM     43  C3  A00 X   3      46.543  18.441 131.3430  0.00  0.00     0.000 C
ATOM     44  C4  A00 X   3      45.874  19.709 130.8270  0.00  0.00     0.000 C
ATOM     45  C5  A00 X   3      44.331  19.520 130.7920  0.00  0.00     0.000 C
ATOM     46  O5  A00 X   3      43.837  19.008 132.0720  0.00  0.00     0.000 O
ATOM     47   O  A00 X   3      47.965  18.501 131.2530  0.00  0.00     0.000 O
ATOM     49  HD  A00 X   3      47.795  19.239 130.8340  0.00  0.00     0.000 HD
BRANCH 42 49
ATOM     49   O  A00 X   3      46.291  18.794 133.7800  0.00  0.00     0.000 O
ATOM     50   O  A00 X   3      48.282  19.700 134.7520  0.00  0.00     0.000 OA
ATOM     51   O  A00 X   3      48.266  17.430 134.0910  0.00  0.00     0.000 OA
ATOM     52   O  A00 X   3      46.925  18.079 135.9250  0.00  0.00     0.000 OA
ATOM     53   S  A00 X   3      47.512  18.497 134.6990  0.00  0.00     0.000 S
ENDBRANCH 42 49
BRANCH 45 54
ATOM     54   C  A00 X   3      43.891  18.671 129.5930  0.00  0.00     0.000 C
ATOM     55   O  A00 X   3      42.713  18.487 129.3640  0.00  0.00     0.000 OA
ATOM     56   O  A00 X   3      44.716  18.164 128.8490  0.00  0.00     0.000 OA
ENDBRANCH 45 54
BRANCH 41 57
ATOM     57  O4  A00 X   4      44.008  16.585 131.9680  0.00  0.00     0.000 O
BRANCH 57 61
ATOM     58  C1  A00 X   4      40.634  13.955 132.5470  0.00  0.00     0.000 C
ATOM     59  C2  A00 X   4      40.367  15.421 132.1240  0.00  0.00     0.000 C
ATOM     60  C3  A00 X   4      41.623  16.149 131.6040  0.00  0.00     0.000 C
ATOM     61  C4  A00 X   4      42.831  15.950 132.5440  0.00  0.00     0.000 C
ATOM     62  C5  A00 X   4      43.048  14.421 132.6580  0.00  0.00     0.000 C
ATOM     63  O5  A00 X   4      41.879  13.817 133.2680  0.00  0.00     0.000 O
BRANCH 59 66
ATOM     64   N  A00 X   4      39.907  16.210 133.2810  0.00  0.00     0.000 N
ATOM     66  HD  A00 X   4      40.169  15.957 134.0670  0.00  0.00     0.000 HD
ATOM     66   O  A00 X   4      37.704  15.322 132.8830  0.00  0.00     0.000 OA
ATOM     67   S  A00 X   4      38.338  16.476 133.4400  0.00  0.00     0.000 S
ATOM     68   O  A00 X   4      38.241  16.605 134.8650  0.00  0.00     0.000 OA
ATOM     69   O  A00 X   4      38.217  17.716 132.7280  0.00  0.00     0.000 OA
ENDBRANCH 59 66
BRANCH 62 70
ATOM     70   C  A00 X   4      44.296  14.019 133.4800  0.00  0.00     0.000 C
ATOM     71   O  A00 X   4      44.852  14.331 137.0440  0.00  0.00     0.000 OA
ATOM     72   O  A00 X   4      46.203  14.956 135.2200  0.00  0.00     0.000 OA
ATOM     73   O  A00 X   4      43.985  14.091 134.8810  0.00  0.00     0.000 O
ATOM     74   O  A00 X   4      44.256  16.305 135.7930  0.00  0.00     0.000 OA
ATOM     75   S  A00 X   4      44.872  15.017 135.7830  0.00  0.00     0.000 S
ENDBRANCH 62 70
ENDBRANCH 57 61
ENDBRANCH 41 57
ENDBRANCH 40 44
ENDBRANCH 20 40
ENDBRANCH 19 23
ENDBRANCH 1 19
TORSDOF 14
ENDMDL
MODEL 17
REMARK VINA RESULT:       0.0    101.516    105.976
ROOT
ATOM      1  C1  A00 X   1     132.628  56.119  78.0000  0.00  0.00     0.000 C
ATOM      2  C2  A00 X   1     133.054  56.962  79.2320  0.00  0.00     0.000 C
ATOM      3  C3  A00 X   1     132.761  58.496  79.1490  0.00  0.00     0.000 C
ATOM      4  C4  A00 X   1     132.429  59.039  77.7350  0.00  0.00     0.000 C
ATOM      5  C5  A00 X   1     132.967  58.132  76.6280  0.00  0.00     0.000 C
ATOM      6  O5  A00 X   1     132.277  56.876  76.8150  0.00  0.00     0.000 O
ATOM      7   O  A00 X   1     133.914  59.207  79.5950  0.00  0.00     0.000 O
ATOM      9  HD  A00 X   1     133.607  59.627  78.9030  0.00  0.00     0.000 HD
ATOM      9   O  A00 X   1     131.025  59.226  77.5650  0.00  0.00     0.000 O
ATOM     11  HD  A00 X   1     130.717  59.647  76.8730  0.00  0.00     0.000 HD
ENDROOT
BRANCH 2 11
ATOM     11   O  A00 X   1     132.388  56.418  80.3870  0.00  0.00     0.000 O
ATOM     12   O  A00 X   1     132.475  57.499  82.5300  0.00  0.00     0.000 OA
ATOM     13   O  A00 X   1     134.527  56.639  81.5460  0.00  0.00     0.000 OA
ATOM     14   O  A00 X   1     132.832  55.148  82.2950  0.00  0.00     0.000 OA
ATOM     15   S  A00 X   1     133.120  56.456  81.7730  0.00  0.00     0.000 S
ENDBRANCH 2 11
BRANCH 5 16
ATOM     16   C  A00 X   1     134.493  57.993  76.5890  0.00  0.00     0.000 C
ATOM     17   O  A00 X   1     134.980  57.131  75.8860  0.00  0.00     0.000 OA
ATOM     18   O  A00 X   1     135.230  58.717  77.2280  0.00  0.00     0.000 OA
ENDBRANCH 5 16
BRANCH 1 19
ATOM     19  O4  A00 X   2     133.567  55.060  77.6920  0.00  0.00     0.000 O
BRANCH 19 23
ATOM     20  C1  A00 X   2     130.514  52.223  76.6970  0.00  0.00     0.000 C
ATOM     21  C2  A00 X   2     131.118  52.153  78.1200  0.00  0.00     0.000 C
ATOM     22  C3  A00 X   2     131.857  53.462  78.4690  0.00  0.00     0.000 C
ATOM     23  C4  A00 X   2     132.907  53.799  77.3870  0.00  0.00     0.000 C
ATOM     24  C5  A00 X   2     132.183  53.821  76.0130  0.00  0.00     0.000 C
ATOM     25  O5  A00 X   2     131.595  52.516  75.7730  0.00  0.00     0.000 O
ATOM     26   O  A00 X   2     132.339  53.373  79.8210  0.00  0.00     0.000 O
ATOM     28  HD  A00 X   2     132.709  52.601  79.6910  0.00  0.00     0.000 HD
BRANCH 21 30
ATOM     28   N  A00 X   2     130.959  50.696  78.0750  0.00  0.00     0.000 N
ATOM     30  HD  A00 X   2     131.090  50.908  78.9040  0.00  0.00     0.000 HD
ATOM     30   O  A00 X   2     130.545  49.942  80.2470  0.00  0.00     0.000 OA
ATOM     31   S  A00 X   2     131.556  49.831  79.2560  0.00  0.00     0.000 S
ATOM     32   O  A00 X   2     131.699  48.528  78.6830  0.00  0.00     0.000 OA
ATOM     33   O  A00 X   2     132.840  50.379  79.5750  0.00  0.00     0.000 OA
ENDBRANCH 21 30
BRANCH 24 34
ATOM     34   C  A00 X   2     132.962  54.359  74.7900  0.00  0.00     0.000 C
ATOM     35   O  A00 X   2     136.116  52.974  73.6110  0.00  0.00     0.000 OA
ATOM     36   O  A00 X   2     134.316  53.864  74.7750  0.00  0.00     0.000 O
ATOM     37   O  A00 X   2     134.138  51.708  73.8860  0.00  0.00     0.000 OA
ATOM     38   S  A00 X   2     134.693  52.979  73.5310  0.00  0.00     0.000 S
ATOM     39   O  A00 X   2     134.151  53.642  72.3830  0.00  0.00     0.000 OA
ENDBRANCH 24 34
BRANCH 20 40
ATOM     40  O4  A00 X   3     129.593  53.324  76.7210  0.00  0.00     0.000 O
BRANCH 40 44
ATOM     41  C1  A00 X   3     128.327  56.278  75.0500  0.00  0.00     0.000 C
ATOM     42  C2  A00 X   3     127.852  55.776  76.4310  0.00  0.00     0.000 C
ATOM     43  C3  A00 X   3     127.472  54.274  76.3750  0.00  0.00     0.000 C
ATOM     44  C4  A00 X   3     128.530  53.377  75.7450  0.00  0.00     0.000 C
ATOM     45  C5  A00 X   3     128.952  53.943  74.3600  0.00  0.00     0.000 C
ATOM     46  O5  A00 X   3     129.291  55.364  74.4580  0.00  0.00     0.000 O
ATOM     47   O  A00 X   3     126.936  53.722  77.5760  0.00  0.00     0.000 O
ATOM     49  HD  A00 X   3     127.416  53.040  77.3440  0.00  0.00     0.000 HD
BRANCH 42 49
ATOM     49   O  A00 X   3     128.930  56.014  77.3610  0.00  0.00     0.000 O
ATOM     50   O  A00 X   3     129.341  55.593  79.6820  0.00  0.00     0.000 OA
ATOM     51   O  A00 X   3     127.204  56.358  79.0220  0.00  0.00     0.000 OA
ATOM     52   O  A00 X   3     129.037  57.838  78.8370  0.00  0.00     0.000 OA
ATOM     53   S  A00 X   3     128.626  56.477  78.8160  0.00  0.00     0.000 S
ENDBRANCH 42 49
BRANCH 45 54
ATOM     54   C  A00 X   3     127.903  53.646  73.2820  0.00  0.00     0.000 C
ATOM     55   O  A00 X   3     128.137  53.873  72.1120  0.00  0.00     0.000 OA
ATOM     56   O  A00 X   3     126.816  53.177  73.5800  0.00  0.00     0.000 OA
ENDBRANCH 45 54
BRANCH 41 57
ATOM     57  O4  A00 X   4     127.214  56.597  74.1860  0.00  0.00     0.000 O
BRANCH 57 61
ATOM     58  C1  A00 X   4     126.633  59.585  71.1240  0.00  0.00     0.000 C
ATOM     59  C2  A00 X   4     127.751  58.531  70.9280  0.00  0.00     0.000 C
ATOM     60  C3  A00 X   4     127.632  57.325  71.8820  0.00  0.00     0.000 C
ATOM     61  C4  A00 X   4     127.402  57.769  73.3420  0.00  0.00     0.000 C
ATOM     62  C5  A00 X   4     126.119  58.637  73.3360  0.00  0.00     0.000 C
ATOM     63  O5  A00 X   4     126.344  59.816  72.5220  0.00  0.00     0.000 O
BRANCH 59 66
ATOM     64   N  A00 X   4     129.080  59.107  71.2030  0.00  0.00     0.000 N
ATOM     66  HD  A00 X   4     129.123  59.760  71.7700  0.00  0.00     0.000 HD
ATOM     66   O  A00 X   4     129.033  60.022  68.9760  0.00  0.00     0.000 OA
ATOM     67   S  A00 X   4     129.970  59.583  69.9630  0.00  0.00     0.000 S
ATOM     68   O  A00 X   4     130.744  60.619  70.5830  0.00  0.00     0.000 OA
ATOM     69   O  A00 X   4     130.704  58.378  69.7000  0.00  0.00     0.000 OA
ENDBRANCH 59 66
BRANCH 62 70
ATOM     70   C  A00 X   4     125.657  59.092  74.7420  0.00  0.00     0.000 C
ATOM     71   O  A00 X   4     127.221  61.473  76.9760  0.00  0.00     0.000 OA
ATOM     72   O  A00 X   4     126.423  59.293  77.3710  0.00  0.00     0.000 OA
ATOM     73   O  A00 X   4     126.437  60.225  75.1540  0.00  0.00     0.000 O
ATOM     74   O  A00 X   4     128.527  59.607  76.1820  0.00  0.00     0.000 OA
ATOM     75   S  A00 X   4     127.232  60.117  76.5020  0.00  0.00     0.000 S
ENDBRANCH 62 70
ENDBRANCH 57 61
ENDBRANCH 41 57
ENDBRANCH 40 44
ENDBRANCH 20 40
ENDBRANCH 19 23
ENDBRANCH 1 19
TORSDOF 14
ENDMDL
MODEL 18
REMARK VINA RESULT:       0.0     89.366     93.108
ROOT
ATOM      1  C1  A00 X   1     102.864 116.512 120.1930  0.00  0.00     0.000 C
ATOM      2  C2  A00 X   1     102.690 115.183 120.9750  0.00  0.00     0.000 C
ATOM      3  C3  A00 X   1     101.233 114.838 121.4280  0.00  0.00     0.000 C
ATOM      4  C4  A00 X   1     100.220 116.011 121.3720  0.00  0.00     0.000 C
ATOM      5  C5  A00 X   1     100.912 117.373 121.4160  0.00  0.00     0.000 C
ATOM      6  O5  A00 X   1     101.727 117.410 120.2230  0.00  0.00     0.000 O
ATOM      7   O  A00 X   1     101.267 114.397 122.7830  0.00  0.00     0.000 O
ATOM      9  HD  A00 X   1     100.576 114.912 122.7000  0.00  0.00     0.000 HD
ATOM      9   O  A00 X   1      99.390 115.929 120.2140  0.00  0.00     0.000 O
ATOM     11  HD  A00 X   1      98.698 116.444 120.1310  0.00  0.00     0.000 HD
ENDROOT
BRANCH 2 11
ATOM     11   O  A00 X   1     103.187 114.116 120.1430  0.00  0.00     0.000 O
ATOM     12   O  A00 X   1     102.928 111.807 120.7480  0.00  0.00     0.000 OA
ATOM     13   O  A00 X   1     104.287 113.259 122.1490  0.00  0.00     0.000 OA
ATOM     14   O  A00 X   1     105.012 112.672 119.9610  0.00  0.00     0.000 OA
ATOM     15   S  A00 X   1     103.881 112.886 120.8220  0.00  0.00     0.000 S
ENDBRANCH 2 11
BRANCH 5 16
ATOM     16   C  A00 X   1     101.695 117.662 122.7010  0.00  0.00     0.000 C
ATOM     17   O  A00 X   1     102.438 118.621 122.7260  0.00  0.00     0.000 OA
ATOM     18   O  A00 X   1     101.593 116.971 123.6950  0.00  0.00     0.000 OA
ENDBRANCH 5 16
BRANCH 1 19
ATOM     19  O4  A00 X   2     104.092 117.204 120.5290  0.00  0.00     0.000 O
BRANCH 19 23
ATOM     20  C1  A00 X   2     104.866 118.432 116.4970  0.00  0.00     0.000 C
ATOM     21  C2  A00 X   2     105.595 117.167 117.0110  0.00  0.00     0.000 C
ATOM     22  C3  A00 X   2     104.908 116.614 118.2770  0.00  0.00     0.000 C
ATOM     23  C4  A00 X   2     104.785 117.714 119.3550  0.00  0.00     0.000 C
ATOM     24  C5  A00 X   2     104.058 118.928 118.7130  0.00  0.00     0.000 C
ATOM     25  O5  A00 X   2     104.839 119.397 117.5830  0.00  0.00     0.000 O
ATOM     26   O  A00 X   2     105.578 115.405 118.6740  0.00  0.00     0.000 O
ATOM     28  HD  A00 X   2     106.363 115.769 118.6400  0.00  0.00     0.000 HD
BRANCH 21 30
ATOM     28   N  A00 X   2     106.749 117.545 116.1900  0.00  0.00     0.000 N
ATOM     30  HD  A00 X   2     106.861 116.716 116.4130  0.00  0.00     0.000 HD
ATOM     30   O  A00 X   2     107.817 115.588 115.4910  0.00  0.00     0.000 OA
ATOM     31   S  A00 X   2     108.083 116.707 116.3240  0.00  0.00     0.000 S
ATOM     32   O  A00 X   2     109.092 117.595 115.8380  0.00  0.00     0.000 OA
ATOM     33   O  A00 X   2     108.280 116.445 117.7190  0.00  0.00     0.000 OA
ENDBRANCH 21 30
BRANCH 24 34
ATOM     34   C  A00 X   2     103.604 120.077 119.6440  0.00  0.00     0.000 C
ATOM     35   O  A00 X   2     104.843 123.494 119.4190  0.00  0.00     0.000 OA
ATOM     36   O  A00 X   2     104.502 121.202 119.5600  0.00  0.00     0.000 O
ATOM     37   O  A00 X   2     103.844 122.329 117.6190  0.00  0.00     0.000 OA
ATOM     38   S  A00 X   2     103.858 122.537 119.0350  0.00  0.00     0.000 S
ATOM     39   O  A00 X   2     102.595 122.665 119.6990  0.00  0.00     0.000 OA
ENDBRANCH 24 34
BRANCH 20 40
ATOM     40  O4  A00 X   3     103.527 118.013 116.1950  0.00  0.00     0.000 O
BRANCH 40 44
ATOM     41  C1  A00 X   3      99.974 118.688 116.3940  0.00  0.00     0.000 C
ATOM     42  C2  A00 X   3     100.596 117.425 115.7590  0.00  0.00     0.000 C
ATOM     43  C3  A00 X   3     101.698 117.804 114.7370  0.00  0.00     0.000 C
ATOM     44  C4  A00 X   3     102.740 118.783 115.2620  0.00  0.00     0.000 C
ATOM     45  C5  A00 X   3     102.039 120.026 115.8790  0.00  0.00     0.000 C
ATOM     46  O5  A00 X   3     101.000 119.622 116.8290  0.00  0.00     0.000 O
ATOM     47   O  A00 X   3     102.284 116.717 114.0220  0.00  0.00     0.000 O
ATOM     49  HD  A00 X   3     103.007 117.180 114.1360  0.00  0.00     0.000 HD
BRANCH 42 49
ATOM     49   O  A00 X   3     101.128 116.628 116.8390  0.00  0.00     0.000 O
ATOM     50   O  A00 X   3     102.321 114.562 117.0410  0.00  0.00     0.000 OA
ATOM     51   O  A00 X   3     100.542 114.705 115.4900  0.00  0.00     0.000 OA
ATOM     52   O  A00 X   3     100.035 114.784 117.7970  0.00  0.00     0.000 OA
ATOM     53   S  A00 X   3     101.009 115.076 116.8030  0.00  0.00     0.000 S
ENDBRANCH 42 49
BRANCH 45 54
ATOM     54   C  A00 X   3     101.527 120.984 114.7970  0.00  0.00     0.000 C
ATOM     55   O  A00 X   3     101.131 122.094 115.0900  0.00  0.00     0.000 OA
ATOM     56   O  A00 X   3     101.507 120.648 113.6230  0.00  0.00     0.000 OA
ENDBRANCH 45 54
BRANCH 41 57
ATOM     57  O4  A00 X   4      98.969 119.277 115.5380  0.00  0.00     0.000 O
BRANCH 57 61
ATOM     58  C1  A00 X   4      95.316 121.432 116.3450  0.00  0.00     0.000 C
ATOM     59  C2  A00 X   4      96.657 122.036 116.8330  0.00  0.00     0.000 C
ATOM     60  C3  A00 X   4      97.896 121.383 116.1880  0.00  0.00     0.000 C
ATOM     61  C4  A00 X   4      97.820 119.842 116.2310  0.00  0.00     0.000 C
ATOM     62  C5  A00 X   4      96.510 119.449 115.5060  0.00  0.00     0.000 C
ATOM     63  O5  A00 X   4      95.379 119.991 116.2350  0.00  0.00     0.000 O
BRANCH 59 66
ATOM     64   N  A00 X   4      96.818 121.830 118.2830  0.00  0.00     0.000 N
ATOM     66  HD  A00 X   4      96.428 121.142 118.6350  0.00  0.00     0.000 HD
ATOM     66   O  A00 X   4      95.414 123.759 118.6120  0.00  0.00     0.000 OA
ATOM     67   S  A00 X   4      96.466 123.044 119.2640  0.00  0.00     0.000 S
ATOM     68   O  A00 X   4      96.082 122.321 120.4420  0.00  0.00     0.000 OA
ATOM     69   O  A00 X   4      97.751 123.677 119.3550  0.00  0.00     0.000 OA
ENDBRANCH 59 66
BRANCH 62 70
ATOM     70   C  A00 X   4      96.307 117.923 115.3480  0.00  0.00     0.000 C
ATOM     71   O  A00 X   4      95.624 115.457 117.9090  0.00  0.00     0.000 OA
ATOM     72   O  A00 X   4      97.217 115.468 116.1760  0.00  0.00     0.000 OA
ATOM     73   O  A00 X   4      95.816 117.380 116.5840  0.00  0.00     0.000 O
ATOM     74   O  A00 X   4      97.573 116.856 118.1470  0.00  0.00     0.000 OA
ATOM     75   S  A00 X   4      96.644 116.232 117.2610  0.00  0.00     0.000 S
ENDBRANCH 62 70
ENDBRANCH 57 61
ENDBRANCH 41 57
ENDBRANCH 40 44
ENDBRANCH 20 40
ENDBRANCH 19 23
ENDBRANCH 1 19
TORSDOF 14
ENDMDL
MODEL 19
REMARK VINA RESULT:       0.0     84.987     89.776
ROOT
ATOM      1  C1  A00 X   1     128.721 120.538  73.0880  0.00  0.00     0.000 C
ATOM      2  C2  A00 X   1     127.780 120.597  71.8550  0.00  0.00     0.000 C
ATOM      3  C3  A00 X   1     127.570 122.011  71.2190  0.00  0.00     0.000 C
ATOM      4  C4  A00 X   1     128.016 123.211  72.0940  0.00  0.00     0.000 C
ATOM      5  C5  A00 X   1     128.063 122.856  73.5800  0.00  0.00     0.000 C
ATOM      6  O5  A00 X   1     129.064 121.817  73.6770  0.00  0.00     0.000 O
ATOM      7   O  A00 X   1     126.180 122.193  70.9590  0.00  0.00     0.000 O
ATOM      9  HD  A00 X   1     126.481 122.941  71.2760  0.00  0.00     0.000 HD
ATOM      9   O  A00 X   1     129.284 123.717  71.6780  0.00  0.00     0.000 O
ATOM     11  HD  A00 X   1     129.585 124.465  71.9940  0.00  0.00     0.000 HD
ENDROOT
BRANCH 2 11
ATOM     11   O  A00 X   1     128.311 119.706  70.8550  0.00  0.00     0.000 O
ATOM     12   O  A00 X   1     127.410 119.613  68.6310  0.00  0.00     0.000 OA
ATOM     13   O  A00 X   1     126.011 118.958  70.5100  0.00  0.00     0.000 OA
ATOM     14   O  A00 X   1     127.880 117.630  69.8780  0.00  0.00     0.000 OA
ATOM     15   S  A00 X   1     127.316 118.952  69.9070  0.00  0.00     0.000 S
ENDBRANCH 2 11
BRANCH 5 16
ATOM     16   C  A00 X   1     126.716 122.469  74.1970  0.00  0.00     0.000 C
ATOM     17   O  A00 X   1     126.705 121.974  75.3050  0.00  0.00     0.000 OA
ATOM     18   O  A00 X   1     125.660 122.645  73.6210  0.00  0.00     0.000 OA
ENDBRANCH 5 16
BRANCH 1 19
ATOM     19  O4  A00 X   2     128.271 119.597  74.0930  0.00  0.00     0.000 O
BRANCH 19 23
ATOM     20  C1  A00 X   2     132.220 118.203  75.0010  0.00  0.00     0.000 C
ATOM     21  C2  A00 X   2     131.371 117.357  74.0230  0.00  0.00     0.000 C
ATOM     22  C3  A00 X   2     130.190 118.179  73.4670  0.00  0.00     0.000 C
ATOM     23  C4  A00 X   2     129.355 118.780  74.6200  0.00  0.00     0.000 C
ATOM     24  C5  A00 X   2     130.319 119.585  75.5340  0.00  0.00     0.000 C
ATOM     25  O5  A00 X   2     131.335 118.685  76.0480  0.00  0.00     0.000 O
ATOM     26   O  A00 X   2     129.475 117.374  72.5140  0.00  0.00     0.000 O
ATOM     28  HD  A00 X   2     129.414 116.700  73.0540  0.00  0.00     0.000 HD
BRANCH 21 30
ATOM     28   N  A00 X   2     132.004 116.155  74.5750  0.00  0.00     0.000 N
ATOM     30  HD  A00 X   2     131.628 115.921  73.8310  0.00  0.00     0.000 HD
ATOM     30   O  A00 X   2     132.144 114.559  72.8740  0.00  0.00     0.000 OA
ATOM     31   S  A00 X   2     131.474 114.739  74.1140  0.00  0.00     0.000 S
ATOM     32   O  A00 X   2     131.897 113.862  75.1610  0.00  0.00     0.000 OA
ATOM     33   O  A00 X   2     130.044 114.813  74.0750  0.00  0.00     0.000 OA
ENDBRANCH 21 30
BRANCH 24 34
ATOM     34   C  A00 X   2     129.698 120.476  76.6360  0.00  0.00     0.000 C
ATOM     35   O  A00 X   2     130.216 119.968  80.2040  0.00  0.00     0.000 OA
ATOM     36   O  A00 X   2     129.778 119.842  77.9280  0.00  0.00     0.000 O
ATOM     37   O  A00 X   2     131.969 120.247  78.6410  0.00  0.00     0.000 OA
ATOM     38   S  A00 X   2     130.633 120.611  79.0010  0.00  0.00     0.000 S
ATOM     39   O  A00 X   2     130.270 121.992  78.8940  0.00  0.00     0.000 OA
ENDBRANCH 24 34
BRANCH 20 40
ATOM     40  O4  A00 X   3     132.704 119.315  74.2330  0.00  0.00     0.000 O
BRANCH 40 44
ATOM     41  C1  A00 X   3     133.308 122.882  74.0440  0.00  0.00     0.000 C
ATOM     42  C2  A00 X   3     133.593 121.879  72.9050  0.00  0.00     0.000 C
ATOM     43  C3  A00 X   3     134.433 120.681  73.4170  0.00  0.00     0.000 C
ATOM     44  C4  A00 X   3     133.887 120.016  74.6750  0.00  0.00     0.000 C
ATOM     45  C5  A00 X   3     133.631 121.086  75.7740  0.00  0.00     0.000 C
ATOM     46  O5  A00 X   3     132.845 122.202  75.2440  0.00  0.00     0.000 O
ATOM     47   O  A00 X   3     134.831 119.732  72.4300  0.00  0.00     0.000 O
ATOM     49  HD  A00 X   3     134.658 119.168  73.0640  0.00  0.00     0.000 HD
BRANCH 42 49
ATOM     49   O  A00 X   3     132.314 121.447  72.3920  0.00  0.00     0.000 O
ATOM     50   O  A00 X   3     131.545 119.911  70.7240  0.00  0.00     0.000 OA
ATOM     51   O  A00 X   3     133.416 121.274  70.2450  0.00  0.00     0.000 OA
ATOM     52   O  A00 X   3     131.298 122.301  70.4550  0.00  0.00     0.000 OA
ATOM     53   S  A00 X   3     132.117 121.213  70.8660  0.00  0.00     0.000 S
ENDBRANCH 42 49
BRANCH 45 54
ATOM     54   C  A00 X   3     134.935 121.532  76.4460  0.00  0.00     0.000 C
ATOM     55   O  A00 X   3     134.912 122.232  77.4370  0.00  0.00     0.000 OA
ATOM     56   O  A00 X   3     136.018 121.192  75.9960  0.00  0.00     0.000 OA
ENDBRANCH 45 54
BRANCH 41 57
ATOM     57  O4  A00 X   4     134.427 123.769  74.2670  0.00  0.00     0.000 O
BRANCH 57 61
ATOM     58  C1  A00 X   4     134.705 127.900  75.4910  0.00  0.00     0.000 C
ATOM     59  C2  A00 X   4     134.061 126.880  76.4640  0.00  0.00     0.000 C
ATOM     60  C3  A00 X   4     134.339 125.411  76.0860  0.00  0.00     0.000 C
ATOM     61  C4  A00 X   4     134.071 125.143  74.5890  0.00  0.00     0.000 C
ATOM     62  C5  A00 X   4     134.972 126.128  73.8030  0.00  0.00     0.000 C
ATOM     63  O5  A00 X   4     134.574 127.489  74.1110  0.00  0.00     0.000 O
BRANCH 59 66
ATOM     64   N  A00 X   4     132.594 127.016  76.4530  0.00  0.00     0.000 N
ATOM     66  HD  A00 X   4     132.225 127.311  75.7270  0.00  0.00     0.000 HD
ATOM     66   O  A00 X   4     132.853 128.855  77.9860  0.00  0.00     0.000 OA
ATOM     67   S  A00 X   4     131.902 127.850  77.6300  0.00  0.00     0.000 S
ATOM     68   O  A00 X   4     130.728 128.322  76.9570  0.00  0.00     0.000 OA
ATOM     69   O  A00 X   4     131.655 126.797  78.5740  0.00  0.00     0.000 OA
ENDBRANCH 59 66
BRANCH 62 70
ATOM     70   C  A00 X   4     134.927 125.938  72.2680  0.00  0.00     0.000 C
ATOM     71   O  A00 X   4     132.211 126.643  69.9810  0.00  0.00     0.000 OA
ATOM     72   O  A00 X   4     133.554 124.725  70.2220  0.00  0.00     0.000 OA
ATOM     73   O  A00 X   4     133.751 126.576  71.7450  0.00  0.00     0.000 O
ATOM     74   O  A00 X   4     131.794 125.174  71.8470  0.00  0.00     0.000 OA
ATOM     75   S  A00 X   4     132.745 125.699  70.9210  0.00  0.00     0.000 S
ENDBRANCH 62 70
ENDBRANCH 57 61
ENDBRANCH 41 57
ENDBRANCH 40 44
ENDBRANCH 20 40
ENDBRANCH 19 23
ENDBRANCH 1 19
TORSDOF 14
ENDMDL
MODEL 20
REMARK VINA RESULT:       0.0      6.496     11.449
ROOT
ATOM      1  C1  A00 X   1      49.527 111.617  49.9320  0.00  0.00     0.000 C
ATOM      2  C2  A00 X   1      50.667 111.159  48.9820  0.00  0.00     0.000 C
ATOM      3  C3  A00 X   1      51.148 109.680  49.1490  0.00  0.00     0.000 C
ATOM      4  C4  A00 X   1      50.704 108.976  50.4570  0.00  0.00     0.000 C
ATOM      5  C5  A00 X   1      50.360 109.975  51.5620  0.00  0.00     0.000 C
ATOM      6  O5  A00 X   1      49.242 110.729  51.0410  0.00  0.00     0.000 O
ATOM      7   O  A00 X   1      52.574 109.660  49.1430  0.00  0.00     0.000 O
ATOM      9  HD  A00 X   1      52.313 109.109  49.7590  0.00  0.00     0.000 HD
ATOM      9   O  A00 X   1      49.594 108.107  50.2310  0.00  0.00     0.000 O
ATOM     11  HD  A00 X   1      49.334 107.556  50.8460  0.00  0.00     0.000 HD
ENDROOT
BRANCH 2 11
ATOM     11   O  A00 X   1      50.214 111.355  47.6280  0.00  0.00     0.000 O
ATOM     12   O  A00 X   1      51.473 110.566  45.7420  0.00  0.00     0.000 OA
ATOM     13   O  A00 X   1      52.429 112.282  47.1760  0.00  0.00     0.000 OA
ATOM     14   O  A00 X   1      50.551 112.770  45.8010  0.00  0.00     0.000 OA
ATOM     15   S  A00 X   1      51.260 111.753  46.5300  0.00  0.00     0.000 S
ENDBRANCH 2 11
BRANCH 5 16
ATOM     16   C  A00 X   1      51.527 110.852  52.0290  0.00  0.00     0.000 C
ATOM     17   O  A00 X   1      51.289 111.803  52.7440  0.00  0.00     0.000 OA
ATOM     18   O  A00 X   1      52.678 110.625  51.7150  0.00  0.00     0.000 OA
ENDBRANCH 5 16
BRANCH 1 19
ATOM     19  O4  A00 X   2      49.685 112.986  50.3780  0.00  0.00     0.000 O
BRANCH 19 23
ATOM     20  C1  A00 X   2      45.500 113.875  50.1210  0.00  0.00     0.000 C
ATOM     21  C2  A00 X   2      46.396 114.302  48.9330  0.00  0.00     0.000 C
ATOM     22  C3  A00 X   2      47.744 113.552  48.9640  0.00  0.00     0.000 C
ATOM     23  C4  A00 X   2      48.436 113.735  50.3330  0.00  0.00     0.000 C
ATOM     24  C5  A00 X   2      47.435 113.293  51.4340  0.00  0.00     0.000 C
ATOM     25  O5  A00 X   2      46.245 114.119  51.3440  0.00  0.00     0.000 O
ATOM     26   O  A00 X   2      48.509 113.931  47.8060  0.00  0.00     0.000 O
ATOM     28  HD  A00 X   2      48.396 114.778  47.9460  0.00  0.00     0.000 HD
BRANCH 21 30
ATOM     28   N  A00 X   2      45.541 115.481  48.7610  0.00  0.00     0.000 N
ATOM     30  HD  A00 X   2      46.006 115.401  48.0350  0.00  0.00     0.000 HD
ATOM     30   O  A00 X   2      45.500 116.026  46.4900  0.00  0.00     0.000 OA
ATOM     31   S  A00 X   2      45.968 116.581  47.7100  0.00  0.00     0.000 S
ATOM     32   O  A00 X   2      45.274 117.753  48.1460  0.00  0.00     0.000 OA
ATOM     33   O  A00 X   2      47.383 116.764  47.8400  0.00  0.00     0.000 OA
ENDBRANCH 21 30
BRANCH 24 34
ATOM     34   C  A00 X   2      47.961 113.160  52.8830  0.00  0.00     0.000 C
ATOM     35   O  A00 X   2      46.789 115.187  55.6720  0.00  0.00     0.000 OA
ATOM     36   O  A00 X   2      47.588 114.302  53.6800  0.00  0.00     0.000 O
ATOM     37   O  A00 X   2      45.373 113.882  54.3000  0.00  0.00     0.000 OA
ATOM     38   S  A00 X   2      46.662 113.987  54.9110  0.00  0.00     0.000 S
ATOM     39   O  A00 X   2      47.199 112.814  55.5330  0.00  0.00     0.000 OA
ENDBRANCH 24 34
BRANCH 20 40
ATOM     40  O4  A00 X   3      45.290 112.464  49.9610  0.00  0.00     0.000 O
BRANCH 40 44
ATOM     41  C1  A00 X   3      45.166 109.190  51.5060  0.00  0.00     0.000 C
ATOM     42  C2  A00 X   3      44.958 109.461  50.0000  0.00  0.00     0.000 C
ATOM     43  C3  A00 X   3      43.904 110.576  49.7770  0.00  0.00     0.000 C
ATOM     44  C4  A00 X   3      44.145 111.845  50.5850  0.00  0.00     0.000 C
ATOM     45  C5  A00 X   3      44.339 111.492  52.0860  0.00  0.00     0.000 C
ATOM     46  O5  A00 X   3      45.334 110.429  52.2480  0.00  0.00     0.000 O
ATOM     47   O  A00 X   3      43.566 110.852  48.4190  0.00  0.00     0.000 O
ATOM     49  HD  A00 X   3      43.559 111.669  48.7050  0.00  0.00     0.000 HD
BRANCH 42 49
ATOM     49   O  A00 X   3      46.243 109.832  49.4550  0.00  0.00     0.000 O
ATOM     50   O  A00 X   3      47.088 110.519  47.3230  0.00  0.00     0.000 OA
ATOM     51   O  A00 X   3      45.502 108.768  47.4120  0.00  0.00     0.000 OA
ATOM     52   O  A00 X   3      47.663 108.376  48.2830  0.00  0.00     0.000 OA
ATOM     53   S  A00 X   3      46.662 109.355  48.0340  0.00  0.00     0.000 S
ENDBRANCH 42 49
BRANCH 45 54
ATOM     54   C  A00 X   3      43.005 111.179  52.7730  0.00  0.00     0.000 C
ATOM     55   O  A00 X   3      41.983 111.081  52.1250  0.00  0.00     0.000 OA
ATOM     56   O  A00 X   3      42.945 111.025  53.9840  0.00  0.00     0.000 OA
ENDBRANCH 45 54
BRANCH 41 57
ATOM     57  O4  A00 X   4      44.142 108.320  52.0380  0.00  0.00     0.000 O
BRANCH 57 61
ATOM     58  C1  A00 X   4      44.164 105.294  55.1170  0.00  0.00     0.000 C
ATOM     59  C2  A00 X   4      44.499 106.754  55.5100  0.00  0.00     0.000 C
ATOM     60  C3  A00 X   4      44.113 107.785  54.4310  0.00  0.00     0.000 C
ATOM     61  C4  A00 X   4      44.602 107.358  53.0300  0.00  0.00     0.000 C
ATOM     62  C5  A00 X   4      43.978 105.967  52.7560  0.00  0.00     0.000 C
ATOM     63  O5  A00 X   4      44.480 105.019  53.7330  0.00  0.00     0.000 O
BRANCH 59 66
ATOM     64   N  A00 X   4      45.953 106.904  55.6990  0.00  0.00     0.000 N
ATOM     66  HD  A00 X   4      46.471 106.373  55.2530  0.00  0.00     0.000 HD
ATOM     66   O  A00 X   4      45.657 106.007  57.9140  0.00  0.00     0.000 OA
ATOM     67   S  A00 X   4      46.530 106.878  57.1910  0.00  0.00     0.000 S
ATOM     68   O  A00 X   4      47.848 106.369  56.9490  0.00  0.00     0.000 OA
ATOM     69   O  A00 X   4      46.488 108.278  57.5030  0.00  0.00     0.000 OA
ENDBRANCH 59 66
BRANCH 62 70
ATOM     70   C  A00 X   4      44.265 105.413  51.3400  0.00  0.00     0.000 C
ATOM     71   O  A00 X   4      47.404 104.251  49.9600  0.00  0.00     0.000 OA
ATOM     72   O  A00 X   4      45.811 105.754  49.0960  0.00  0.00     0.000 OA
ATOM     73   O  A00 X   4      45.584 104.845  51.3110  0.00  0.00     0.000 O
ATOM     74   O  A00 X   4      47.304 106.477  50.8810  0.00  0.00     0.000 OA
ATOM     75   S  A00 X   4      46.601 105.404  50.2560  0.00  0.00     0.000 S
ENDBRANCH 62 70
ENDBRANCH 57 61
ENDBRANCH 41 57
ENDBRANCH 40 44
ENDBRANCH 20 40
ENDBRANCH 19 23
ENDBRANCH 1 19
TORSDOF 14
ENDMDL
MODEL 21
REMARK VINA RESULT:       0.0    106.982    111.502
ROOT
ATOM      1  C1  A00 X   1      22.752  63.759 141.1090  0.00  0.00     0.000 C
ATOM      2  C2  A00 X   1      22.448  63.296 142.5590  0.00  0.00     0.000 C
ATOM      3  C3  A00 X   1      21.431  62.117 142.7040  0.00  0.00     0.000 C
ATOM      4  C4  A00 X   1      20.585  61.804 141.4430  0.00  0.00     0.000 C
ATOM      5  C5  A00 X   1      20.494  63.002 140.4970  0.00  0.00     0.000 C
ATOM      6  O5  A00 X   1      21.858  63.251 140.0890  0.00  0.00     0.000 O
ATOM      7   O  A00 X   1      20.507  62.435 143.7420  0.00  0.00     0.000 O
ATOM      9  HD  A00 X   1      20.053  62.075 143.0980  0.00  0.00     0.000 HD
ATOM      9   O  A00 X   1      21.096  60.672 140.7400  0.00  0.00     0.000 O
ATOM     11  HD  A00 X   1      20.642  60.312 140.0950  0.00  0.00     0.000 HD
ENDROOT
BRANCH 2 11
ATOM     11   O  A00 X   1      23.696  62.917 143.1690  0.00  0.00     0.000 O
ATOM     12   O  A00 X   1      23.788  61.868 145.3280  0.00  0.00     0.000 OA
ATOM     13   O  A00 X   1      22.936  64.139 145.1430  0.00  0.00     0.000 OA
ATOM     14   O  A00 X   1      25.236  63.680 144.7500  0.00  0.00     0.000 OA
ATOM     15   S  A00 X   1      23.895  63.163 144.7050  0.00  0.00     0.000 S
ENDBRANCH 2 11
BRANCH 5 16
ATOM     16   C  A00 X   1      19.793  64.234 141.0780  0.00  0.00     0.000 C
ATOM     17   O  A00 X   1      19.868  65.284 140.4740  0.00  0.00     0.000 OA
ATOM     18   O  A00 X   1      19.162  64.196 142.1150  0.00  0.00     0.000 OA
ENDBRANCH 5 16
BRANCH 1 19
ATOM     19  O4  A00 X   2      22.915  65.195 141.0010  0.00  0.00     0.000 O
BRANCH 19 23
ATOM     20  C1  A00 X   2      26.154  64.925 138.2070  0.00  0.00     0.000 C
ATOM     21  C2  A00 X   2      26.512  65.135 139.6980  0.00  0.00     0.000 C
ATOM     22  C3  A00 X   2      25.315  64.782 140.6060  0.00  0.00     0.000 C
ATOM     23  C4  A00 X   2      24.056  65.567 140.1750  0.00  0.00     0.000 C
ATOM     24  C5  A00 X   2      23.816  65.289 138.6660  0.00  0.00     0.000 C
ATOM     25  O5  A00 X   2      24.980  65.730 137.9190  0.00  0.00     0.000 O
ATOM     26   O  A00 X   2      25.719  64.926 141.9780  0.00  0.00     0.000 O
ATOM     28  HD  A00 X   2      26.043  65.719 141.8520  0.00  0.00     0.000 HD
BRANCH 21 30
ATOM     28   N  A00 X   2      27.652  65.951 139.2700  0.00  0.00     0.000 N
ATOM     30  HD  A00 X   2      27.787  65.749 140.1010  0.00  0.00     0.000 HD
ATOM     30   O  A00 X   2      29.365  65.688 140.8380  0.00  0.00     0.000 OA
ATOM     31   S  A00 X   2      28.497  66.710 140.3700  0.00  0.00     0.000 S
ATOM     32   O  A00 X   2      29.139  67.759 139.6400  0.00  0.00     0.000 OA
ATOM     33   O  A00 X   2      27.569  67.257 141.3150  0.00  0.00     0.000 OA
ENDBRANCH 21 30
BRANCH 24 34
ATOM     34   C  A00 X   2      22.486  65.773 138.0410  0.00  0.00     0.000 C
ATOM     35   O  A00 X   2      22.264  68.249 135.3810  0.00  0.00     0.000 OA
ATOM     36   O  A00 X   2      22.676  66.985 137.2840  0.00  0.00     0.000 O
ATOM     37   O  A00 X   2      23.536  66.261 135.2330  0.00  0.00     0.000 OA
ATOM     38   S  A00 X   2      22.350  66.874 135.7490  0.00  0.00     0.000 S
ATOM     39   O  A00 X   2      21.125  66.140 135.6470  0.00  0.00     0.000 OA
ENDBRANCH 24 34
BRANCH 20 40
ATOM     40  O4  A00 X   3      25.825  63.534 138.0790  0.00  0.00     0.000 O
BRANCH 40 44
ATOM     41  C1  A00 X   3      23.617  61.007 136.7150  0.00  0.00     0.000 C
ATOM     42  C2  A00 X   3      24.827  60.718 137.6290  0.00  0.00     0.000 C
ATOM     43  C3  A00 X   3      26.104  61.418 137.0980  0.00  0.00     0.000 C
ATOM     44  C4  A00 X   3      25.931  62.900 136.7870  0.00  0.00     0.000 C
ATOM     45  C5  A00 X   3      24.700  63.109 135.8610  0.00  0.00     0.000 C
ATOM     46  O5  A00 X   3      23.521  62.423 136.3950  0.00  0.00     0.000 O
ATOM     47   O  A00 X   3      27.306  61.150 137.8170  0.00  0.00     0.000 O
ATOM     49  HD  A00 X   3      27.452  61.990 137.6640  0.00  0.00     0.000 HD
BRANCH 42 49
ATOM     49   O  A00 X   3      24.480  61.185 138.9510  0.00  0.00     0.000 O
ATOM     50   O  A00 X   3      25.561  61.312 141.0830  0.00  0.00     0.000 OA
ATOM     51   O  A00 X   3      25.843  59.363 139.7760  0.00  0.00     0.000 OA
ATOM     52   O  A00 X   3      23.709  59.808 140.6900  0.00  0.00     0.000 OA
ATOM     53   S  A00 X   3      24.919  60.381 140.2100  0.00  0.00     0.000 S
ENDBRANCH 42 49
BRANCH 45 54
ATOM     54   C  A00 X   3      25.012  62.730 134.4080  0.00  0.00     0.000 C
ATOM     55   O  A00 X   3      24.215  62.964 133.5230  0.00  0.00     0.000 OA
ATOM     56   O  A00 X   3      26.065  62.185 134.1160  0.00  0.00     0.000 OA
ENDBRANCH 45 54
BRANCH 41 57
ATOM     57  O4  A00 X   4      23.603  60.141 135.5580  0.00  0.00     0.000 O
BRANCH 57 61
ATOM     58  C1  A00 X   4      20.413  58.380 133.2420  0.00  0.00     0.000 C
ATOM     59  C2  A00 X   4      20.523  59.924 133.2980  0.00  0.00     0.000 C
ATOM     60  C3  A00 X   4      21.878  60.425 133.8380  0.00  0.00     0.000 C
ATOM     61  C4  A00 X   4      22.283  59.694 135.1360  0.00  0.00     0.000 C
ATOM     62  C5  A00 X   4      22.313  58.183 134.7950  0.00  0.00     0.000 C
ATOM     63  O5  A00 X   4      20.981  57.753 134.4150  0.00  0.00     0.000 O
BRANCH 59 66
ATOM     64   N  A00 X   4      19.509  60.479 134.2120  0.00  0.00     0.000 N
ATOM     66  HD  A00 X   4      19.241  59.976 134.8650  0.00  0.00     0.000 HD
ATOM     66   O  A00 X   4      17.927  60.299 132.4060  0.00  0.00     0.000 OA
ATOM     67   S  A00 X   4      18.166  61.077 133.5810  0.00  0.00     0.000 S
ATOM     68   O  A00 X   4      17.252  60.857 134.6630  0.00  0.00     0.000 OA
ATOM     69   O  A00 X   4      18.556  62.448 133.4100  0.00  0.00     0.000 OA
ENDBRANCH 59 66
BRANCH 62 70
ATOM     70   C  A00 X   4      22.809  57.283 135.9520  0.00  0.00     0.000 C
ATOM     71   O  A00 X   4      21.166  56.519 139.0860  0.00  0.00     0.000 OA
ATOM     72   O  A00 X   4      23.366  57.233 138.6410  0.00  0.00     0.000 OA
ATOM     73   O  A00 X   4      21.734  57.069 136.8810  0.00  0.00     0.000 O
ATOM     74   O  A00 X   4      21.532  58.832 138.5100  0.00  0.00     0.000 OA
ATOM     75   S  A00 X   4      21.965  57.479 138.3770  0.00  0.00     0.000 S
ENDBRANCH 62 70
ENDBRANCH 57 61
ENDBRANCH 41 57
ENDBRANCH 40 44
ENDBRANCH 20 40
ENDBRANCH 19 23
ENDBRANCH 1 19
TORSDOF 14
ENDMDL
MODEL 22
REMARK VINA RESULT:       0.0    100.623    104.745
ROOT
ATOM      1  C1  A00 X   1     117.588  85.072 114.0430  0.00  0.00     0.000 C
ATOM      2  C2  A00 X   1     116.973  84.207 115.1750  0.00  0.00     0.000 C
ATOM      3  C3  A00 X   1     117.990  83.472 116.1090  0.00  0.00     0.000 C
ATOM      4  C4  A00 X   1     119.445  83.393 115.5810  0.00  0.00     0.000 C
ATOM      5  C5  A00 X   1     119.518  83.547 114.0620  0.00  0.00     0.000 C
ATOM      6  O5  A00 X   1     119.004  84.873 113.8030  0.00  0.00     0.000 O
ATOM      7   O  A00 X   1     117.552  82.127 116.2920  0.00  0.00     0.000 O
ATOM      9  HD  A00 X   1     118.412  82.104 116.1860  0.00  0.00     0.000 HD
ATOM      9   O  A00 X   1     120.280  84.369 116.2050  0.00  0.00     0.000 O
ATOM     11  HD  A00 X   1     121.139  84.345 116.0990  0.00  0.00     0.000 HD
ENDROOT
BRANCH 2 11
ATOM     11   O  A00 X   1     116.136  85.065 115.9760  0.00  0.00     0.000 O
ATOM     12   O  A00 X   1     115.140  84.312 118.0270  0.00  0.00     0.000 OA
ATOM     13   O  A00 X   1     114.492  83.259 115.9320  0.00  0.00     0.000 OA
ATOM     14   O  A00 X   1     113.882  85.512 116.3870  0.00  0.00     0.000 OA
ATOM     15   S  A00 X   1     114.841  84.468 116.6260  0.00  0.00     0.000 S
ENDBRANCH 2 11
BRANCH 5 16
ATOM     16   C  A00 X   1     118.809  82.448 113.2650  0.00  0.00     0.000 C
ATOM     17   O  A00 X   1     118.637  82.612 112.0740  0.00  0.00     0.000 OA
ATOM     18   O  A00 X   1     118.420  81.418 113.7790  0.00  0.00     0.000 OA
ENDBRANCH 5 16
BRANCH 1 19
ATOM     19  O4  A00 X   2     116.829  85.007 112.8110  0.00  0.00     0.000 O
BRANCH 19 23
ATOM     20  C1  A00 X   2     117.346  89.166 111.9140  0.00  0.00     0.000 C
ATOM     21  C2  A00 X   2     116.021  88.740 112.5910  0.00  0.00     0.000 C
ATOM     22  C3  A00 X   2     116.155  87.343 113.2320  0.00  0.00     0.000 C
ATOM     23  C4  A00 X   2     116.655  86.314 112.1920  0.00  0.00     0.000 C
ATOM     24  C5  A00 X   2     117.971  86.863 111.5760  0.00  0.00     0.000 C
ATOM     25  O5  A00 X   2     117.694  88.140 110.9450  0.00  0.00     0.000 O
ATOM     26   O  A00 X   2     114.925  87.024 113.9050  0.00  0.00     0.000 O
ATOM     28  HD  A00 X   2     114.439  87.222 113.2160  0.00  0.00     0.000 HD
BRANCH 21 30
ATOM     28   N  A00 X   2     115.336  89.781 111.8190  0.00  0.00     0.000 N
ATOM     30  HD  A00 X   2     114.797  89.545 112.4550  0.00  0.00     0.000 HD
ATOM     30   O  A00 X   2     113.549  90.577 113.0960  0.00  0.00     0.000 OA
ATOM     31   S  A00 X   2     113.759  89.862 111.8880  0.00  0.00     0.000 S
ATOM     32   O  A00 X   2     113.404  90.570 110.6970  0.00  0.00     0.000 OA
ATOM     33   O  A00 X   2     113.263  88.519 111.8330  0.00  0.00     0.000 OA
ENDBRANCH 21 30
BRANCH 24 34
ATOM     34   C  A00 X   2     118.799  85.918 110.6740  0.00  0.00     0.000 C
ATOM     35   O  A00 X   2     119.415  86.500 107.1330  0.00  0.00     0.000 OA
ATOM     36   O  A00 X   2     118.579  86.204 109.2780  0.00  0.00     0.000 O
ATOM     37   O  A00 X   2     119.949  88.048 108.8390  0.00  0.00     0.000 OA
ATOM     38   S  A00 X   2     119.853  86.666 108.4800  0.00  0.00     0.000 S
ATOM     39   O  A00 X   2     120.920  85.800 108.8820  0.00  0.00     0.000 OA
ENDBRANCH 24 34
BRANCH 20 40
ATOM     40  O4  A00 X   3     118.327  89.190 112.9610  0.00  0.00     0.000 O
BRANCH 40 44
ATOM     41  C1  A00 X   3     121.683  88.316 114.0100  0.00  0.00     0.000 C
ATOM     42  C2  A00 X   3     120.628  88.995 114.9100  0.00  0.00     0.000 C
ATOM     43  C3  A00 X   3     120.018  90.237 114.2110  0.00  0.00     0.000 C
ATOM     44  C4  A00 X   3     119.520  89.985 112.7930  0.00  0.00     0.000 C
ATOM     45  C5  A00 X   3     120.636  89.306 111.9500  0.00  0.00     0.000 C
ATOM     46  O5  A00 X   3     121.190  88.147 112.6520  0.00  0.00     0.000 O
ATOM     47   O  A00 X   3     119.092  90.996 114.9850  0.00  0.00     0.000 O
ATOM     49  HD  A00 X   3     118.678  91.055 114.2270  0.00  0.00     0.000 HD
BRANCH 42 49
ATOM     49   O  A00 X   3     119.618  88.004 115.2010  0.00  0.00     0.000 O
ATOM     50   O  A00 X   3     117.534  87.948 116.3760  0.00  0.00     0.000 OA
ATOM     51   O  A00 X   3     119.343  89.142 117.3190  0.00  0.00     0.000 OA
ATOM     52   O  A00 X   3     119.487  86.786 117.2040  0.00  0.00     0.000 OA
ATOM     53   S  A00 X   3     118.945  87.956 116.6030  0.00  0.00     0.000 S
ENDBRANCH 42 49
BRANCH 45 54
ATOM     54   C  A00 X   3     121.706  90.313 111.5100  0.00  0.00     0.000 C
ATOM     55   O  A00 X   3     121.723  91.437 111.9670  0.00  0.00     0.000 OA
ATOM     56   O  A00 X   3     122.558  90.002 110.6920  0.00  0.00     0.000 OA
ENDBRANCH 45 54
BRANCH 41 57
ATOM     57  O4  A00 X   4     122.963  88.983 114.0900  0.00  0.00     0.000 O
BRANCH 57 61
ATOM     58  C1  A00 X   4     127.035  87.569 113.8520  0.00  0.00     0.000 C
ATOM     59  C2  A00 X   4     126.115  87.390 112.6190  0.00  0.00     0.000 C
ATOM     60  C3  A00 X   4     124.828  88.237 112.6840  0.00  0.00     0.000 C
ATOM     61  C4  A00 X   4     124.122  88.103 114.0510  0.00  0.00     0.000 C
ATOM     62  C5  A00 X   4     125.157  88.531 115.1200  0.00  0.00     0.000 C
ATOM     63  O5  A00 X   4     126.283  87.617 115.0870  0.00  0.00     0.000 O
BRANCH 59 66
ATOM     64   N  A00 X   4     125.700  85.976 112.6030  0.00  0.00     0.000 N
ATOM     66  HD  A00 X   4     125.693  85.553 113.3590  0.00  0.00     0.000 HD
ATOM     66   O  A00 X   4     127.765  85.486 111.4660  0.00  0.00     0.000 OA
ATOM     67   S  A00 X   4     126.433  84.983 111.5860  0.00  0.00     0.000 S
ATOM     68   O  A00 X   4     126.303  83.744 112.2960  0.00  0.00     0.000 OA
ATOM     69   O  A00 X   4     125.567  85.102 110.4480  0.00  0.00     0.000 OA
ENDBRANCH 59 66
BRANCH 62 70
ATOM     70   C  A00 X   4     124.597  88.568 116.5620  0.00  0.00     0.000 C
ATOM     71   O  A00 X   4     123.570  85.803 118.6620  0.00  0.00     0.000 OA
ATOM     72   O  A00 X   4     122.476  87.822 118.1390  0.00  0.00     0.000 OA
ATOM     73   O  A00 X   4     124.560  87.233 117.0920  0.00  0.00     0.000 O
ATOM     74   O  A00 X   4     122.560  86.034 116.4840  0.00  0.00     0.000 OA
ATOM     75   S  A00 X   4     123.180  86.682 117.5950  0.00  0.00     0.000 S
ENDBRANCH 62 70
ENDBRANCH 57 61
ENDBRANCH 41 57
ENDBRANCH 40 44
ENDBRANCH 20 40
ENDBRANCH 19 23
ENDBRANCH 1 19
TORSDOF 14
ENDMDL
MODEL 23
REMARK VINA RESULT:       0.0     31.925     37.155
ROOT
ATOM      1  C1  A00 X   1      43.131  82.481  22.3310  0.00  0.00     0.000 C
ATOM      2  C2  A00 X   1      42.472  81.077  22.2940  0.00  0.00     0.000 C
ATOM      3  C3  A00 X   1      42.328  80.422  20.8810  0.00  0.00     0.000 C
ATOM      4  C4  A00 X   1      42.514  81.381  19.6770  0.00  0.00     0.000 C
ATOM      5  C5  A00 X   1      42.263  82.840  20.0580  0.00  0.00     0.000 C
ATOM      6  O5  A00 X   1      43.273  83.140  21.0480  0.00  0.00     0.000 O
ATOM      7   O  A00 X   1      41.017  79.873  20.7620  0.00  0.00     0.000 O
ATOM      9  HD  A00 X   1      41.205  80.252  20.0070  0.00  0.00     0.000 HD
ATOM      9   O  A00 X   1      43.813  81.249  19.1010  0.00  0.00     0.000 O
ATOM     11  HD  A00 X   1      44.001  81.629  18.3460  0.00  0.00     0.000 HD
ENDROOT
BRANCH 2 11
ATOM     11   O  A00 X   1      43.249  80.205  23.1390  0.00  0.00     0.000 O
ATOM     12   O  A00 X   1      42.837  77.842  23.2460  0.00  0.00     0.000 OA
ATOM     13   O  A00 X   1      41.118  79.385  24.0070  0.00  0.00     0.000 OA
ATOM     14   O  A00 X   1      43.150  79.152  25.2200  0.00  0.00     0.000 OA
ATOM     15   S  A00 X   1      42.517  79.068  23.9320  0.00  0.00     0.000 S
ENDBRANCH 2 11
BRANCH 5 16
ATOM     16   C  A00 X   1      40.837  83.152  20.5230  0.00  0.00     0.000 C
ATOM     17   O  A00 X   1      40.617  84.228  21.0400  0.00  0.00     0.000 OA
ATOM     18   O  A00 X   1      39.921  82.367  20.3860  0.00  0.00     0.000 OA
ENDBRANCH 5 16
BRANCH 1 19
ATOM     19  O4  A00 X   2      42.527  83.360  23.3120  0.00  0.00     0.000 O
BRANCH 19 23
ATOM     20  C1  A00 X   2      46.260  85.080  24.5230  0.00  0.00     0.000 C
ATOM     21  C2  A00 X   2      45.686  83.936  25.3920  0.00  0.00     0.000 C
ATOM     22  C3  A00 X   2      44.608  83.147  24.6190  0.00  0.00     0.000 C
ATOM     23  C4  A00 X   2      43.516  84.100  24.0830  0.00  0.00     0.000 C
ATOM     24  C5  A00 X   2      44.219  85.205  23.2490  0.00  0.00     0.000 C
ATOM     25  O5  A00 X   2      45.149  85.917  24.1060  0.00  0.00     0.000 O
ATOM     26   O  A00 X   2      44.156  82.057  25.4410  0.00  0.00     0.000 O
ATOM     28  HD  A00 X   2      44.018  82.566  26.1280  0.00  0.00     0.000 HD
BRANCH 21 30
ATOM     28   N  A00 X   2      46.246  84.602  26.5720  0.00  0.00     0.000 N
ATOM     30  HD  A00 X   2      46.052  83.792  26.8100  0.00  0.00     0.000 HD
ATOM     30   O  A00 X   2      46.832  82.958  28.1250  0.00  0.00     0.000 OA
ATOM     31   S  A00 X   2      45.903  84.025  28.0030  0.00  0.00     0.000 S
ATOM     32   O  A00 X   2      46.135  85.131  28.8790  0.00  0.00     0.000 OA
ATOM     33   O  A00 X   2      44.513  83.678  27.9980  0.00  0.00     0.000 OA
ENDBRANCH 21 30
BRANCH 24 34
ATOM     34   C  A00 X   2      43.332  86.156  22.4110  0.00  0.00     0.000 C
ATOM     35   O  A00 X   2      43.097  89.747  22.9650  0.00  0.00     0.000 OA
ATOM     36   O  A00 X   2      43.165  87.429  23.0660  0.00  0.00     0.000 O
ATOM     37   O  A00 X   2      45.128  88.600  22.5710  0.00  0.00     0.000 OA
ATOM     38   S  A00 X   2      43.728  88.668  22.2790  0.00  0.00     0.000 S
ATOM     39   O  A00 X   2      43.327  88.498  20.9150  0.00  0.00     0.000 OA
ENDBRANCH 24 34
BRANCH 20 40
ATOM     40  O4  A00 X   3      46.838  84.442  23.3740  0.00  0.00     0.000 O
BRANCH 40 44
ATOM     41  C1  A00 X   3      47.270  84.427  19.7780  0.00  0.00     0.000 C
ATOM     42  C2  A00 X   3      47.843  83.362  20.7380  0.00  0.00     0.000 C
ATOM     43  C3  A00 X   3      48.621  84.026  21.9030  0.00  0.00     0.000 C
ATOM     44  C4  A00 X   3      47.860  85.131  22.6230  0.00  0.00     0.000 C
ATOM     45  C5  A00 X   3      47.321  86.164  21.5940  0.00  0.00     0.000 C
ATOM     46  O5  A00 X   3      46.603  85.493  20.5080  0.00  0.00     0.000 O
ATOM     47   O  A00 X   3      49.269  83.133  22.8070  0.00  0.00     0.000 O
ATOM     49  HD  A00 X   3      48.998  83.710  23.3940  0.00  0.00     0.000 HD
BRANCH 42 49
ATOM     49   O  A00 X   3      46.726  82.585  21.2230  0.00  0.00     0.000 O
ATOM     50   O  A00 X   3      46.410  80.782  22.7660  0.00  0.00     0.000 OA
ATOM     51   O  A00 X   3      48.267  80.721  21.3040  0.00  0.00     0.000 OA
ATOM     52   O  A00 X   3      46.102  80.482  20.3860  0.00  0.00     0.000 OA
ATOM     53   S  A00 X   3      46.870  81.051  21.4390  0.00  0.00     0.000 S
ENDBRANCH 42 49
BRANCH 45 54
ATOM     54   C  A00 X   3      48.428  87.102  21.0970  0.00  0.00     0.000 C
ATOM     55   O  A00 X   3      49.588  86.900  21.3930  0.00  0.00     0.000 OA
ATOM     56   O  A00 X   3      48.163  88.067  20.3980  0.00  0.00     0.000 OA
ENDBRANCH 45 54
BRANCH 41 57
ATOM     57  O4  A00 X   4      48.267  84.891  18.8400  0.00  0.00     0.000 O
BRANCH 57 61
ATOM     58  C1  A00 X   4      48.057  86.180  14.7250  0.00  0.00     0.000 C
ATOM     59  C2  A00 X   4      47.280  86.987  15.7950  0.00  0.00     0.000 C
ATOM     60  C3  A00 X   4      47.710  86.664  17.2400  0.00  0.00     0.000 C
ATOM     61  C4  A00 X   4      47.778  85.142  17.4920  0.00  0.00     0.000 C
ATOM     62  C5  A00 X   4      48.769  84.572  16.4470  0.00  0.00     0.000 C
ATOM     63  O5  A00 X   4      48.242  84.800  15.1150  0.00  0.00     0.000 O
BRANCH 59 66
ATOM     64   N  A00 X   4      45.836  86.694  15.7560  0.00  0.00     0.000 N
ATOM     66  HD  A00 X   4      45.594  85.909  15.4810  0.00  0.00     0.000 HD
ATOM     66   O  A00 X   4      45.674  88.237  13.9150  0.00  0.00     0.000 OA
ATOM     67   S  A00 X   4      44.877  87.711  14.9790  0.00  0.00     0.000 S
ATOM     68   O  A00 X   4      43.825  86.822  14.5810  0.00  0.00     0.000 OA
ATOM     69   O  A00 X   4      44.524  88.597  16.0520  0.00  0.00     0.000 OA
ENDBRANCH 59 66
BRANCH 62 70
ATOM     70   C  A00 X   4      49.057  83.060  16.6090  0.00  0.00     0.000 C
ATOM     71   O  A00 X   4      46.850  80.258  15.9900  0.00  0.00     0.000 OA
ATOM     72   O  A00 X   4      48.209  80.760  17.8470  0.00  0.00     0.000 OA
ATOM     73   O  A00 X   4      47.986  82.307  16.0180  0.00  0.00     0.000 O
ATOM     74   O  A00 X   4      46.126  81.981  17.5140  0.00  0.00     0.000 OA
ATOM     75   S  A00 X   4      47.223  81.281  16.9260  0.00  0.00     0.000 S
ENDBRANCH 62 70
ENDBRANCH 57 61
ENDBRANCH 41 57
ENDBRANCH 40 44
ENDBRANCH 20 40
ENDBRANCH 19 23
ENDBRANCH 1 19
TORSDOF 14
ENDMDL
MODEL 24
REMARK VINA RESULT:       0.0     32.172     38.246
ROOT
ATOM      1  C1  A00 X   1      47.615  79.947  63.2760  0.00  0.00     0.000 C
ATOM      2  C2  A00 X   1      46.998  80.544  64.5690  0.00  0.00     0.000 C
ATOM      3  C3  A00 X   1      46.846  82.100  64.6030  0.00  0.00     0.000 C
ATOM      4  C4  A00 X   1      47.650  82.874  63.5270  0.00  0.00     0.000 C
ATOM      5  C5  A00 X   1      48.834  82.065  62.9980  0.00  0.00     0.000 C
ATOM      6  O5  A00 X   1      48.237  80.902  62.3810  0.00  0.00     0.000 O
ATOM      7   O  A00 X   1      47.301  82.576  65.8680  0.00  0.00     0.000 O
ATOM      9  HD  A00 X   1      47.594  83.127  65.2680  0.00  0.00     0.000 HD
ATOM      9   O  A00 X   1      46.816  83.276  62.4410  0.00  0.00     0.000 O
ATOM     11  HD  A00 X   1      47.110  83.826  61.8400  0.00  0.00     0.000 HD
ENDROOT
BRANCH 2 11
ATOM     11   O  A00 X   1      45.702  79.942  64.7550  0.00  0.00     0.000 O
ATOM     12   O  A00 X   1      44.183  80.696  66.4550  0.00  0.00     0.000 OA
ATOM     13   O  A00 X   1      46.308  79.710  67.1100  0.00  0.00     0.000 OA
ATOM     14   O  A00 X   1      44.619  78.373  66.1020  0.00  0.00     0.000 OA
ATOM     15   S  A00 X   1      45.186  79.690  66.2130  0.00  0.00     0.000 S
ENDBRANCH 2 11
BRANCH 5 16
ATOM     16   C  A00 X   1      49.904  81.724  64.0400  0.00  0.00     0.000 C
ATOM     17   O  A00 X   1      50.758  80.911  63.7520  0.00  0.00     0.000 OA
ATOM     18   O  A00 X   1      49.932  82.243  65.1380  0.00  0.00     0.000 OA
ENDBRANCH 5 16
BRANCH 1 19
ATOM     19  O4  A00 X   2      48.489  78.822  63.5380  0.00  0.00     0.000 O
BRANCH 19 23
ATOM     20  C1  A00 X   2      47.182  76.612  60.1080  0.00  0.00     0.000 C
ATOM     21  C2  A00 X   2      46.542  76.258  61.4720  0.00  0.00     0.000 C
ATOM     22  C3  A00 X   2      46.773  77.388  62.4970  0.00  0.00     0.000 C
ATOM     23  C4  A00 X   2      48.278  77.722  62.6080  0.00  0.00     0.000 C
ATOM     24  C5  A00 X   2      48.800  78.038  61.1800  0.00  0.00     0.000 C
ATOM     25  O5  A00 X   2      48.591  76.875  60.3370  0.00  0.00     0.000 O
ATOM     26   O  A00 X   2      46.104  77.043  63.7220  0.00  0.00     0.000 O
ATOM     28  HD  A00 X   2      46.456  76.252  63.7510  0.00  0.00     0.000 HD
BRANCH 21 30
ATOM     28   N  A00 X   2      46.480  74.858  61.0380  0.00  0.00     0.000 N
ATOM     30  HD  A00 X   2      45.956  74.932  61.7240  0.00  0.00     0.000 HD
ATOM     30   O  A00 X   2      44.605  73.874  62.0250  0.00  0.00     0.000 OA
ATOM     31   S  A00 X   2      46.020  73.761  62.0790  0.00  0.00     0.000 S
ATOM     32   O  A00 X   2      46.550  72.545  61.5450  0.00  0.00     0.000 OA
ATOM     33   O  A00 X   2      46.649  74.072  63.3280  0.00  0.00     0.000 OA
ENDBRANCH 21 30
BRANCH 24 34
ATOM     34   C  A00 X   2      50.224  78.627  61.0420  0.00  0.00     0.000 C
ATOM     35   O  A00 X   2      53.236  76.993  62.2730  0.00  0.00     0.000 OA
ATOM     36   O  A00 X   2      51.154  77.955  61.9150  0.00  0.00     0.000 O
ATOM     37   O  A00 X   2      51.707  75.990  60.7730  0.00  0.00     0.000 OA
ATOM     38   S  A00 X   2      52.333  77.207  61.1910  0.00  0.00     0.000 S
ATOM     39   O  A00 X   2      52.808  78.093  60.1700  0.00  0.00     0.000 OA
ENDBRANCH 24 34
BRANCH 20 40
ATOM     40  O4  A00 X   3      46.532  77.816  59.6760  0.00  0.00     0.000 O
BRANCH 40 44
ATOM     41  C1  A00 X   3      46.912  81.127  58.2560  0.00  0.00     0.000 C
ATOM     42  C2  A00 X   3      45.571  80.516  58.7180  0.00  0.00     0.000 C
ATOM     43  C3  A00 X   3      45.362  79.109  58.1020  0.00  0.00     0.000 C
ATOM     44  C4  A00 X   3      46.541  78.160  58.2740  0.00  0.00     0.000 C
ATOM     45  C5  A00 X   3      47.849  78.843  57.7850  0.00  0.00     0.000 C
ATOM     46  O5  A00 X   3      48.001  80.171  58.3820  0.00  0.00     0.000 O
ATOM     47   O  A00 X   3      44.113  78.482  58.3900  0.00  0.00     0.000 O
ATOM     49  HD  A00 X   3      44.610  77.775  58.4480  0.00  0.00     0.000 HD
BRANCH 42 49
ATOM     49   O  A00 X   3      45.605  80.461  60.1610  0.00  0.00     0.000 O
ATOM     50   O  A00 X   3      44.171  79.651  61.8980  0.00  0.00     0.000 OA
ATOM     51   O  A00 X   3      43.211  80.798  60.0670  0.00  0.00     0.000 OA
ATOM     52   O  A00 X   3      44.561  82.016  61.5770  0.00  0.00     0.000 OA
ATOM     53   S  A00 X   3      44.318  80.744  60.9890  0.00  0.00     0.000 S
ENDBRANCH 42 49
BRANCH 45 54
ATOM     54   C  A00 X   3      47.945  78.856  56.2540  0.00  0.00     0.000 C
ATOM     55   O  A00 X   3      46.998  78.519  55.5720  0.00  0.00     0.000 OA
ATOM     56   O  A00 X   3      48.973  79.203  55.6950  0.00  0.00     0.000 OA
ENDBRANCH 45 54
BRANCH 41 57
ATOM     57  O4  A00 X   4      46.804  81.724  56.9450  0.00  0.00     0.000 O
BRANCH 57 61
ATOM     58  C1  A00 X   4      48.683  85.152  55.1120  0.00  0.00     0.000 C
ATOM     59  C2  A00 X   4      49.579  83.981  55.5890  0.00  0.00     0.000 C
ATOM     60  C3  A00 X   4      48.794  82.688  55.8860  0.00  0.00     0.000 C
ATOM     61  C4  A00 X   4      47.553  82.959  56.7630  0.00  0.00     0.000 C
ATOM     62  C5  A00 X   4      46.697  83.998  55.9970  0.00  0.00     0.000 C
ATOM     63  O5  A00 X   4      47.450  85.231  55.8630  0.00  0.00     0.000 O
BRANCH 59 66
ATOM     64   N  A00 X   4      50.250  84.331  56.8540  0.00  0.00     0.000 N
ATOM     66  HD  A00 X   4      49.851  84.895  57.3760  0.00  0.00     0.000 HD
ATOM     66   O  A00 X   4      51.884  85.519  55.5430  0.00  0.00     0.000 OA
ATOM     67   S  A00 X   4      51.767  84.835  56.7930  0.00  0.00     0.000 S
ATOM     68   O  A00 X   4      51.810  85.668  57.9590  0.00  0.00     0.000 OA
ATOM     69   O  A00 X   4      52.456  83.584  56.9380  0.00  0.00     0.000 OA
ENDBRANCH 59 66
BRANCH 62 70
ATOM     70   C  A00 X   4      45.342  84.321  56.6720  0.00  0.00     0.000 C
ATOM     71   O  A00 X   4      44.722  86.090  59.7690  0.00  0.00     0.000 OA
ATOM     72   O  A00 X   4      43.891  84.031  58.9850  0.00  0.00     0.000 OA
ATOM     73   O  A00 X   4      45.557  85.248  57.7480  0.00  0.00     0.000 O
ATOM     74   O  A00 X   4      46.179  84.169  59.8110  0.00  0.00     0.000 OA
ATOM     75   S  A00 X   4      45.080  84.829  59.1830  0.00  0.00     0.000 S
ENDBRANCH 62 70
ENDBRANCH 57 61
ENDBRANCH 41 57
ENDBRANCH 40 44
ENDBRANCH 20 40
ENDBRANCH 19 23
ENDBRANCH 1 19
TORSDOF 14
ENDMDL
MODEL 25
REMARK VINA RESULT:       0.0     32.019     38.032
ROOT
ATOM      1  C1  A00 X   1      47.670  78.821  60.5730  0.00  0.00     0.000 C
ATOM      2  C2  A00 X   1      47.053  79.418  61.8670  0.00  0.00     0.000 C
ATOM      3  C3  A00 X   1      46.901  80.975  61.9010  0.00  0.00     0.000 C
ATOM      4  C4  A00 X   1      47.705  81.749  60.8250  0.00  0.00     0.000 C
ATOM      5  C5  A00 X   1      48.889  80.939  60.2950  0.00  0.00     0.000 C
ATOM      6  O5  A00 X   1      48.292  79.776  59.6780  0.00  0.00     0.000 O
ATOM      7   O  A00 X   1      47.355  81.451  63.1660  0.00  0.00     0.000 O
ATOM      9  HD  A00 X   1      47.649  82.001  62.5650  0.00  0.00     0.000 HD
ATOM      9   O  A00 X   1      46.871  82.150  59.7380  0.00  0.00     0.000 O
ATOM     11  HD  A00 X   1      47.164  82.700  59.1380  0.00  0.00     0.000 HD
ENDROOT
BRANCH 2 11
ATOM     11   O  A00 X   1      45.757  78.816  62.0520  0.00  0.00     0.000 O
ATOM     12   O  A00 X   1      44.238  79.570  63.7530  0.00  0.00     0.000 OA
ATOM     13   O  A00 X   1      46.363  78.584  64.4070  0.00  0.00     0.000 OA
ATOM     14   O  A00 X   1      44.673  77.247  63.4000  0.00  0.00     0.000 OA
ATOM     15   S  A00 X   1      45.240  78.564  63.5110  0.00  0.00     0.000 S
ENDBRANCH 2 11
BRANCH 5 16
ATOM     16   C  A00 X   1      49.959  80.599  61.3380  0.00  0.00     0.000 C
ATOM     17   O  A00 X   1      50.812  79.785  61.0500  0.00  0.00     0.000 OA
ATOM     18   O  A00 X   1      49.987  81.117  62.4360  0.00  0.00     0.000 OA
ENDBRANCH 5 16
BRANCH 1 19
ATOM     19  O4  A00 X   2      48.544  77.697  60.8360  0.00  0.00     0.000 O
BRANCH 19 23
ATOM     20  C1  A00 X   2      47.236  75.486  57.4050  0.00  0.00     0.000 C
ATOM     21  C2  A00 X   2      46.597  75.132  58.7700  0.00  0.00     0.000 C
ATOM     22  C3  A00 X   2      46.828  76.262  59.7950  0.00  0.00     0.000 C
ATOM     23  C4  A00 X   2      48.333  76.596  59.9060  0.00  0.00     0.000 C
ATOM     24  C5  A00 X   2      48.855  76.913  58.4780  0.00  0.00     0.000 C
ATOM     25  O5  A00 X   2      48.646  75.750  57.6350  0.00  0.00     0.000 O
ATOM     26   O  A00 X   2      46.159  75.917  61.0200  0.00  0.00     0.000 O
ATOM     28  HD  A00 X   2      46.511  75.127  61.0480  0.00  0.00     0.000 HD
BRANCH 21 30
ATOM     28   N  A00 X   2      46.535  73.733  58.3360  0.00  0.00     0.000 N
ATOM     30  HD  A00 X   2      46.010  73.806  59.0210  0.00  0.00     0.000 HD
ATOM     30   O  A00 X   2      44.660  72.748  59.3230  0.00  0.00     0.000 OA
ATOM     31   S  A00 X   2      46.074  72.636  59.3770  0.00  0.00     0.000 S
ATOM     32   O  A00 X   2      46.604  71.419  58.8430  0.00  0.00     0.000 OA
ATOM     33   O  A00 X   2      46.703  72.946  60.6260  0.00  0.00     0.000 OA
ENDBRANCH 21 30
BRANCH 24 34
ATOM     34   C  A00 X   2      50.279  77.501  58.3400  0.00  0.00     0.000 C
ATOM     35   O  A00 X   2      53.291  75.867  59.5710  0.00  0.00     0.000 OA
ATOM     36   O  A00 X   2      51.209  76.829  59.2120  0.00  0.00     0.000 O
ATOM     37   O  A00 X   2      51.762  74.864  58.0710  0.00  0.00     0.000 OA
ATOM     38   S  A00 X   2      52.388  76.082  58.4880  0.00  0.00     0.000 S
ATOM     39   O  A00 X   2      52.863  76.967  57.4680  0.00  0.00     0.000 OA
ENDBRANCH 24 34
BRANCH 20 40
ATOM     40  O4  A00 X   3      46.587  76.691  56.9740  0.00  0.00     0.000 O
BRANCH 40 44
ATOM     41  C1  A00 X   3      46.967  80.002  55.5540  0.00  0.00     0.000 C
ATOM     42  C2  A00 X   3      45.626  79.390  56.0150  0.00  0.00     0.000 C
ATOM     43  C3  A00 X   3      45.416  77.983  55.3990  0.00  0.00     0.000 C
ATOM     44  C4  A00 X   3      46.596  77.034  55.5720  0.00  0.00     0.000 C
ATOM     45  C5  A00 X   3      47.904  77.717  55.0820  0.00  0.00     0.000 C
ATOM     46  O5  A00 X   3      48.055  79.046  55.6800  0.00  0.00     0.000 O
ATOM     47   O  A00 X   3      44.168  77.357  55.6870  0.00  0.00     0.000 O
ATOM     49  HD  A00 X   3      44.664  76.649  55.7460  0.00  0.00     0.000 HD
BRANCH 42 49
ATOM     49   O  A00 X   3      45.660  79.335  57.4580  0.00  0.00     0.000 O
ATOM     50   O  A00 X   3      44.226  78.526  59.1950  0.00  0.00     0.000 OA
ATOM     51   O  A00 X   3      43.265  79.673  57.3650  0.00  0.00     0.000 OA
ATOM     52   O  A00 X   3      44.616  80.890  58.8750  0.00  0.00     0.000 OA
ATOM     53   S  A00 X   3      44.373  79.618  58.2860  0.00  0.00     0.000 S
ENDBRANCH 42 49
BRANCH 45 54
ATOM     54   C  A00 X   3      47.999  77.730  53.5520  0.00  0.00     0.000 C
ATOM     55   O  A00 X   3      47.053  77.394  52.8700  0.00  0.00     0.000 OA
ATOM     56   O  A00 X   3      49.028  78.077  52.9920  0.00  0.00     0.000 OA
ENDBRANCH 45 54
BRANCH 41 57
ATOM     57  O4  A00 X   4      46.858  80.598  54.2420  0.00  0.00     0.000 O
BRANCH 57 61
ATOM     58  C1  A00 X   4      48.738  84.026  52.4100  0.00  0.00     0.000 C
ATOM     59  C2  A00 X   4      49.634  82.856  52.8860  0.00  0.00     0.000 C
ATOM     60  C3  A00 X   4      48.849  81.562  53.1840  0.00  0.00     0.000 C
ATOM     61  C4  A00 X   4      47.608  81.833  54.0610  0.00  0.00     0.000 C
ATOM     62  C5  A00 X   4      46.752  82.873  53.2950  0.00  0.00     0.000 C
ATOM     63  O5  A00 X   4      47.505  84.105  53.1610  0.00  0.00     0.000 O
BRANCH 59 66
ATOM     64   N  A00 X   4      50.305  83.205  54.1520  0.00  0.00     0.000 N
ATOM     66  HD  A00 X   4      49.906  83.770  54.6730  0.00  0.00     0.000 HD
ATOM     66   O  A00 X   4      51.939  84.393  52.8400  0.00  0.00     0.000 OA
ATOM     67   S  A00 X   4      51.822  83.709  54.0900  0.00  0.00     0.000 S
ATOM     68   O  A00 X   4      51.865  84.542  55.2560  0.00  0.00     0.000 OA
ATOM     69   O  A00 X   4      52.510  82.458  54.2360  0.00  0.00     0.000 OA
ENDBRANCH 59 66
BRANCH 62 70
ATOM     70   C  A00 X   4      45.397  83.195  53.9690  0.00  0.00     0.000 C
ATOM     71   O  A00 X   4      44.777  84.964  57.0670  0.00  0.00     0.000 OA
ATOM     72   O  A00 X   4      43.945  82.905  56.2830  0.00  0.00     0.000 OA
ATOM     73   O  A00 X   4      45.611  84.122  55.0460  0.00  0.00     0.000 O
ATOM     74   O  A00 X   4      46.234  83.043  57.1080  0.00  0.00     0.000 OA
ATOM     75   S  A00 X   4      45.135  83.703  56.4800  0.00  0.00     0.000 S
ENDBRANCH 62 70
ENDBRANCH 57 61
ENDBRANCH 41 57
ENDBRANCH 40 44
ENDBRANCH 20 40
ENDBRANCH 19 23
ENDBRANCH 1 19
TORSDOF 14
ENDMDL
MODEL 26
REMARK VINA RESULT:       0.0     70.908     74.877
ROOT
ATOM      1  C1  A00 X   1      69.531  73.440 103.4630  0.00  0.00     0.000 C
ATOM      2  C2  A00 X   1      68.209  72.807 103.9740  0.00  0.00     0.000 C
ATOM      3  C3  A00 X   1      67.572  73.472 105.2380  0.00  0.00     0.000 C
ATOM      4  C4  A00 X   1      68.502  74.423 106.0340  0.00  0.00     0.000 C
ATOM      5  C5  A00 X   1      69.981  74.129 105.7810  0.00  0.00     0.000 C
ATOM      6  O5  A00 X   1      70.167  74.376 104.3690  0.00  0.00     0.000 O
ATOM      7   O  A00 X   1      67.173  72.445 106.1430  0.00  0.00     0.000 O
ATOM      9  HD  A00 X   1      67.528  73.078 106.6160  0.00  0.00     0.000 HD
ATOM      9   O  A00 X   1      68.225  75.792 105.7390  0.00  0.00     0.000 O
ATOM     11  HD  A00 X   1      68.580  76.425 106.2120  0.00  0.00     0.000 HD
ENDROOT
BRANCH 2 11
ATOM     11   O  A00 X   1      67.258  72.847 102.8930  0.00  0.00     0.000 O
ATOM     12   O  A00 X   1      64.957  72.233 103.2030  0.00  0.00     0.000 OA
ATOM     13   O  A00 X   1      66.688  70.551 103.5020  0.00  0.00     0.000 OA
ATOM     14   O  A00 X   1      66.228  71.436 101.3430  0.00  0.00     0.000 OA
ATOM     15   S  A00 X   1      66.213  71.686 102.7590  0.00  0.00     0.000 S
ENDBRANCH 2 11
BRANCH 5 16
ATOM     16   C  A00 X   1      70.452  72.742 106.2290  0.00  0.00     0.000 C
ATOM     17   O  A00 X   1      71.551  72.361 105.8820  0.00  0.00     0.000 OA
ATOM     18   O  A00 X   1      69.769  72.014 106.9220  0.00  0.00     0.000 OA
ENDBRANCH 5 16
BRANCH 1 19
ATOM     19  O4  A00 X   2      70.473  72.455 102.9740  0.00  0.00     0.000 O
BRANCH 19 23
ATOM     20  C1  A00 X   2      71.776  74.880  99.6900  0.00  0.00     0.000 C
ATOM     21  C2  A00 X   2      70.703  73.803  99.4010  0.00  0.00     0.000 C
ATOM     22  C3  A00 X   2      70.036  73.327 100.7080  0.00  0.00     0.000 C
ATOM     23  C4  A00 X   2      71.102  72.856 101.7230  0.00  0.00     0.000 C
ATOM     24  C5  A00 X   2      72.122  74.011 101.9110  0.00  0.00     0.000 C
ATOM     25  O5  A00 X   2      72.729  74.312 100.6280  0.00  0.00     0.000 O
ATOM     26   O  A00 X   2      69.004  72.381 100.3810  0.00  0.00     0.000 O
ATOM     28  HD  A00 X   2      69.526  71.909  99.8780  0.00  0.00     0.000 HD
BRANCH 21 30
ATOM     28   N  A00 X   2      71.308  73.600  98.0810  0.00  0.00     0.000 N
ATOM     30  HD  A00 X   2      70.521  73.240  98.0540  0.00  0.00     0.000 HD
ATOM     30   O  A00 X   2      69.610  73.014  96.5860  0.00  0.00     0.000 OA
ATOM     31   S  A00 X   2      70.765  72.428  97.1700  0.00  0.00     0.000 S
ATOM     32   O  A00 X   2      71.841  72.179  96.2610  0.00  0.00     0.000 OA
ATOM     33   O  A00 X   2      70.558  71.293  98.0190  0.00  0.00     0.000 OA
ENDBRANCH 21 30
BRANCH 24 34
ATOM     34   C  A00 X   2      73.163  73.883 103.0490  0.00  0.00     0.000 C
ATOM     35   O  A00 X   2      76.762  73.757 102.5160  0.00  0.00     0.000 OA
ATOM     36   O  A00 X   2      74.455  73.505 102.5340  0.00  0.00     0.000 O
ATOM     37   O  A00 X   2      75.371  75.503 101.7350  0.00  0.00     0.000 OA
ATOM     38   S  A00 X   2      75.605  74.549 102.7760  0.00  0.00     0.000 S
ATOM     39   O  A00 X   2      75.467  74.997 104.1300  0.00  0.00     0.000 OA
ENDBRANCH 24 34
BRANCH 20 40
ATOM     40  O4  A00 X   3      71.077  75.966 100.3160  0.00  0.00     0.000 O
BRANCH 40 44
ATOM     41  C1  A00 X   3      70.989  78.462 102.9400  0.00  0.00     0.000 C
ATOM     42  C2  A00 X   3      69.873  78.244 101.8950  0.00  0.00     0.000 C
ATOM     43  C3  A00 X   3      70.455  78.227 100.4580  0.00  0.00     0.000 C
ATOM     44  C4  A00 X   3      71.643  77.293 100.2670  0.00  0.00     0.000 C
ATOM     45  C5  A00 X   3      72.722  77.576 101.3500  0.00  0.00     0.000 C
ATOM     46  O5  A00 X   3      72.128  77.593 102.6880  0.00  0.00     0.000 O
ATOM     47   O  A00 X   3      69.502  78.119  99.4020  0.00  0.00     0.000 O
ATOM     49  HD  A00 X   3      70.110  77.606  99.0580  0.00  0.00     0.000 HD
BRANCH 42 49
ATOM     49   O  A00 X   3      69.229  76.993 102.2190  0.00  0.00     0.000 O
ATOM     50   O  A00 X   3      67.479  75.652 101.2840  0.00  0.00     0.000 OA
ATOM     51   O  A00 X   3      67.204  78.000 101.3560  0.00  0.00     0.000 OA
ATOM     52   O  A00 X   3      67.204  76.802 103.3940  0.00  0.00     0.000 OA
ATOM     53   S  A00 X   3      67.689  76.837 102.0570  0.00  0.00     0.000 S
ENDBRANCH 42 49
BRANCH 45 54
ATOM     54   C  A00 X   3      73.528  78.841 101.0310  0.00  0.00     0.000 C
ATOM     55   O  A00 X   3      73.196  79.574 100.1220  0.00  0.00     0.000 OA
ATOM     56   O  A00 X   3      74.518  79.133 101.6840  0.00  0.00     0.000 OA
ENDBRANCH 45 54
BRANCH 41 57
ATOM     57  O4  A00 X   4      71.334  79.859 103.0700  0.00  0.00     0.000 O
BRANCH 57 61
ATOM     58  C1  A00 X   4      72.665  82.262 106.4000  0.00  0.00     0.000 C
ATOM     59  C2  A00 X   4      73.553  81.080 105.9370  0.00  0.00     0.000 C
ATOM     60  C3  A00 X   4      73.171  80.532 104.5470  0.00  0.00     0.000 C
ATOM     61  C4  A00 X   4      71.651  80.295 104.4220  0.00  0.00     0.000 C
ATOM     62  C5  A00 X   4      70.972  81.655 104.7200  0.00  0.00     0.000 C
ATOM     63  O5  A00 X   4      71.271  82.049 106.0840  0.00  0.00     0.000 O
BRANCH 59 66
ATOM     64   N  A00 X   4      73.406  79.942 106.8630  0.00  0.00     0.000 N
ATOM     66  HD  A00 X   4      72.656  79.867 107.2880  0.00  0.00     0.000 HD
ATOM     66   O  A00 X   4      75.000  81.035 108.3000  0.00  0.00     0.000 OA
ATOM     67   S  A00 X   4      74.531  79.723 107.9780  0.00  0.00     0.000 S
ATOM     68   O  A00 X   4      73.761  79.075 108.9990  0.00  0.00     0.000 OA
ATOM     69   O  A00 X   4      75.423  78.849 107.2700  0.00  0.00     0.000 OA
ENDBRANCH 59 66
BRANCH 62 70
ATOM     70   C  A00 X   4      69.435  81.648 104.5360  0.00  0.00     0.000 C
ATOM     71   O  A00 X   4      66.926  79.974 106.5370  0.00  0.00     0.000 OA
ATOM     72   O  A00 X   4      67.248  80.020 104.2050  0.00  0.00     0.000 OA
ATOM     73   O  A00 X   4      68.821  81.064 105.6960  0.00  0.00     0.000 O
ATOM     74   O  A00 X   4      68.715  78.659 105.5960  0.00  0.00     0.000 OA
ATOM     75   S  A00 X   4      67.890  79.819 105.4850  0.00  0.00     0.000 S
ENDBRANCH 62 70
ENDBRANCH 57 61
ENDBRANCH 41 57
ENDBRANCH 40 44
ENDBRANCH 20 40
ENDBRANCH 19 23
ENDBRANCH 1 19
TORSDOF 14
ENDMDL
MODEL 27
REMARK VINA RESULT:       0.0     73.468     78.261
ROOT
ATOM      1  C1  A00 X   1      68.810  66.606 100.6180  0.00  0.00     0.000 C
ATOM      2  C2  A00 X   1      69.564  65.298 100.2570  0.00  0.00     0.000 C
ATOM      3  C3  A00 X   1      71.060  65.221 100.7070  0.00  0.00     0.000 C
ATOM      4  C4  A00 X   1      71.705  66.569 101.1190  0.00  0.00     0.000 C
ATOM      5  C5  A00 X   1      70.976  67.767 100.5120  0.00  0.00     0.000 C
ATOM      6  O5  A00 X   1      69.643  67.705 101.0670  0.00  0.00     0.000 O
ATOM      7   O  A00 X   1      71.838  64.714  99.6250  0.00  0.00     0.000 O
ATOM      9  HD  A00 X   1      72.292  65.357  99.9870  0.00  0.00     0.000 HD
ATOM      9   O  A00 X   1      71.763  66.708 102.5390  0.00  0.00     0.000 O
ATOM     11  HD  A00 X   1      72.217  67.351 102.9000  0.00  0.00     0.000 HD
ENDROOT
BRANCH 2 11
ATOM     11   O  A00 X   1      68.840  64.199 100.8430  0.00  0.00     0.000 O
ATOM     12   O  A00 X   1      69.701  61.957 100.8240  0.00  0.00     0.000 OA
ATOM     13   O  A00 X   1      69.160  63.043  98.7160  0.00  0.00     0.000 OA
ATOM     14   O  A00 X   1      67.434  62.437 100.2360  0.00  0.00     0.000 OA
ATOM     15   S  A00 X   1      68.812  62.824 100.0920  0.00  0.00     0.000 S
ENDBRANCH 2 11
BRANCH 5 16
ATOM     16   C  A00 X   1      71.001  67.833  98.9810  0.00  0.00     0.000 C
ATOM     17   O  A00 X   1      70.273  68.628  98.4220  0.00  0.00     0.000 OA
ATOM     18   O  A00 X   1      71.725  67.126  98.3100  0.00  0.00     0.000 OA
ENDBRANCH 5 16
BRANCH 1 19
ATOM     19  O4  A00 X   2      67.891  67.029  99.5810  0.00  0.00     0.000 O
BRANCH 19 23
ATOM     20  C1  A00 X   2      64.874  68.302 102.3460  0.00  0.00     0.000 C
ATOM     21  C2  A00 X   2      64.723  66.893 101.7210  0.00  0.00     0.000 C
ATOM     22  C3  A00 X   2      66.058  66.415 101.1140  0.00  0.00     0.000 C
ATOM     23  C4  A00 X   2      66.606  67.459 100.1150  0.00  0.00     0.000 C
ATOM     24  C5  A00 X   2      66.693  68.823 100.8530  0.00  0.00     0.000 C
ATOM     25  O5  A00 X   2      65.365  69.192 101.3090  0.00  0.00     0.000 O
ATOM     26   O  A00 X   2      65.884  65.080 100.6110  0.00  0.00     0.000 O
ATOM     28  HD  A00 X   2      65.170  65.287 100.1660  0.00  0.00     0.000 HD
BRANCH 21 30
ATOM     28   N  A00 X   2      63.269  67.082 101.7180  0.00  0.00     0.000 N
ATOM     30  HD  A00 X   2      63.412  66.235 101.6110  0.00  0.00     0.000 HD
ATOM     30   O  A00 X   2      62.264  64.999 102.0470  0.00  0.00     0.000 OA
ATOM     31   S  A00 X   2      62.363  65.985 101.0300  0.00  0.00     0.000 S
ATOM     32   O  A00 X   2      61.147  66.681 100.7430  0.00  0.00     0.000 OA
ATOM     33   O  A00 X   2      63.014  65.601  99.8130  0.00  0.00     0.000 OA
ENDBRANCH 21 30
BRANCH 24 34
ATOM     34   C  A00 X   2      67.426  69.986 100.1450  0.00  0.00     0.000 C
ATOM     35   O  A00 X   2      65.819  73.086  99.1150  0.00  0.00     0.000 OA
ATOM     36   O  A00 X   2      66.492  70.907  99.5490  0.00  0.00     0.000 O
ATOM     37   O  A00 X   2      65.786  72.253 101.3280  0.00  0.00     0.000 OA
ATOM     38   S  A00 X   2      66.540  72.373 100.1170  0.00  0.00     0.000 S
ATOM     39   O  A00 X   2      67.925  72.718 100.2290  0.00  0.00     0.000 OA
ENDBRANCH 24 34
BRANCH 20 40
ATOM     40  O4  A00 X   3      65.868  68.166 103.3720  0.00  0.00     0.000 O
BRANCH 40 44
ATOM     41  C1  A00 X   3      68.820  69.515 104.9820  0.00  0.00     0.000 C
ATOM     42  C2  A00 X   3      68.131  68.190 105.3740  0.00  0.00     0.000 C
ATOM     43  C3  A00 X   3      66.610  68.397 105.5890  0.00  0.00     0.000 C
ATOM     44  C4  A00 X   3      65.903  69.124 104.4520  0.00  0.00     0.000 C
ATOM     45  C5  A00 X   3      66.650  70.446 104.1200  0.00  0.00     0.000 C
ATOM     46  O5  A00 X   3      68.082  70.205 103.9350  0.00  0.00     0.000 O
ATOM     47   O  A00 X   3      65.883  67.255 106.0400  0.00  0.00     0.000 O
ATOM     49  HD  A00 X   3      65.285  67.560 105.4930  0.00  0.00     0.000 HD
BRANCH 42 49
ATOM     49   O  A00 X   3      68.390  67.247 104.3110  0.00  0.00     0.000 O
ATOM     50   O  A00 X   3      67.787  64.984 103.8160  0.00  0.00     0.000 OA
ATOM     51   O  A00 X   3      68.380  65.548 106.0340  0.00  0.00     0.000 OA
ATOM     52   O  A00 X   3      70.059  65.596 104.3720  0.00  0.00     0.000 OA
ATOM     53   S  A00 X   3      68.671  65.751 104.6370  0.00  0.00     0.000 S
ENDBRANCH 42 49
BRANCH 45 54
ATOM     54   C  A00 X   3      66.350  71.541 105.1500  0.00  0.00     0.000 C
ATOM     55   O  A00 X   3      66.715  72.684 104.9620  0.00  0.00     0.000 OA
ATOM     56   O  A00 X   3      65.740  71.284 106.1770  0.00  0.00     0.000 OA
ENDBRANCH 45 54
BRANCH 41 57
ATOM     57  O4  A00 X   4      69.101  70.333 106.1390  0.00  0.00     0.000 O
BRANCH 57 61
ATOM     58  C1  A00 X   4      72.303  73.065 107.1000  0.00  0.00     0.000 C
ATOM     59  C2  A00 X   4      71.397  73.383 105.8840  0.00  0.00     0.000 C
ATOM     60  C3  A00 X   4      70.096  72.556 105.8550  0.00  0.00     0.000 C
ATOM     61  C4  A00 X   4      70.365  71.055 106.0940  0.00  0.00     0.000 C
ATOM     62  C5  A00 X   4      71.089  70.954 107.4590  0.00  0.00     0.000 C
ATOM     63  O5  A00 X   4      72.360  71.647 107.3770  0.00  0.00     0.000 O
BRANCH 59 66
ATOM     64   N  A00 X   4      72.091  73.062 104.6250  0.00  0.00     0.000 N
ATOM     66  HD  A00 X   4      72.689  72.435 104.6460  0.00  0.00     0.000 HD
ATOM     66   O  A00 X   4      73.203  75.190 104.8110  0.00  0.00     0.000 OA
ATOM     67   S  A00 X   4      72.782  74.256 103.8140  0.00  0.00     0.000 S
ATOM     68   O  A00 X   4      73.835  73.544 103.1520  0.00  0.00     0.000 OA
ATOM     69   O  A00 X   4      71.698  74.638 102.9540  0.00  0.00     0.000 OA
ENDBRANCH 59 66
BRANCH 62 70
ATOM     70   C  A00 X   4      71.349  69.503 107.9310  0.00  0.00     0.000 C
ATOM     71   O  A00 X   4      73.640  67.057 106.5620  0.00  0.00     0.000 OA
ATOM     72   O  A00 X   4      71.361  66.878 107.1270  0.00  0.00     0.000 OA
ATOM     73   O  A00 X   4      72.510  68.987 107.2590  0.00  0.00     0.000 O
ATOM     74   O  A00 X   4      72.009  68.056 105.0940  0.00  0.00     0.000 OA
ATOM     75   S  A00 X   4      72.348  67.668 106.4260  0.00  0.00     0.000 S
ENDBRANCH 62 70
ENDBRANCH 57 61
ENDBRANCH 41 57
ENDBRANCH 40 44
ENDBRANCH 20 40
ENDBRANCH 19 23
ENDBRANCH 1 19
TORSDOF 14
ENDMDL
MODEL 28
REMARK VINA RESULT:       0.0     23.021     29.672
ROOT
ATOM      1  C1  A00 X   1      33.483 113.289  69.1850  0.00  0.00     0.000 C
ATOM      2  C2  A00 X   1      34.014 114.623  69.7750  0.00  0.00     0.000 C
ATOM      3  C3  A00 X   1      35.467 115.029  69.3610  0.00  0.00     0.000 C
ATOM      4  C4  A00 X   1      36.321 113.900  68.7260  0.00  0.00     0.000 C
ATOM      5  C5  A00 X   1      35.814 112.509  69.1080  0.00  0.00     0.000 C
ATOM      6  O5  A00 X   1      34.479 112.442  68.5600  0.00  0.00     0.000 O
ATOM      7   O  A00 X   1      36.170 115.464  70.5220  0.00  0.00     0.000 O
ATOM      9  HD  A00 X   1      36.718 114.979  70.0590  0.00  0.00     0.000 HD
ATOM      9   O  A00 X   1      36.373 114.021  67.3050  0.00  0.00     0.000 O
ATOM     11  HD  A00 X   1      36.921 113.537  66.8420  0.00  0.00     0.000 HD
ENDROOT
BRANCH 2 11
ATOM     11   O  A00 X   1      33.105 115.669  69.3830  0.00  0.00     0.000 O
ATOM     12   O  A00 X   1      33.574 117.986  69.8070  0.00  0.00     0.000 OA
ATOM     13   O  A00 X   1      33.262 116.471  71.6850  0.00  0.00     0.000 OA
ATOM     14   O  A00 X   1      31.432 117.033  70.2730  0.00  0.00     0.000 OA
ATOM     15   S  A00 X   1      32.857 116.866  70.3640  0.00  0.00     0.000 S
ENDBRANCH 2 11
BRANCH 5 16
ATOM     16   C  A00 X   1      35.880 112.184  70.6040  0.00  0.00     0.000 C
ATOM     17   O  A00 X   1      35.293 111.203  71.0120  0.00  0.00     0.000 OA
ATOM     18   O  A00 X   1      36.503 112.867  71.3930  0.00  0.00     0.000 OA
ENDBRANCH 5 16
BRANCH 1 19
ATOM     19  O4  A00 X   2      32.669 112.545  70.1230  0.00  0.00     0.000 O
BRANCH 19 23
ATOM     20  C1  A00 X   2      29.845 111.298  67.1510  0.00  0.00     0.000 C
ATOM     21  C2  A00 X   2      29.473 112.523  68.0200  0.00  0.00     0.000 C
ATOM     22  C3  A00 X   2      30.722 113.104  68.7140  0.00  0.00     0.000 C
ATOM     23  C4  A00 X   2      31.463 112.006  69.5100  0.00  0.00     0.000 C
ATOM     24  C5  A00 X   2      31.761 110.833  68.5360  0.00  0.00     0.000 C
ATOM     25  O5  A00 X   2      30.504 110.331  68.0110  0.00  0.00     0.000 O
ATOM     26   O  A00 X   2      30.337 114.276  69.4520  0.00  0.00     0.000 O
ATOM     28  HD  A00 X   2      29.679 113.874  69.8460  0.00  0.00     0.000 HD
BRANCH 21 30
ATOM     28   N  A00 X   2      28.072 112.092  67.9640  0.00  0.00     0.000 N
ATOM     30  HD  A00 X   2      28.071 112.914  68.2350  0.00  0.00     0.000 HD
ATOM     30   O  A00 X   2      26.722 113.997  68.0280  0.00  0.00     0.000 OA
ATOM     31   S  A00 X   2      27.005 112.865  68.8370  0.00  0.00     0.000 S
ATOM     32   O  A00 X   2      25.930 111.930  68.9640  0.00  0.00     0.000 OA
ATOM     33   O  A00 X   2      27.603 113.112  70.1150  0.00  0.00     0.000 OA
ENDBRANCH 21 30
BRANCH 24 34
ATOM     34   C  A00 X   2      32.697 109.703  69.0260  0.00  0.00     0.000 C
ATOM     35   O  A00 X   2      32.038 107.628  71.9440  0.00  0.00     0.000 OA
ATOM     36   O  A00 X   2      32.373 109.303  70.3720  0.00  0.00     0.000 O
ATOM     37   O  A00 X   2      30.542 107.867  70.1280  0.00  0.00     0.000 OA
ATOM     38   S  A00 X   2      31.913 107.808  70.5350  0.00  0.00     0.000 S
ATOM     39   O  A00 X   2      32.807 107.020  69.7410  0.00  0.00     0.000 OA
ENDBRANCH 24 34
BRANCH 20 40
ATOM     40  O4  A00 X   3      30.776 111.784  66.1730  0.00  0.00     0.000 O
BRANCH 40 44
ATOM     41  C1  A00 X   3      33.886 111.257  64.3910  0.00  0.00     0.000 C
ATOM     42  C2  A00 X   3      32.979 112.496  64.2310  0.00  0.00     0.000 C
ATOM     43  C3  A00 X   3      31.510 112.078  63.9610  0.00  0.00     0.000 C
ATOM     44  C4  A00 X   3      30.953 111.053  64.9410  0.00  0.00     0.000 C
ATOM     45  C5  A00 X   3      31.916 109.837  65.0440  0.00  0.00     0.000 C
ATOM     46  O5  A00 X   3      33.291 110.278  65.2880  0.00  0.00     0.000 O
ATOM     47   O  A00 X   3      30.595 113.143  63.7100  0.00  0.00     0.000 O
ATOM     49  HD  A00 X   3      30.066 112.650  64.1860  0.00  0.00     0.000 HD
BRANCH 42 49
ATOM     49   O  A00 X   3      33.094 113.265  65.4480  0.00  0.00     0.000 O
ATOM     50   O  A00 X   3      32.130 115.272  66.3270  0.00  0.00     0.000 OA
ATOM     51   O  A00 X   3      32.773 115.216  64.0530  0.00  0.00     0.000 OA
ATOM     52   O  A00 X   3      34.463 115.155  65.7040  0.00  0.00     0.000 OA
ATOM     53   S  A00 X   3      33.116 114.820  65.3970  0.00  0.00     0.000 S
ENDBRANCH 42 49
BRANCH 45 54
ATOM     54   C  A00 X   3      31.788 108.907  63.8310  0.00  0.00     0.000 C
ATOM     55   O  A00 X   3      31.152 109.248  62.8550  0.00  0.00     0.000 OA
ATOM     56   O  A00 X   3      32.320 107.808  63.8270  0.00  0.00     0.000 OA
ENDBRANCH 45 54
BRANCH 41 57
ATOM     57  O4  A00 X   4      34.281 110.715  63.1110  0.00  0.00     0.000 O
BRANCH 57 61
ATOM     58  C1  A00 X   4      37.867 108.743  61.7350  0.00  0.00     0.000 C
ATOM     59  C2  A00 X   4      37.042 108.078  62.8660  0.00  0.00     0.000 C
ATOM     60  C3  A00 X   4      35.625 108.667  63.0210  0.00  0.00     0.000 C
ATOM     61  C4  A00 X   4      35.645 110.210  63.0480  0.00  0.00     0.000 C
ATOM     62  C5  A00 X   4      36.323 110.661  61.7300  0.00  0.00     0.000 C
ATOM     63  O5  A00 X   4      37.691 110.178  61.7080  0.00  0.00     0.000 O
BRANCH 59 66
ATOM     64   N  A00 X   4      37.710 108.301  64.1610  0.00  0.00     0.000 N
ATOM     66  HD  A00 X   4      38.203 109.008  64.2400  0.00  0.00     0.000 HD
ATOM     66   O  A00 X   4      39.132 106.429  63.6350  0.00  0.00     0.000 OA
ATOM     67   S  A00 X   4      38.597 107.116  64.7690  0.00  0.00     0.000 S
ATOM     68   O  A00 X   4      39.544 107.870  65.5370  0.00  0.00     0.000 OA
ATOM     69   O  A00 X   4      37.607 106.438  65.5570  0.00  0.00     0.000 OA
ENDBRANCH 59 66
BRANCH 62 70
ATOM     70   C  A00 X   4      36.339 112.193  61.5190  0.00  0.00     0.000 C
ATOM     71   O  A00 X   4      38.225 114.704  63.3210  0.00  0.00     0.000 OA
ATOM     72   O  A00 X   4      35.939 114.608  62.7640  0.00  0.00     0.000 OA
ATOM     73   O  A00 X   4      37.410 112.767  62.2850  0.00  0.00     0.000 O
ATOM     74   O  A00 X   4      36.797 113.217  64.5720  0.00  0.00     0.000 OA
ATOM     75   S  A00 X   4      37.050 113.878  63.3320  0.00  0.00     0.000 S
ENDBRANCH 62 70
ENDBRANCH 57 61
ENDBRANCH 41 57
ENDBRANCH 40 44
ENDBRANCH 20 40
ENDBRANCH 19 23
ENDBRANCH 1 19
TORSDOF 14
ENDMDL
MODEL 29
REMARK VINA RESULT:       0.0     94.388     99.991
ROOT
ATOM      1  C1  A00 X   1     144.586 128.072  42.1210  0.00  0.00     0.000 C
ATOM      2  C2  A00 X   1     143.077 128.053  42.4850  0.00  0.00     0.000 C
ATOM      3  C3  A00 X   1     142.367 129.446  42.5390  0.00  0.00     0.000 C
ATOM      4  C4  A00 X   1     143.309 130.676  42.5880  0.00  0.00     0.000 C
ATOM      5  C5  A00 X   1     144.698 130.318  43.1150  0.00  0.00     0.000 C
ATOM      6  O5  A00 X   1     145.223 129.373  42.1560  0.00  0.00     0.000 O
ATOM      7   O  A00 X   1     141.563 129.504  43.7150  0.00  0.00     0.000 O
ATOM      9  HD  A00 X   1     141.951 130.274  43.6320  0.00  0.00     0.000 HD
ATOM      9   O  A00 X   1     143.424 131.297  41.3080  0.00  0.00     0.000 O
ATOM     11  HD  A00 X   1     143.811 132.067  41.2250  0.00  0.00     0.000 HD
ENDROOT
BRANCH 2 11
ATOM     11   O  A00 X   1     142.404 127.219  41.5230  0.00  0.00     0.000 O
ATOM     12   O  A00 X   1     140.011 127.035  41.4560  0.00  0.00     0.000 OA
ATOM     13   O  A00 X   1     141.211 126.244  43.4180  0.00  0.00     0.000 OA
ATOM     14   O  A00 X   1     141.422 125.109  41.3380  0.00  0.00     0.000 OA
ATOM     15   S  A00 X   1     141.172 126.368  41.9870  0.00  0.00     0.000 S
ENDBRANCH 2 11
BRANCH 5 16
ATOM     16   C  A00 X   1     144.732 129.808  44.5590  0.00  0.00     0.000 C
ATOM     17   O  A00 X   1     145.761 129.323  44.9810  0.00  0.00     0.000 OA
ATOM     18   O  A00 X   1     143.769 129.879  45.2980  0.00  0.00     0.000 OA
ENDBRANCH 5 16
BRANCH 1 19
ATOM     19  O4  A00 X   2     145.353 127.089  42.8590  0.00  0.00     0.000 O
BRANCH 19 23
ATOM     20  C1  A00 X   2     147.832 126.068  39.5150  0.00  0.00     0.000 C
ATOM     21  C2  A00 X   2     146.630 125.142  39.8220  0.00  0.00     0.000 C
ATOM     22  C3  A00 X   2     145.612 125.850  40.7410  0.00  0.00     0.000 C
ATOM     23  C4  A00 X   2     146.305 126.377  42.0170  0.00  0.00     0.000 C
ATOM     24  C5  A00 X   2     147.496 127.271  41.5750  0.00  0.00     0.000 C
ATOM     25  O5  A00 X   2     148.413 126.472  40.7830  0.00  0.00     0.000 O
ATOM     26   O  A00 X   2     144.486 124.978  40.9400  0.00  0.00     0.000 O
ATOM     28  HD  A00 X   2     144.984 124.304  41.1590  0.00  0.00     0.000 HD
BRANCH 21 30
ATOM     28   N  A00 X   2     147.439 124.005  39.3740  0.00  0.00     0.000 N
ATOM     30  HD  A00 X   2     146.617 123.735  39.3940  0.00  0.00     0.000 HD
ATOM     30   O  A00 X   2     146.007 122.422  38.4250  0.00  0.00     0.000 OA
ATOM     31   S  A00 X   2     146.861 122.545  39.5520  0.00  0.00     0.000 S
ATOM     32   O  A00 X   2     148.025 121.714  39.5220  0.00  0.00     0.000 OA
ATOM     33   O  A00 X   2     146.243 122.489  40.8440  0.00  0.00     0.000 OA
ENDBRANCH 21 30
BRANCH 24 34
ATOM     34   C  A00 X   2     148.217 128.107  42.6590  0.00  0.00     0.000 C
ATOM     35   O  A00 X   2     149.795 126.688  45.6170  0.00  0.00     0.000 OA
ATOM     36   O  A00 X   2     148.425 127.338  43.8600  0.00  0.00     0.000 O
ATOM     37   O  A00 X   2     150.319 126.044  43.4030  0.00  0.00     0.000 OA
ATOM     38   S  A00 X   2     149.929 127.118  44.2640  0.00  0.00     0.000 S
ATOM     39   O  A00 X   2     150.583 128.380  44.0910  0.00  0.00     0.000 OA
ENDBRANCH 24 34
BRANCH 20 40
ATOM     40  O4  A00 X   3     147.278 127.215  38.8540  0.00  0.00     0.000 O
BRANCH 40 44
ATOM     41  C1  A00 X   3     147.214 130.825  38.5540  0.00  0.00     0.000 C
ATOM     42  C2  A00 X   3     146.323 129.859  37.7440  0.00  0.00     0.000 C
ATOM     43  C3  A00 X   3     147.174 128.748  37.0760  0.00  0.00     0.000 C
ATOM     44  C4  A00 X   3     148.130 128.029  38.0200  0.00  0.00     0.000 C
ATOM     45  C5  A00 X   3     148.993 129.065  38.7930  0.00  0.00     0.000 C
ATOM     46  O5  A00 X   3     148.151 130.100  39.3980  0.00  0.00     0.000 O
ATOM     47   O  A00 X   3     146.465 127.845  36.2290  0.00  0.00     0.000 O
ATOM     49  HD  A00 X   3     146.997 127.266  36.5900  0.00  0.00     0.000 HD
BRANCH 42 49
ATOM     49   O  A00 X   3     145.357 129.304  38.6630  0.00  0.00     0.000 O
ATOM     50   O  A00 X   3     143.586 127.696  38.5520  0.00  0.00     0.000 OA
ATOM     51   O  A00 X   3     143.845 129.232  36.7740  0.00  0.00     0.000 OA
ATOM     52   O  A00 X   3     143.141 130.051  38.8760  0.00  0.00     0.000 OA
ATOM     53   S  A00 X   3     143.892 129.048  38.2030  0.00  0.00     0.000 S
ENDBRANCH 42 49
BRANCH 45 54
ATOM     54   C  A00 X   3     150.115 129.636  37.9170  0.00  0.00     0.000 C
ATOM     55   O  A00 X   3     150.963 130.363  38.3940  0.00  0.00     0.000 OA
ATOM     56   O  A00 X   3     150.175 129.371  36.7270  0.00  0.00     0.000 OA
ENDBRANCH 45 54
BRANCH 41 57
ATOM     57  O4  A00 X   4     147.834 131.818  37.7060  0.00  0.00     0.000 O
BRANCH 57 61
ATOM     58  C1  A00 X   4     148.916 135.951  38.3290  0.00  0.00     0.000 C
ATOM     59  C2  A00 X   4     149.578 134.869  39.2190  0.00  0.00     0.000 C
ATOM     60  C3  A00 X   4     149.398 133.435  38.6800  0.00  0.00     0.000 C
ATOM     61  C4  A00 X   4     147.933 133.150  38.2850  0.00  0.00     0.000 C
ATOM     62  C5  A00 X   4     147.549 134.221  37.2340  0.00  0.00     0.000 C
ATOM     63  O5  A00 X   4     147.619 135.535  37.8440  0.00  0.00     0.000 O
BRANCH 59 66
ATOM     64   N  A00 X   4     148.952 134.874  40.5530  0.00  0.00     0.000 N
ATOM     66  HD  A00 X   4     148.130 135.143  40.6090  0.00  0.00     0.000 HD
ATOM     66   O  A00 X   4     150.403 136.711  41.1170  0.00  0.00     0.000 OA
ATOM     67   S  A00 X   4     149.709 135.629  41.7430  0.00  0.00     0.000 S
ATOM     68   O  A00 X   4     148.595 136.002  42.5640  0.00  0.00     0.000 OA
ATOM     69   O  A00 X   4     150.492 134.548  42.2700  0.00  0.00     0.000 OA
ENDBRANCH 59 66
BRANCH 62 70
ATOM     70   C  A00 X   4     146.137 134.034  36.6290  0.00  0.00     0.000 C
ATOM     71   O  A00 X   4     142.917 134.482  38.2220  0.00  0.00     0.000 OA
ATOM     72   O  A00 X   4     143.754 132.702  36.9280  0.00  0.00     0.000 OA
ATOM     73   O  A00 X   4     145.157 134.557  37.5410  0.00  0.00     0.000 O
ATOM     74   O  A00 X   4     144.502 132.970  39.2310  0.00  0.00     0.000 OA
ATOM     75   S  A00 X   4     144.027 133.590  38.0360  0.00  0.00     0.000 S
ENDBRANCH 62 70
ENDBRANCH 57 61
ENDBRANCH 41 57
ENDBRANCH 40 44
ENDBRANCH 20 40
ENDBRANCH 19 23
ENDBRANCH 1 19
TORSDOF 14
ENDMDL
MODEL 30
REMARK VINA RESULT:       0.0     89.092     92.791
ROOT
ATOM      1  C1  A00 X   1      90.383 100.080 121.6170  0.00  0.00     0.000 C
ATOM      2  C2  A00 X   1      88.878 100.120 121.2400  0.00  0.00     0.000 C
ATOM      3  C3  A00 X   1      87.908 100.662 122.3410  0.00  0.00     0.000 C
ATOM      4  C4  A00 X   1      88.499 100.743 123.7720  0.00  0.00     0.000 C
ATOM      5  C5  A00 X   1      89.688  99.801 123.9590  0.00  0.00     0.000 C
ATOM      6  O5  A00 X   1      90.682 100.273 123.0220  0.00  0.00     0.000 O
ATOM      7   O  A00 X   1      86.776  99.798 122.4190  0.00  0.00     0.000 O
ATOM      9  HD  A00 X   1      86.996 100.004 123.2310  0.00  0.00     0.000 HD
ATOM      9   O  A00 X   1      88.884 102.077 124.1020  0.00  0.00     0.000 O
ATOM     11  HD  A00 X   1      89.104 102.284 124.9140  0.00  0.00     0.000 HD
ENDROOT
BRANCH 2 11
ATOM     11   O  A00 X   1      88.743 100.930 120.0560  0.00  0.00     0.000 O
ATOM     12   O  A00 X   1      86.595 101.543 119.1740  0.00  0.00     0.000 OA
ATOM     13   O  A00 X   1      87.239  99.197 119.2180  0.00  0.00     0.000 OA
ATOM     14   O  A00 X   1      88.343 100.723 117.7650  0.00  0.00     0.000 OA
ATOM     15   S  A00 X   1      87.638 100.562 119.0070  0.00  0.00     0.000 S
ENDBRANCH 2 11
BRANCH 5 16
ATOM     16   C  A00 X   1      89.364  98.311 123.8110  0.00  0.00     0.000 C
ATOM     17   O  A00 X   1      90.283  97.521 123.7360  0.00  0.00     0.000 OA
ATOM     18   O  A00 X   1      88.224  97.893 123.7730  0.00  0.00     0.000 OA
ENDBRANCH 5 16
BRANCH 1 19
ATOM     19  O4  A00 X   2      91.064  98.916 121.0870  0.00  0.00     0.000 O
BRANCH 19 23
ATOM     20  C1  A00 X   2      94.630 101.075 120.0930  0.00  0.00     0.000 C
ATOM     21  C2  A00 X   2      93.608 100.823 118.9590  0.00  0.00     0.000 C
ATOM     22  C3  A00 X   2      92.229 100.441 119.5360  0.00  0.00     0.000 C
ATOM     23  C4  A00 X   2      92.358  99.243 120.5040  0.00  0.00     0.000 C
ATOM     24  C5  A00 X   2      93.419  99.612 121.5770  0.00  0.00     0.000 C
ATOM     25  O5  A00 X   2      94.682  99.877 120.9130  0.00  0.00     0.000 O
ATOM     26   O  A00 X   2      91.301 100.285 118.4490  0.00  0.00     0.000 O
ATOM     28  HD  A00 X   2      91.829  99.761 118.0070  0.00  0.00     0.000 HD
BRANCH 21 30
ATOM     28   N  A00 X   2      94.725 100.680 118.0200  0.00  0.00     0.000 N
ATOM     30  HD  A00 X   2      94.013 100.805 117.5440  0.00  0.00     0.000 HD
ATOM     30   O  A00 X   2      94.030 101.471 115.9350  0.00  0.00     0.000 OA
ATOM     31   S  A00 X   2      94.416 100.243 116.5330  0.00  0.00     0.000 S
ATOM     32   O  A00 X   2      95.660  99.710 116.0710  0.00  0.00     0.000 OA
ATOM     33   O  A00 X   2      93.424  99.210 116.5930  0.00  0.00     0.000 OA
ENDBRANCH 21 30
BRANCH 24 34
ATOM     34   C  A00 X   2      93.571  98.676 122.7990  0.00  0.00     0.000 C
ATOM     35   O  A00 X   2      94.390  95.136 122.5680  0.00  0.00     0.000 OA
ATOM     36   O  A00 X   2      93.543  97.291 122.4030  0.00  0.00     0.000 O
ATOM     37   O  A00 X   2      95.708  96.861 121.6300  0.00  0.00     0.000 OA
ATOM     38   S  A00 X   2      94.853  96.477 122.7110  0.00  0.00     0.000 S
ATOM     39   O  A00 X   2      95.254  96.843 124.0360  0.00  0.00     0.000 OA
ENDBRANCH 24 34
BRANCH 20 40
ATOM     40  O4  A00 X   3      94.094 102.160 120.8640  0.00  0.00     0.000 O
BRANCH 40 44
ATOM     41  C1  A00 X   3      93.390 103.515 124.1490  0.00  0.00     0.000 C
ATOM     42  C2  A00 X   3      93.025 104.204 122.8160  0.00  0.00     0.000 C
ATOM     43  C3  A00 X   3      94.254 104.276 121.8740  0.00  0.00     0.000 C
ATOM     44  C4  A00 X   3      94.983 102.952 121.6820  0.00  0.00     0.000 C
ATOM     45  C5  A00 X   3      95.320 102.325 123.0640  0.00  0.00     0.000 C
ATOM     46  O5  A00 X   3      94.135 102.287 123.9240  0.00  0.00     0.000 O
ATOM     47   O  A00 X   3      94.056 104.971 120.6440  0.00  0.00     0.000 O
ATOM     49  HD  A00 X   3      94.551 104.332 120.3330  0.00  0.00     0.000 HD
BRANCH 42 49
ATOM     49   O  A00 X   3      91.951 103.440 122.2260  0.00  0.00     0.000 O
ATOM     50   O  A00 X   3      90.688 103.511 120.1930  0.00  0.00     0.000 OA
ATOM     51   O  A00 X   3      91.185 105.541 121.2990  0.00  0.00     0.000 OA
ATOM     52   O  A00 X   3      89.681 104.036 122.3280  0.00  0.00     0.000 OA
ATOM     53   S  A00 X   3      90.802 104.161 121.4610  0.00  0.00     0.000 S
ENDBRANCH 42 49
BRANCH 45 54
ATOM     54   C  A00 X   3      96.521 103.014 123.7220  0.00  0.00     0.000 C
ATOM     55   O  A00 X   3      96.981 102.593 124.7640  0.00  0.00     0.000 OA
ATOM     56   O  A00 X   3      97.034 103.998 123.2120  0.00  0.00     0.000 OA
ENDBRANCH 45 54
BRANCH 41 57
ATOM     57  O4  A00 X   4      94.032 104.431 125.0650  0.00  0.00     0.000 O
BRANCH 57 61
ATOM     58  C1  A00 X   4      93.990 104.794 129.3670  0.00  0.00     0.000 C
ATOM     59  C2  A00 X   4      94.536 103.487 128.7380  0.00  0.00     0.000 C
ATOM     60  C3  A00 X   4      94.836 103.609 127.2310  0.00  0.00     0.000 C
ATOM     61  C4  A00 X   4      93.666 104.263 126.4640  0.00  0.00     0.000 C
ATOM     62  C5  A00 X   4      93.430 105.644 127.1260  0.00  0.00     0.000 C
ATOM     63  O5  A00 X   4      93.030 105.449 128.5070  0.00  0.00     0.000 O
BRANCH 59 66
ATOM     64   N  A00 X   4      93.537 102.410 128.8540  0.00  0.00     0.000 N
ATOM     66  HD  A00 X   4      92.702 102.640 128.8820  0.00  0.00     0.000 HD
ATOM     66   O  A00 X   4      94.314 102.068 131.1080  0.00  0.00     0.000 OA
ATOM     67   S  A00 X   4      93.705 101.345 130.0350  0.00  0.00     0.000 S
ATOM     68   O  A00 X   4      92.337 100.970 130.2430  0.00  0.00     0.000 OA
ATOM     69   O  A00 X   4      94.493 100.348 129.3670  0.00  0.00     0.000 OA
ENDBRANCH 59 66
BRANCH 62 70
ATOM     70   C  A00 X   4      92.356 106.507 126.4210  0.00  0.00     0.000 C
ATOM     71   O  A00 X   4      88.778 105.981 126.2620  0.00  0.00     0.000 OA
ATOM     72   O  A00 X   4      90.336 106.452 124.5610  0.00  0.00     0.000 OA
ATOM     73   O  A00 X   4      91.050 106.064 126.8250  0.00  0.00     0.000 O
ATOM     74   O  A00 X   4      90.236 104.212 125.5160  0.00  0.00     0.000 OA
ATOM     75   S  A00 X   4      90.049 105.614 125.7040  0.00  0.00     0.000 S
ENDBRANCH 62 70
ENDBRANCH 57 61
ENDBRANCH 41 57
ENDBRANCH 40 44
ENDBRANCH 20 40
ENDBRANCH 19 23
ENDBRANCH 1 19
TORSDOF 14
ENDMDL
MODEL 31
REMARK VINA RESULT:       0.0     90.144     94.743
ROOT
ATOM      1  C1  A00 X   1     132.440  86.711  15.6870  0.00  0.00     0.000 C
ATOM      2  C2  A00 X   1     131.873  85.282  15.4730  0.00  0.00     0.000 C
ATOM      3  C3  A00 X   1     132.343  84.543  14.1760  0.00  0.00     0.000 C
ATOM      4  C4  A00 X   1     133.005  85.440  13.0980  0.00  0.00     0.000 C
ATOM      5  C5  A00 X   1     132.600  86.907  13.2400  0.00  0.00     0.000 C
ATOM      6  O5  A00 X   1     133.098  87.301  14.5390  0.00  0.00     0.000 O
ATOM      7   O  A00 X   1     131.210  83.938  13.5590  0.00  0.00     0.000 O
ATOM      9  HD  A00 X   1     131.692  84.281  12.9260  0.00  0.00     0.000 HD
ATOM      9   O  A00 X   1     134.428  85.327  13.1270  0.00  0.00     0.000 O
ATOM     11  HD  A00 X   1     134.909  85.671  12.4950  0.00  0.00     0.000 HD
ENDROOT
BRANCH 2 11
ATOM     11   O  A00 X   1     132.235  84.490  16.6210  0.00  0.00     0.000 O
ATOM     12   O  A00 X   1     131.839  82.123  16.7080  0.00  0.00     0.000 OA
ATOM     13   O  A00 X   1     129.945  83.644  16.5780  0.00  0.00     0.000 OA
ATOM     14   O  A00 X   1     131.288  83.557  18.5400  0.00  0.00     0.000 OA
ATOM     15   S  A00 X   1     131.251  83.375  17.1140  0.00  0.00     0.000 S
ENDBRANCH 2 11
BRANCH 5 16
ATOM     16   C  A00 X   1     131.107  87.189  13.0450  0.00  0.00     0.000 C
ATOM     17   O  A00 X   1     130.678  88.284  13.3460  0.00  0.00     0.000 OA
ATOM     18   O  A00 X   1     130.341  86.360  12.5960  0.00  0.00     0.000 OA
ENDBRANCH 5 16
BRANCH 1 19
ATOM     19  O4  A00 X   2     131.470  87.618  16.2640  0.00  0.00     0.000 O
BRANCH 19 23
ATOM     20  C1  A00 X   2     134.333  89.557  18.7950  0.00  0.00     0.000 C
ATOM     21  C2  A00 X   2     133.462  88.444  19.4240  0.00  0.00     0.000 C
ATOM     22  C3  A00 X   2     132.816  87.567  18.3310  0.00  0.00     0.000 C
ATOM     23  C4  A00 X   2     132.036  88.442  17.3230  0.00  0.00     0.000 C
ATOM     24  C5  A00 X   2     133.010  89.524  16.7810  0.00  0.00     0.000 C
ATOM     25  O5  A00 X   2     133.488  90.323  17.8950  0.00  0.00     0.000 O
ATOM     26   O  A00 X   2     132.075  86.510  18.9640  0.00  0.00     0.000 O
ATOM     28  HD  A00 X   2     131.656  87.053  19.4930  0.00  0.00     0.000 HD
BRANCH 21 30
ATOM     28   N  A00 X   2     133.466  89.200  20.6800  0.00  0.00     0.000 N
ATOM     30  HD  A00 X   2     133.203  88.398  20.8720  0.00  0.00     0.000 HD
ATOM     30   O  A00 X   2     133.372  87.675  22.4480  0.00  0.00     0.000 OA
ATOM     31   S  A00 X   2     132.564  88.692  21.8750  0.00  0.00     0.000 S
ATOM     32   O  A00 X   2     132.392  89.857  22.6880  0.00  0.00     0.000 OA
ATOM     33   O  A00 X   2     131.310  88.287  21.3150  0.00  0.00     0.000 OA
ENDBRANCH 21 30
BRANCH 24 34
ATOM     34   C  A00 X   2     132.543  90.387  15.5850  0.00  0.00     0.000 C
ATOM     35   O  A00 X   2     132.081  93.996  15.7300  0.00  0.00     0.000 OA
ATOM     36   O  A00 X   2     132.113  91.693  16.0190  0.00  0.00     0.000 O
ATOM     37   O  A00 X   2     134.099  92.899  16.2920  0.00  0.00     0.000 OA
ATOM     38   S  A00 X   2     132.945  92.898  15.4450  0.00  0.00     0.000 S
ATOM     39   O  A00 X   2     133.143  92.627  14.0530  0.00  0.00     0.000 OA
ENDBRANCH 24 34
BRANCH 20 40
ATOM     40  O4  A00 X   3     135.346  88.877  18.0390  0.00  0.00     0.000 O
BRANCH 40 44
ATOM     41  C1  A00 X   3     137.271  88.651  14.9780  0.00  0.00     0.000 C
ATOM     42  C2  A00 X   3     137.390  87.673  16.1670  0.00  0.00     0.000 C
ATOM     43  C3  A00 X   3     137.590  88.440  17.4990  0.00  0.00     0.000 C
ATOM     44  C4  A00 X   3     136.584  89.558  17.7440  0.00  0.00     0.000 C
ATOM     45  C5  A00 X   3     136.525  90.500  16.5090  0.00  0.00     0.000 C
ATOM     46  O5  A00 X   3     136.346  89.733  15.2740  0.00  0.00     0.000 O
ATOM     47   O  A00 X   3     137.800  87.634  18.6570  0.00  0.00     0.000 O
ATOM     49  HD  A00 X   3     137.299  88.236  19.0280  0.00  0.00     0.000 HD
BRANCH 42 49
ATOM     49   O  A00 X   3     136.180  86.884  16.1890  0.00  0.00     0.000 O
ATOM     50   O  A00 X   3     135.258  85.164  17.5760  0.00  0.00     0.000 OA
ATOM     51   O  A00 X   3     137.560  85.088  17.0420  0.00  0.00     0.000 OA
ATOM     52   O  A00 X   3     135.990  84.712  15.3160  0.00  0.00     0.000 OA
ATOM     53   S  A00 X   3     136.234  85.371  16.5530  0.00  0.00     0.000 S
ENDBRANCH 42 49
BRANCH 45 54
ATOM     54   C  A00 X   3     137.729  91.449  16.4600  0.00  0.00     0.000 C
ATOM     55   O  A00 X   3     138.679  91.280  17.1970  0.00  0.00     0.000 OA
ATOM     56   O  A00 X   3     137.753  92.389  15.6820  0.00  0.00     0.000 OA
ENDBRANCH 45 54
BRANCH 41 57
ATOM     57  O4  A00 X   4     138.567  89.095  14.5200  0.00  0.00     0.000 O
BRANCH 57 61
ATOM     58  C1  A00 X   4     140.102  90.168  10.6300  0.00  0.00     0.000 C
ATOM     59  C2  A00 X   4     138.943  91.005  11.2270  0.00  0.00     0.000 C
ATOM     60  C3  A00 X   4     138.726  90.768  12.7350  0.00  0.00     0.000 C
ATOM     61  C4  A00 X   4     138.690  89.263  13.0790  0.00  0.00     0.000 C
ATOM     62  C5  A00 X   4     140.031  88.669  12.5820  0.00  0.00     0.000 C
ATOM     63  O5  A00 X   4     140.112  88.815  11.1410  0.00  0.00     0.000 O
BRANCH 59 66
ATOM     64   N  A00 X   4     137.663  90.648  10.5900  0.00  0.00     0.000 N
ATOM     66  HD  A00 X   4     137.581  89.843  10.2800  0.00  0.00     0.000 HD
ATOM     66   O  A00 X   4     138.272  92.111   8.7770  0.00  0.00     0.000 OA
ATOM     67   S  A00 X   4     137.108  91.592   9.4240  0.00  0.00     0.000 S
ATOM     68   O  A00 X   4     136.349  90.643   8.6620  0.00  0.00     0.000 OA
ATOM     69   O  A00 X   4     136.308  92.501  10.1940  0.00  0.00     0.000 OA
ENDBRANCH 59 66
BRANCH 62 70
ATOM     70   C  A00 X   4     140.232  87.177  12.9380  0.00  0.00     0.000 C
ATOM     71   O  A00 X   4     138.487  84.286  11.6310  0.00  0.00     0.000 OA
ATOM     72   O  A00 X   4     138.956  84.922  13.8490  0.00  0.00     0.000 OA
ATOM     73   O  A00 X   4     139.503  86.364  12.0040  0.00  0.00     0.000 O
ATOM     74   O  A00 X   4     137.192  86.066  12.6160  0.00  0.00     0.000 OA
ATOM     75   S  A00 X   4     138.436  85.367  12.5750  0.00  0.00     0.000 S
ENDBRANCH 62 70
ENDBRANCH 57 61
ENDBRANCH 41 57
ENDBRANCH 40 44
ENDBRANCH 20 40
ENDBRANCH 19 23
ENDBRANCH 1 19
TORSDOF 14
ENDMDL
MODEL 32
REMARK VINA RESULT:       0.0    106.124    110.883
ROOT
ATOM      1  C1  A00 X   1     148.324  77.156  74.5010  0.00  0.00     0.000 C
ATOM      2  C2  A00 X   1     149.155  78.463  74.6080  0.00  0.00     0.000 C
ATOM      3  C3  A00 X   1     150.501  78.488  73.8110  0.00  0.00     0.000 C
ATOM      4  C4  A00 X   1     151.016  77.109  73.3240  0.00  0.00     0.000 C
ATOM      5  C5  A00 X   1     150.440  75.955  74.1450  0.00  0.00     0.000 C
ATOM      6  O5  A00 X   1     149.014  76.021  73.9220  0.00  0.00     0.000 O
ATOM      7   O  A00 X   1     151.519  79.027  74.6510  0.00  0.00     0.000 O
ATOM      9  HD  A00 X   1     151.868  78.359  74.2240  0.00  0.00     0.000 HD
ATOM      9   O  A00 X   1     150.731  76.905  71.9400  0.00  0.00     0.000 O
ATOM     11  HD  A00 X   1     151.079  76.237  71.5130  0.00  0.00     0.000 HD
ENDROOT
BRANCH 2 11
ATOM     11   O  A00 X   1     148.323  79.549  74.1580  0.00  0.00     0.000 O
ATOM     12   O  A00 X   1     149.179  81.777  73.8870  0.00  0.00     0.000 OA
ATOM     13   O  A00 X   1     149.129  80.782  76.1060  0.00  0.00     0.000 OA
ATOM     14   O  A00 X   1     147.104  81.356  74.9970  0.00  0.00     0.000 OA
ATOM     15   S  A00 X   1     148.476  80.953  74.8380  0.00  0.00     0.000 S
ENDBRANCH 2 11
BRANCH 5 16
ATOM     16   C  A00 X   1     150.829  75.958  75.6270  0.00  0.00     0.000 C
ATOM     17   O  A00 X   1     150.246  75.207  76.3820  0.00  0.00     0.000 OA
ATOM     18   O  A00 X   1     151.702  76.677  76.0710  0.00  0.00     0.000 OA
ENDBRANCH 5 16
BRANCH 1 19
ATOM     19  O4  A00 X   2     147.675  76.801  75.7460  0.00  0.00     0.000 O
BRANCH 19 23
ATOM     20  C1  A00 X   2     144.082  75.442  73.8460  0.00  0.00     0.000 C
ATOM     21  C2  A00 X   2     144.092  76.885  74.4060  0.00  0.00     0.000 C
ATOM     22  C3  A00 X   2     145.537  77.368  74.6540  0.00  0.00     0.000 C
ATOM     23  C4  A00 X   2     146.297  76.369  75.5550  0.00  0.00     0.000 C
ATOM     24  C5  A00 X   2     146.197  74.965  74.8970  0.00  0.00     0.000 C
ATOM     25  O5  A00 X   2     144.797  74.599  74.7880  0.00  0.00     0.000 O
ATOM     26   O  A00 X   2     145.496  78.732  75.1070  0.00  0.00     0.000 O
ATOM     28  HD  A00 X   2     144.905  78.564  75.7170  0.00  0.00     0.000 HD
BRANCH 21 30
ATOM     28   N  A00 X   2     142.675  76.723  74.7450  0.00  0.00     0.000 N
ATOM     30  HD  A00 X   2     142.846  77.572  74.7790  0.00  0.00     0.000 HD
ATOM     30   O  A00 X   2     141.640  78.809  74.5590  0.00  0.00     0.000 OA
ATOM     31   S  A00 X   2     141.958  77.865  75.5700  0.00  0.00     0.000 S
ATOM     32   O  A00 X   2     140.832  77.204  76.1540  0.00  0.00     0.000 OA
ATOM     33   O  A00 X   2     142.871  78.288  76.5900  0.00  0.00     0.000 OA
ENDBRANCH 21 30
BRANCH 24 34
ATOM     34   C  A00 X   2     147.069  73.827  75.4790  0.00  0.00     0.000 C
ATOM     35   O  A00 X   2     145.727  70.784  76.9610  0.00  0.00     0.000 OA
ATOM     36   O  A00 X   2     146.286  72.938  76.3010  0.00  0.00     0.000 O
ATOM     37   O  A00 X   2     145.217  71.525  74.7740  0.00  0.00     0.000 OA
ATOM     38   S  A00 X   2     146.214  71.450  75.7980  0.00  0.00     0.000 S
ATOM     39   O  A00 X   2     147.543  71.090  75.4040  0.00  0.00     0.000 OA
ENDBRANCH 24 34
BRANCH 20 40
ATOM     40  O4  A00 X   3     144.807  75.501  72.6090  0.00  0.00     0.000 O
BRANCH 40 44
ATOM     41  C1  A00 X   3     147.297  74.002  70.4460  0.00  0.00     0.000 C
ATOM     42  C2  A00 X   3     146.544  75.316  70.1430  0.00  0.00     0.000 C
ATOM     43  C3  A00 X   3     145.013  75.127  70.2980  0.00  0.00     0.000 C
ATOM     44  C4  A00 X   3     144.584  74.482  71.6100  0.00  0.00     0.000 C
ATOM     45  C5  A00 X   3     145.380  73.167  71.8410  0.00  0.00     0.000 C
ATOM     46  O5  A00 X   3     146.818  73.389  71.6750  0.00  0.00     0.000 O
ATOM     47   O  A00 X   3     144.209  76.255  69.9590  0.00  0.00     0.000 O
ATOM     49  HD  A00 X   3     143.752  75.995  70.6470  0.00  0.00     0.000 HD
BRANCH 42 49
ATOM     49   O  A00 X   3     147.049  76.313  71.0580  0.00  0.00     0.000 O
ATOM     50   O  A00 X   3     146.578  78.608  71.5520  0.00  0.00     0.000 OA
ATOM     51   O  A00 X   3     146.625  77.913  69.2920  0.00  0.00     0.000 OA
ATOM     52   O  A00 X   3     148.653  77.937  70.5060  0.00  0.00     0.000 OA
ATOM     53   S  A00 X   3     147.241  77.785  70.5890  0.00  0.00     0.000 S
ENDBRANCH 42 49
BRANCH 45 54
ATOM     54   C  A00 X   3     144.843  72.019  70.9770  0.00  0.00     0.000 C
ATOM     55   O  A00 X   3     144.024  72.232  70.1060  0.00  0.00     0.000 OA
ATOM     56   O  A00 X   3     145.227  70.873  71.1510  0.00  0.00     0.000 OA
ENDBRANCH 45 54
BRANCH 41 57
ATOM     57  O4  A00 X   4     147.297  73.112  69.3070  0.00  0.00     0.000 O
BRANCH 57 61
ATOM     58  C1  A00 X   4     150.156  70.237  67.8250  0.00  0.00     0.000 C
ATOM     59  C2  A00 X   4     149.551  70.021  69.2350  0.00  0.00     0.000 C
ATOM     60  C3  A00 X   4     148.302  70.885  69.5060  0.00  0.00     0.000 C
ATOM     61  C4  A00 X   4     148.528  72.360  69.1100  0.00  0.00     0.000 C
ATOM     62  C5  A00 X   4     148.919  72.354  67.6120  0.00  0.00     0.000 C
ATOM     63  O5  A00 X   4     150.166  71.632  67.4470  0.00  0.00     0.000 O
BRANCH 59 66
ATOM     64   N  A00 X   4     150.551  70.420  70.2410  0.00  0.00     0.000 N
ATOM     66  HD  A00 X   4     151.136  71.015  70.0100  0.00  0.00     0.000 HD
ATOM     66   O  A00 X   4     151.532  68.236  69.9850  0.00  0.00     0.000 OA
ATOM     67   S  A00 X   4     151.400  69.272  70.9620  0.00  0.00     0.000 S
ATOM     68   O  A00 X   4     152.602  69.991  71.2650  0.00  0.00     0.000 OA
ATOM     69   O  A00 X   4     150.564  69.016  72.1000  0.00  0.00     0.000 OA
ENDBRANCH 59 66
BRANCH 62 70
ATOM     70   C  A00 X   4     149.082  73.764  66.9960  0.00  0.00     0.000 C
ATOM     71   O  A00 X   4     151.653  76.230  67.6410  0.00  0.00     0.000 OA
ATOM     72   O  A00 X   4     149.307  76.435  67.5960  0.00  0.00     0.000 OA
ATOM     73   O  A00 X   4     150.371  74.291  67.3500  0.00  0.00     0.000 O
ATOM     74   O  A00 X   4     150.387  75.371  69.5040  0.00  0.00     0.000 OA
ATOM     75   S  A00 X   4     150.419  75.664  68.1080  0.00  0.00     0.000 S
ENDBRANCH 62 70
ENDBRANCH 57 61
ENDBRANCH 41 57
ENDBRANCH 40 44
ENDBRANCH 20 40
ENDBRANCH 19 23
ENDBRANCH 1 19
TORSDOF 14
ENDMDL
MODEL 33
REMARK VINA RESULT:       0.0     89.860     94.318
ROOT
ATOM      1  C1  A00 X   1     142.494 116.599  52.8250  0.00  0.00     0.000 C
ATOM      2  C2  A00 X   1     143.950 116.112  52.6030  0.00  0.00     0.000 C
ATOM      3  C3  A00 X   1     144.978 117.200  52.1510  0.00  0.00     0.000 C
ATOM      4  C4  A00 X   1     144.363 118.525  51.6300  0.00  0.00     0.000 C
ATOM      5  C5  A00 X   1     142.925 118.342  51.1440  0.00  0.00     0.000 C
ATOM      6  O5  A00 X   1     142.193 117.923  52.3180  0.00  0.00     0.000 O
ATOM      7   O  A00 X   1     145.765 116.672  51.0850  0.00  0.00     0.000 O
ATOM      9  HD  A00 X   1     145.576 117.493  50.8810  0.00  0.00     0.000 HD
ATOM      9   O  A00 X   1     144.411 119.549  52.6230  0.00  0.00     0.000 O
ATOM     11  HD  A00 X   1     144.223 120.369  52.4190  0.00  0.00     0.000 HD
ENDROOT
BRANCH 2 11
ATOM     11   O  A00 X   1     144.406 115.518  53.8340  0.00  0.00     0.000 O
ATOM     12   O  A00 X   1     146.689 114.839  54.1480  0.00  0.00     0.000 OA
ATOM     13   O  A00 X   1     145.338 113.728  52.4570  0.00  0.00     0.000 OA
ATOM     14   O  A00 X   1     144.862 113.428  54.7690  0.00  0.00     0.000 OA
ATOM     15   S  A00 X   1     145.403 114.310  53.7700  0.00  0.00     0.000 S
ENDBRANCH 2 11
BRANCH 5 16
ATOM     16   C  A00 X   1     142.760 117.398  49.9490  0.00  0.00     0.000 C
ATOM     17   O  A00 X   1     141.642 117.036  49.6450  0.00  0.00     0.000 OA
ATOM     18   O  A00 X   1     143.704 117.007  49.2920  0.00  0.00     0.000 OA
ENDBRANCH 5 16
BRANCH 1 19
ATOM     19  O4  A00 X   2     141.506 115.631  52.3940  0.00  0.00     0.000 O
BRANCH 19 23
ATOM     20  C1  A00 X   2     138.907 116.357  55.7240  0.00  0.00     0.000 C
ATOM     21  C2  A00 X   2     139.835 115.120  55.7980  0.00  0.00     0.000 C
ATOM     22  C3  A00 X   2     140.982 115.231  54.7720  0.00  0.00     0.000 C
ATOM     23  C4  A00 X   2     140.420 115.476  53.3530  0.00  0.00     0.000 C
ATOM     24  C5  A00 X   2     139.498 116.724  53.4170  0.00  0.00     0.000 C
ATOM     25  O5  A00 X   2     138.424 116.464  54.3580  0.00  0.00     0.000 O
ATOM     26   O  A00 X   2     141.851 114.097  54.9260  0.00  0.00     0.000 O
ATOM     28  HD  A00 X   2     141.198 113.529  54.8980  0.00  0.00     0.000 HD
BRANCH 21 30
ATOM     28   N  A00 X   2     138.775 114.414  56.5250  0.00  0.00     0.000 N
ATOM     30  HD  A00 X   2     139.504 113.962  56.6430  0.00  0.00     0.000 HD
ATOM     30   O  A00 X   2     139.783 112.919  58.0100  0.00  0.00     0.000 OA
ATOM     31   S  A00 X   2     138.969 112.879  56.8480  0.00  0.00     0.000 S
ATOM     32   O  A00 X   2     137.636 112.407  57.0600  0.00  0.00     0.000 OA
ATOM     33   O  A00 X   2     139.533 112.269  55.6810  0.00  0.00     0.000 OA
ENDBRANCH 21 30
BRANCH 24 34
ATOM     34   C  A00 X   2     138.990 117.320  52.0820  0.00  0.00     0.000 C
ATOM     35   O  A00 X   2     137.067 115.457  49.6150  0.00  0.00     0.000 OA
ATOM     36   O  A00 X   2     138.581 116.283  51.1690  0.00  0.00     0.000 O
ATOM     37   O  A00 X   2     136.433 115.693  51.8810  0.00  0.00     0.000 OA
ATOM     38   S  A00 X   2     137.064 116.312  50.7560  0.00  0.00     0.000 S
ATOM     39   O  A00 X   2     136.744 117.682  50.4870  0.00  0.00     0.000 OA
ENDBRANCH 24 34
BRANCH 20 40
ATOM     40  O4  A00 X   3     139.740 117.485  56.0280  0.00  0.00     0.000 O
BRANCH 40 44
ATOM     41  C1  A00 X   3     140.699 120.877  55.1930  0.00  0.00     0.000 C
ATOM     42  C2  A00 X   3     141.340 120.032  56.3150  0.00  0.00     0.000 C
ATOM     43  C3  A00 X   3     140.255 119.428  57.2440  0.00  0.00     0.000 C
ATOM     44  C4  A00 X   3     139.132 118.700  56.5160  0.00  0.00     0.000 C
ATOM     45  C5  A00 X   3     138.536 119.614  55.4080  0.00  0.00     0.000 C
ATOM     46  O5  A00 X   3     139.595 120.170  54.5630  0.00  0.00     0.000 O
ATOM     47   O  A00 X   3     140.736 118.697  58.3700  0.00  0.00     0.000 O
ATOM     49  HD  A00 X   3     140.071 118.179  58.1760  0.00  0.00     0.000 HD
BRANCH 42 49
ATOM     49   O  A00 X   3     142.121 119.000  55.6740  0.00  0.00     0.000 O
ATOM     50   O  A00 X   3     143.492 117.172  56.3850  0.00  0.00     0.000 OA
ATOM     51   O  A00 X   3     143.653 119.233  57.5320  0.00  0.00     0.000 OA
ATOM     52   O  A00 X   3     144.437 119.118  55.3050  0.00  0.00     0.000 OA
ATOM     53   S  A00 X   3     143.509 118.594  56.2480  0.00  0.00     0.000 S
ENDBRANCH 42 49
BRANCH 45 54
ATOM     54   C  A00 X   3     137.607 120.684  55.9950  0.00  0.00     0.000 C
ATOM     55   O  A00 X   3     136.942 121.392  55.2670  0.00  0.00     0.000 OA
ATOM     56   O  A00 X   3     137.522 120.845  57.2030  0.00  0.00     0.000 OA
ENDBRANCH 45 54
BRANCH 41 57
ATOM     57  O4  A00 X   4     140.360 122.205  55.6520  0.00  0.00     0.000 O
BRANCH 57 61
ATOM     58  C1  A00 X   4     140.309 126.061  53.7110  0.00  0.00     0.000 C
ATOM     59  C2  A00 X   4     139.376 124.948  53.1730  0.00  0.00     0.000 C
ATOM     60  C3  A00 X   4     139.213 123.760  54.1430  0.00  0.00     0.000 C
ATOM     61  C4  A00 X   4     140.574 123.268  54.6800  0.00  0.00     0.000 C
ATOM     62  C5  A00 X   4     141.241 124.490  55.3600  0.00  0.00     0.000 C
ATOM     63  O5  A00 X   4     141.478 125.519  54.3660  0.00  0.00     0.000 O
BRANCH 59 66
ATOM     64   N  A00 X   4     139.927 124.368  51.9350  0.00  0.00     0.000 N
ATOM     66  HD  A00 X   4     140.787 124.386  51.8330  0.00  0.00     0.000 HD
ATOM     66   O  A00 X   4     138.973 126.237  50.7530  0.00  0.00     0.000 OA
ATOM     67   S  A00 X   4     139.339 124.873  50.5350  0.00  0.00     0.000 S
ATOM     68   O  A00 X   4     140.478 124.668  49.6880  0.00  0.00     0.000 OA
ATOM     69   O  A00 X   4     138.284 123.918  50.3440  0.00  0.00     0.000 OA
ENDBRANCH 59 66
BRANCH 62 70
ATOM     70   C  A00 X   4     142.581 124.167  56.0640  0.00  0.00     0.000 C
ATOM     71   O  A00 X   4     145.780 123.357  54.5740  0.00  0.00     0.000 OA
ATOM     72   O  A00 X   4     144.572 122.289  56.2900  0.00  0.00     0.000 OA
ATOM     73   O  A00 X   4     143.637 124.152  55.0890  0.00  0.00     0.000 O
ATOM     74   O  A00 X   4     143.859 122.027  53.9750  0.00  0.00     0.000 OA
ATOM     75   S  A00 X   4     144.494 122.845  54.9570  0.00  0.00     0.000 S
ENDBRANCH 62 70
ENDBRANCH 57 61
ENDBRANCH 41 57
ENDBRANCH 40 44
ENDBRANCH 20 40
ENDBRANCH 19 23
ENDBRANCH 1 19
TORSDOF 14
ENDMDL
MODEL 34
REMARK VINA RESULT:       0.0     86.480     92.938
ROOT
ATOM      1  C1  A00 X   1     134.887 135.579  26.4400  0.00  0.00     0.000 C
ATOM      2  C2  A00 X   1     135.518 134.314  27.0810  0.00  0.00     0.000 C
ATOM      3  C3  A00 X   1     137.071 134.180  26.9520  0.00  0.00     0.000 C
ATOM      4  C4  A00 X   1     137.737 135.108  25.9040  0.00  0.00     0.000 C
ATOM      5  C5  A00 X   1     136.750 135.573  24.8340  0.00  0.00     0.000 C
ATOM      6  O5  A00 X   1     135.755 136.333  25.5570  0.00  0.00     0.000 O
ATOM      7   O  A00 X   1     137.384 132.843  26.5650  0.00  0.00     0.000 O
ATOM      9  HD  A00 X   1     137.901 133.368  26.1110  0.00  0.00     0.000 HD
ATOM      9   O  A00 X   1     138.347 136.241  26.5230  0.00  0.00     0.000 O
ATOM     11  HD  A00 X   1     138.864 136.766  26.0680  0.00  0.00     0.000 HD
ENDROOT
BRANCH 2 11
ATOM     11   O  A00 X   1     135.161 134.306  28.4770  0.00  0.00     0.000 O
ATOM     12   O  A00 X   1     136.075 132.702  30.0130  0.00  0.00     0.000 OA
ATOM     13   O  A00 X   1     134.664 131.932  28.1870  0.00  0.00     0.000 OA
ATOM     14   O  A00 X   1     133.740 133.208  29.9690  0.00  0.00     0.000 OA
ATOM     15   S  A00 X   1     134.915 132.932  29.1890  0.00  0.00     0.000 S
ENDBRANCH 2 11
BRANCH 5 16
ATOM     16   C  A00 X   1     136.158 134.456  23.9690  0.00  0.00     0.000 C
ATOM     17   O  A00 X   1     135.217 134.716  23.2480  0.00  0.00     0.000 OA
ATOM     18   O  A00 X   1     136.600 133.324  23.9730  0.00  0.00     0.000 OA
ENDBRANCH 5 16
BRANCH 1 19
ATOM     19  O4  A00 X   2     133.605 135.314  25.8190  0.00  0.00     0.000 O
BRANCH 19 23
ATOM     20  C1  A00 X   2     131.862 139.004  27.1240  0.00  0.00     0.000 C
ATOM     21  C2  A00 X   2     131.569 137.739  27.9650  0.00  0.00     0.000 C
ATOM     22  C3  A00 X   2     132.580 136.619  27.6440  0.00  0.00     0.000 C
ATOM     23  C4  A00 X   2     132.614 136.335  26.1260  0.00  0.00     0.000 C
ATOM     24  C5  A00 X   2     132.896 137.678  25.3980  0.00  0.00     0.000 C
ATOM     25  O5  A00 X   2     131.839 138.618  25.7240  0.00  0.00     0.000 O
ATOM     26   O  A00 X   2     132.309 135.494  28.4970  0.00  0.00     0.000 O
ATOM     28  HD  A00 X   2     131.465 135.486  28.3030  0.00  0.00     0.000 HD
BRANCH 21 30
ATOM     28   N  A00 X   2     130.232 138.276  28.2380  0.00  0.00     0.000 N
ATOM     30  HD  A00 X   2     130.369 137.642  28.8110  0.00  0.00     0.000 HD
ATOM     30   O  A00 X   2     129.575 137.551  30.3590  0.00  0.00     0.000 OA
ATOM     31   S  A00 X   2     129.191 137.367  29.0050  0.00  0.00     0.000 S
ATOM     32   O  A00 X   2     127.925 137.931  28.6540  0.00  0.00     0.000 OA
ATOM     33   O  A00 X   2     129.311 136.043  28.4710  0.00  0.00     0.000 OA
ENDBRANCH 21 30
BRANCH 24 34
ATOM     34   C  A00 X   2     133.207 137.632  23.8830  0.00  0.00     0.000 C
ATOM     35   O  A00 X   2     131.162 139.230  21.3300  0.00  0.00     0.000 OA
ATOM     36   O  A00 X   2     132.064 138.033  23.1020  0.00  0.00     0.000 O
ATOM     37   O  A00 X   2     132.099 140.370  23.1780  0.00  0.00     0.000 OA
ATOM     38   S  A00 X   2     132.271 139.319  22.2220  0.00  0.00     0.000 S
ATOM     39   O  A00 X   2     133.557 139.186  21.6070  0.00  0.00     0.000 OA
ENDBRANCH 24 34
BRANCH 20 40
ATOM     40  O4  A00 X   3     133.189 139.413  27.4870  0.00  0.00     0.000 O
BRANCH 40 44
ATOM     41  C1  A00 X   3     136.444 140.594  26.4220  0.00  0.00     0.000 C
ATOM     42  C2  A00 X   3     136.052 140.292  27.8840  0.00  0.00     0.000 C
ATOM     43  C3  A00 X   3     134.730 141.006  28.2640  0.00  0.00     0.000 C
ATOM     44  C4  A00 X   3     133.586 140.785  27.2820  0.00  0.00     0.000 C
ATOM     45  C5  A00 X   3     134.055 141.114  25.8370  0.00  0.00     0.000 C
ATOM     46  O5  A00 X   3     135.310 140.427  25.5250  0.00  0.00     0.000 O
ATOM     47   O  A00 X   3     134.315 140.869  29.6220  0.00  0.00     0.000 O
ATOM     49  HD  A00 X   3     133.532 140.809  29.2580  0.00  0.00     0.000 HD
BRANCH 42 49
ATOM     49   O  A00 X   3     135.930 138.857  28.0020  0.00  0.00     0.000 O
ATOM     50   O  A00 X   3     135.327 137.306  29.7230  0.00  0.00     0.000 OA
ATOM     51   O  A00 X   3     136.710 139.142  30.2760  0.00  0.00     0.000 OA
ATOM     52   O  A00 X   3     137.590 137.448  28.8820  0.00  0.00     0.000 OA
ATOM     53   S  A00 X   3     136.412 138.131  29.2920  0.00  0.00     0.000 S
ENDBRANCH 42 49
BRANCH 45 54
ATOM     54   C  A00 X   3     134.117 142.626  25.5900  0.00  0.00     0.000 C
ATOM     55   O  A00 X   3     133.967 143.409  26.5050  0.00  0.00     0.000 OA
ATOM     56   O  A00 X   3     134.318 143.069  24.4700  0.00  0.00     0.000 OA
ENDBRANCH 45 54
BRANCH 41 57
ATOM     57  O4  A00 X   4     137.106 141.872  26.2990  0.00  0.00     0.000 O
BRANCH 57 61
ATOM     58  C1  A00 X   4     140.250 143.319  23.7170  0.00  0.00     0.000 C
ATOM     59  C2  A00 X   4     138.921 142.849  23.0750  0.00  0.00     0.000 C
ATOM     60  C3  A00 X   4     137.767 142.702  24.0880  0.00  0.00     0.000 C
ATOM     61  C4  A00 X   4     138.202 141.911  25.3410  0.00  0.00     0.000 C
ATOM     62  C5  A00 X   4     139.411 142.673  25.9400  0.00  0.00     0.000 C
ATOM     63  O5  A00 X   4     140.501 142.666  24.9830  0.00  0.00     0.000 O
BRANCH 59 66
ATOM     64   N  A00 X   4     139.080 141.515  22.4700  0.00  0.00     0.000 N
ATOM     66  HD  A00 X   4     139.675 140.988  22.8150  0.00  0.00     0.000 HD
ATOM     66   O  A00 X   4     140.041 142.609  20.5520  0.00  0.00     0.000 OA
ATOM     67   S  A00 X   4     139.319 141.423  20.8910  0.00  0.00     0.000 S
ATOM     68   O  A00 X   4     140.067 140.202  20.8140  0.00  0.00     0.000 OA
ATOM     69   O  A00 X   4     137.962 141.311  20.4360  0.00  0.00     0.000 OA
ENDBRANCH 59 66
BRANCH 62 70
ATOM     70   C  A00 X   4     139.926 142.090  27.2770  0.00  0.00     0.000 C
ATOM     71   O  A00 X   4     141.653 138.963  27.8650  0.00  0.00     0.000 OA
ATOM     72   O  A00 X   4     139.791 139.914  28.9470  0.00  0.00     0.000 OA
ATOM     73   O  A00 X   4     140.763 140.954  27.0090  0.00  0.00     0.000 O
ATOM     74   O  A00 X   4     139.518 138.908  26.7450  0.00  0.00     0.000 OA
ATOM     75   S  A00 X   4     140.374 139.584  27.6660  0.00  0.00     0.000 S
ENDBRANCH 62 70
ENDBRANCH 57 61
ENDBRANCH 41 57
ENDBRANCH 40 44
ENDBRANCH 20 40
ENDBRANCH 19 23
ENDBRANCH 1 19
TORSDOF 14
ENDMDL
MODEL 35
REMARK VINA RESULT:       0.0     21.097     27.011
ROOT
ATOM      1  C1  A00 X   1      47.739 134.441  33.2420  0.00  0.00     0.000 C
ATOM      2  C2  A00 X   1      48.856 133.364  33.2210  0.00  0.00     0.000 C
ATOM      3  C3  A00 X   1      50.305 133.881  32.9390  0.00  0.00     0.000 C
ATOM      4  C4  A00 X   1      50.401 135.316  32.3600  0.00  0.00     0.000 C
ATOM      5  C5  A00 X   1      49.106 135.749  31.6720  0.00  0.00     0.000 C
ATOM      6  O5  A00 X   1      48.112 135.741  32.7220  0.00  0.00     0.000 O
ATOM      7   O  A00 X   1      50.922 133.018  31.9860  0.00  0.00     0.000 O
ATOM      9  HD  A00 X   1      51.137 133.830  31.7730  0.00  0.00     0.000 HD
ATOM      9   O  A00 X   1      50.751 136.264  33.3680  0.00  0.00     0.000 O
ATOM     11  HD  A00 X   1      50.967 137.075  33.1550  0.00  0.00     0.000 HD
ENDROOT
BRANCH 2 11
ATOM     11   O  A00 X   1      48.838 132.688  34.4930  0.00  0.00     0.000 O
ATOM     12   O  A00 X   1      50.526 131.095  35.1090  0.00  0.00     0.000 OA
ATOM     13   O  A00 X   1      49.061 130.609  33.2300  0.00  0.00     0.000 OA
ATOM     14   O  A00 X   1      48.202 130.654  35.4470  0.00  0.00     0.000 OA
ATOM     15   S  A00 X   1      49.201 131.164  34.5480  0.00  0.00     0.000 S
ENDBRANCH 2 11
BRANCH 5 16
ATOM     16   C  A00 X   1      48.713 134.916  30.4480  0.00  0.00     0.000 C
ATOM     17   O  A00 X   1      47.605 135.066  29.9750  0.00  0.00     0.000 OA
ATOM     18   O  A00 X   1      49.470 134.118  29.9320  0.00  0.00     0.000 OA
ENDBRANCH 5 16
BRANCH 1 19
ATOM     19  O4  A00 X   2      46.498 133.975  32.6580  0.00  0.00     0.000 O
BRANCH 19 23
ATOM     20  C1  A00 X   2      44.037 135.937  35.5660  0.00  0.00     0.000 C
ATOM     21  C2  A00 X   2      44.333 134.432  35.7790  0.00  0.00     0.000 C
ATOM     22  C3  A00 X   2      45.543 133.986  34.9330  0.00  0.00     0.000 C
ATOM     23  C4  A00 X   2      45.333 134.352  33.4470  0.00  0.00     0.000 C
ATOM     24  C5  A00 X   2      45.028 135.873  33.3710  0.00  0.00     0.000 C
ATOM     25  O5  A00 X   2      43.831 136.148  34.1440  0.00  0.00     0.000 O
ATOM     26   O  A00 X   2      45.820 132.604  35.2170  0.00  0.00     0.000 O
ATOM     28  HD  A00 X   2      44.997 132.362  35.0930  0.00  0.00     0.000 HD
BRANCH 21 30
ATOM     28   N  A00 X   2      42.988 134.286  36.3440  0.00  0.00     0.000 N
ATOM     30  HD  A00 X   2      43.433 133.578  36.5690  0.00  0.00     0.000 HD
ATOM     30   O  A00 X   2      43.059 132.605  37.9650  0.00  0.00     0.000 OA
ATOM     31   S  A00 X   2      42.467 132.835  36.6950  0.00  0.00     0.000 S
ATOM     32   O  A00 X   2      41.044 132.981  36.7100  0.00  0.00     0.000 OA
ATOM     33   O  A00 X   2      42.867 131.971  35.6250  0.00  0.00     0.000 OA
ENDBRANCH 21 30
BRANCH 24 34
ATOM     34   C  A00 X   2      45.003 136.539  31.9750  0.00  0.00     0.000 C
ATOM     35   O  A00 X   2      42.820 135.497  29.2540  0.00  0.00     0.000 OA
ATOM     36   O  A00 X   2      44.319 135.712  31.0130  0.00  0.00     0.000 O
ATOM     37   O  A00 X   2      42.049 136.122  31.4010  0.00  0.00     0.000 OA
ATOM     38   S  A00 X   2      43.027 136.347  30.3800  0.00  0.00     0.000 S
ATOM     39   O  A00 X   2      43.356 137.704  30.0640  0.00  0.00     0.000 OA
ENDBRANCH 24 34
BRANCH 20 40
ATOM     40  O4  A00 X   3      45.221 136.628  35.9880  0.00  0.00     0.000 O
BRANCH 40 44
ATOM     41  C1  A00 X   3      47.638 139.234  35.2820  0.00  0.00     0.000 C
ATOM     42  C2  A00 X   3      47.700 138.281  36.4960  0.00  0.00     0.000 C
ATOM     43  C3  A00 X   3      46.347 138.257  37.2530  0.00  0.00     0.000 C
ATOM     44  C4  A00 X   3      45.130 138.018  36.3670  0.00  0.00     0.000 C
ATOM     45  C5  A00 X   3      45.136 139.016  35.1750  0.00  0.00     0.000 C
ATOM     46  O5  A00 X   3      46.434 139.013  34.4970  0.00  0.00     0.000 O
ATOM     47   O  A00 X   3      46.314 137.475  38.4450  0.00  0.00     0.000 O
ATOM     49  HD  A00 X   3      45.523 137.272  38.1560  0.00  0.00     0.000 HD
BRANCH 42 49
ATOM     49   O  A00 X   3      48.045 136.973  35.9900  0.00  0.00     0.000 O
ATOM     50   O  A00 X   3      48.349 134.784  36.9100  0.00  0.00     0.000 OA
ATOM     51   O  A00 X   3      49.205 136.646  38.0880  0.00  0.00     0.000 OA
ATOM     52   O  A00 X   3      50.206 136.057  36.0300  0.00  0.00     0.000 OA
ATOM     53   S  A00 X   3      49.006 136.048  36.7920  0.00  0.00     0.000 S
ENDBRANCH 42 49
BRANCH 45 54
ATOM     54   C  A00 X   3      44.683 140.416  35.6040  0.00  0.00     0.000 C
ATOM     55   O  A00 X   3      44.480 141.282  34.7770  0.00  0.00     0.000 OA
ATOM     56   O  A00 X   3      44.519 140.687  36.7840  0.00  0.00     0.000 OA
ENDBRANCH 45 54
BRANCH 41 57
ATOM     57  O4  A00 X   4      47.839 140.610  35.6740  0.00  0.00     0.000 O
BRANCH 57 61
ATOM     58  C1  A00 X   4      49.711 143.975  33.7210  0.00  0.00     0.000 C
ATOM     59  C2  A00 X   4      48.483 143.316  33.0460  0.00  0.00     0.000 C
ATOM     60  C3  A00 X   4      47.693 142.382  33.9850  0.00  0.00     0.000 C
ATOM     61  C4  A00 X   4      48.623 141.409  34.7420  0.00  0.00     0.000 C
ATOM     62  C5  A00 X   4      49.639 142.288  35.5130  0.00  0.00     0.000 C
ATOM     63  O5  A00 X   4      50.432 143.045  34.5620  0.00  0.00     0.000 O
BRANCH 59 66
ATOM     64   N  A00 X   4      48.926 142.469  31.9240  0.00  0.00     0.000 N
ATOM     66  HD  A00 X   4      49.721 142.128  31.9690  0.00  0.00     0.000 HD
ATOM     66   O  A00 X   4      49.020 144.467  30.5840  0.00  0.00     0.000 OA
ATOM     67   S  A00 X   4      48.819 143.059  30.4410  0.00  0.00     0.000 S
ATOM     68   O  A00 X   4      49.884 142.345  29.8010  0.00  0.00     0.000 OA
ATOM     69   O  A00 X   4      47.506 142.603  30.0820  0.00  0.00     0.000 OA
ENDBRANCH 59 66
BRANCH 62 70
ATOM     70   C  A00 X   4      50.598 141.491  36.4280  0.00  0.00     0.000 C
ATOM     71   O  A00 X   4      53.291 139.262  35.4860  0.00  0.00     0.000 OA
ATOM     72   O  A00 X   4      51.523 138.972  37.0140  0.00  0.00     0.000 OA
ATOM     73   O  A00 X   4      51.661 140.938  35.6350  0.00  0.00     0.000 O
ATOM     74   O  A00 X   4      51.082 138.830  34.6210  0.00  0.00     0.000 OA
ATOM     75   S  A00 X   4      51.872 139.384  35.6730  0.00  0.00     0.000 S
ENDBRANCH 62 70
ENDBRANCH 57 61
ENDBRANCH 41 57
ENDBRANCH 40 44
ENDBRANCH 20 40
ENDBRANCH 19 23
ENDBRANCH 1 19
TORSDOF 14
ENDMDL
MODEL 36
REMARK VINA RESULT:       0.0     90.454     95.545
ROOT
ATOM      1  C1  A00 X   1     143.252 103.371  53.8740  0.00  0.00     0.000 C
ATOM      2  C2  A00 X   1     144.531 102.800  53.2050  0.00  0.00     0.000 C
ATOM      3  C3  A00 X   1     145.785 102.659  54.1300  0.00  0.00     0.000 C
ATOM      4  C4  A00 X   1     145.716 103.432  55.4720  0.00  0.00     0.000 C
ATOM      5  C5  A00 X   1     144.723 104.594  55.4190  0.00  0.00     0.000 C
ATOM      6  O5  A00 X   1     143.441 103.970  55.1800  0.00  0.00     0.000 O
ATOM      7   O  A00 X   1     146.925 103.157  53.4340  0.00  0.00     0.000 O
ATOM      9  HD  A00 X   1     146.984 103.434  54.2520  0.00  0.00     0.000 HD
ATOM      9   O  A00 X   1     145.387 102.566  56.5580  0.00  0.00     0.000 O
ATOM     11  HD  A00 X   1     145.447 102.843  57.3760  0.00  0.00     0.000 HD
ENDROOT
BRANCH 2 11
ATOM     11   O  A00 X   1     144.201 101.508  52.6610  0.00  0.00     0.000 O
ATOM     12   O  A00 X   1     145.777 100.233  51.3730  0.00  0.00     0.000 OA
ATOM     13   O  A00 X   1     144.992 102.370  50.5170  0.00  0.00     0.000 OA
ATOM     14   O  A00 X   1     143.512 100.514  50.6640  0.00  0.00     0.000 OA
ATOM     15   S  A00 X   1     144.678 101.152  51.2110  0.00  0.00     0.000 S
ENDBRANCH 2 11
BRANCH 5 16
ATOM     16   C  A00 X   1     145.067 105.695  54.4110  0.00  0.00     0.000 C
ATOM     17   O  A00 X   1     144.235 106.546  54.1740  0.00  0.00     0.000 OA
ATOM     18   O  A00 X   1     146.142 105.749  53.8470  0.00  0.00     0.000 OA
ENDBRANCH 5 16
BRANCH 1 19
ATOM     19  O4  A00 X   2     142.503 104.247  52.9950  0.00  0.00     0.000 O
BRANCH 19 23
ATOM     20  C1  A00 X   2     138.687 102.930  54.4340  0.00  0.00     0.000 C
ATOM     21  C2  A00 X   2     139.212 102.299  53.1210  0.00  0.00     0.000 C
ATOM     22  C3  A00 X   2     140.730 102.531  52.9700  0.00  0.00     0.000 C
ATOM     23  C4  A00 X   2     141.065 104.035  53.0890  0.00  0.00     0.000 C
ATOM     24  C5  A00 X   2     140.472 104.549  54.4290  0.00  0.00     0.000 C
ATOM     25  O5  A00 X   2     139.036 104.340  54.4150  0.00  0.00     0.000 O
ATOM     26   O  A00 X   2     141.180 101.870  51.7750  0.00  0.00     0.000 O
ATOM     28  HD  A00 X   2     140.561 102.225  51.2850  0.00  0.00     0.000 HD
BRANCH 21 30
ATOM     28   N  A00 X   2     137.828 102.239  52.6420  0.00  0.00     0.000 N
ATOM     30  HD  A00 X   2     138.294 101.719  52.1290  0.00  0.00     0.000 HD
ATOM     30   O  A00 X   2     137.622 100.375  51.2480  0.00  0.00     0.000 OA
ATOM     31   S  A00 X   2     137.562 101.790  51.1490  0.00  0.00     0.000 S
ATOM     32   O  A00 X   2     136.265 102.320  50.8630  0.00  0.00     0.000 OA
ATOM     33   O  A00 X   2     138.551 102.427  50.3330  0.00  0.00     0.000 OA
ENDBRANCH 21 30
BRANCH 24 34
ATOM     34   C  A00 X   2     140.864 105.970  54.8990  0.00  0.00     0.000 C
ATOM     35   O  A00 X   2     138.483 108.672  55.4340  0.00  0.00     0.000 OA
ATOM     36   O  A00 X   2     139.790 106.906  54.6830  0.00  0.00     0.000 O
ATOM     37   O  A00 X   2     138.343 106.559  56.4880  0.00  0.00     0.000 OA
ATOM     38   S  A00 X   2     139.213 107.577  55.9830  0.00  0.00     0.000 S
ATOM     39   O  A00 X   2     140.342 107.942  56.7850  0.00  0.00     0.000 OA
ENDBRANCH 24 34
BRANCH 20 40
ATOM     40  O4  A00 X   3     139.400 102.273  55.4920  0.00  0.00     0.000 O
BRANCH 40 44
ATOM     41  C1  A00 X   3     141.153 102.508  58.6540  0.00  0.00     0.000 C
ATOM     42  C2  A00 X   3     140.951 101.203  57.8540  0.00  0.00     0.000 C
ATOM     43  C3  A00 X   3     139.461 101.010  57.4720  0.00  0.00     0.000 C
ATOM     44  C4  A00 X   3     138.815 102.221  56.8110  0.00  0.00     0.000 C
ATOM     45  C5  A00 X   3     139.056 103.491  57.6760  0.00  0.00     0.000 C
ATOM     46  O5  A00 X   3     140.472 103.627  58.0210  0.00  0.00     0.000 O
ATOM     47   O  A00 X   3     139.142  99.791  56.8040  0.00  0.00     0.000 O
ATOM     49  HD  A00 X   3     138.617 100.309  56.3490  0.00  0.00     0.000 HD
BRANCH 42 49
ATOM     49   O  A00 X   3     141.790 101.292  56.6810  0.00  0.00     0.000 O
ATOM     50   O  A00 X   3     142.236  99.931  54.7630  0.00  0.00     0.000 OA
ATOM     51   O  A00 X   3     142.040  98.893  56.8780  0.00  0.00     0.000 OA
ATOM     52   O  A00 X   3     143.904 100.290  56.4760  0.00  0.00     0.000 OA
ATOM     53   S  A00 X   3     142.542 100.035  56.1550  0.00  0.00     0.000 S
ENDBRANCH 42 49
BRANCH 45 54
ATOM     54   C  A00 X   3     138.131 103.529  58.8980  0.00  0.00     0.000 C
ATOM     55   O  A00 X   3     138.048 104.530  59.5800  0.00  0.00     0.000 OA
ATOM     56   O  A00 X   3     137.462 102.555  59.2070  0.00  0.00     0.000 OA
ENDBRANCH 45 54
BRANCH 41 57
ATOM     57  O4  A00 X   4     140.823 102.334  60.0500  0.00  0.00     0.000 O
BRANCH 57 61
ATOM     58  C1  A00 X   4     142.378 104.087  63.6770  0.00  0.00     0.000 C
ATOM     59  C2  A00 X   4     141.715 105.016  62.6290  0.00  0.00     0.000 C
ATOM     60  C3  A00 X   4     140.891 104.258  61.5690  0.00  0.00     0.000 C
ATOM     61  C4  A00 X   4     141.673 103.064  60.9810  0.00  0.00     0.000 C
ATOM     62  C5  A00 X   4     142.054 102.160  62.1800  0.00  0.00     0.000 C
ATOM     63  O5  A00 X   4     142.930 102.896  63.0720  0.00  0.00     0.000 O
BRANCH 59 66
ATOM     64   N  A00 X   4     142.730 105.763  61.8630  0.00  0.00     0.000 N
ATOM     66  HD  A00 X   4     143.507 105.393  61.7630  0.00  0.00     0.000 HD
ATOM     66   O  A00 X   4     142.845 107.304  63.7100  0.00  0.00     0.000 OA
ATOM     67   S  A00 X   4     143.048 107.270  62.2960  0.00  0.00     0.000 S
ATOM     68   O  A00 X   4     144.411 107.380  61.8650  0.00  0.00     0.000 OA
ATOM     69   O  A00 X   4     142.110 107.974  61.4670  0.00  0.00     0.000 OA
ENDBRANCH 59 66
BRANCH 62 70
ATOM     70   C  A00 X   4     142.757 100.841  61.7780  0.00  0.00     0.000 C
ATOM     71   O  A00 X   4     146.071 100.373  60.3980  0.00  0.00     0.000 OA
ATOM     72   O  A00 X   4     143.987  99.524  59.7050  0.00  0.00     0.000 OA
ATOM     73   O  A00 X   4     144.144 101.104  61.5130  0.00  0.00     0.000 O
ATOM     74   O  A00 X   4     144.547 101.854  59.2590  0.00  0.00     0.000 OA
ATOM     75   S  A00 X   4     144.708 100.714  60.1020  0.00  0.00     0.000 S
ENDBRANCH 62 70
ENDBRANCH 57 61
ENDBRANCH 41 57
ENDBRANCH 40 44
ENDBRANCH 20 40
ENDBRANCH 19 23
ENDBRANCH 1 19
TORSDOF 14
ENDMDL
MODEL 37
REMARK VINA RESULT:       0.0     83.663     89.365
ROOT
ATOM      1  C1  A00 X   1     126.751  76.817  27.3540  0.00  0.00     0.000 C
ATOM      2  C2  A00 X   1     126.935  77.572  26.0110  0.00  0.00     0.000 C
ATOM      3  C3  A00 X   1     128.208  77.200  25.1820  0.00  0.00     0.000 C
ATOM      4  C4  A00 X   1     129.301  76.414  25.9510  0.00  0.00     0.000 C
ATOM      5  C5  A00 X   1     129.200  76.615  27.4630  0.00  0.00     0.000 C
ATOM      6  O5  A00 X   1     127.907  76.076  27.8190  0.00  0.00     0.000 O
ATOM      7   O  A00 X   1     128.822  78.401  24.7210  0.00  0.00     0.000 O
ATOM      9  HD  A00 X   1     129.457  77.873  24.9790  0.00  0.00     0.000 HD
ATOM      9   O  A00 X   1     129.255  75.021  25.6450  0.00  0.00     0.000 O
ATOM     11  HD  A00 X   1     129.890  74.492  25.9030  0.00  0.00     0.000 HD
ENDROOT
BRANCH 2 11
ATOM     11   O  A00 X   1     125.764  77.330  25.2080  0.00  0.00     0.000 O
ATOM     12   O  A00 X   1     125.623  78.044  22.9190  0.00  0.00     0.000 OA
ATOM     13   O  A00 X   1     125.811  79.714  24.6780  0.00  0.00     0.000 OA
ATOM     14   O  A00 X   1     123.834  78.410  24.4600  0.00  0.00     0.000 OA
ATOM     15   S  A00 X   1     125.255  78.460  24.2490  0.00  0.00     0.000 S
ENDBRANCH 2 11
BRANCH 5 16
ATOM     16   C  A00 X   1     129.417  78.054  27.9410  0.00  0.00     0.000 C
ATOM     17   O  A00 X   1     129.142  78.332  29.0910  0.00  0.00     0.000 OA
ATOM     18   O  A00 X   1     129.859  78.922  27.2160  0.00  0.00     0.000 OA
ENDBRANCH 5 16
BRANCH 1 19
ATOM     19  O4  A00 X   2     126.207  77.657  28.4010  0.00  0.00     0.000 O
BRANCH 19 23
ATOM     20  C1  A00 X   2     123.671  74.579  29.9720  0.00  0.00     0.000 C
ATOM     21  C2  A00 X   2     123.031  75.613  29.0140  0.00  0.00     0.000 C
ATOM     22  C3  A00 X   2     124.114  76.364  28.2110  0.00  0.00     0.000 C
ATOM     23  C4  A00 X   2     125.158  76.992  29.1620  0.00  0.00     0.000 C
ATOM     24  C5  A00 X   2     125.708  75.863  30.0760  0.00  0.00     0.000 C
ATOM     25  O5  A00 X   2     124.605  75.291  30.8270  0.00  0.00     0.000 O
ATOM     26   O  A00 X   2     123.468  77.260  27.2910  0.00  0.00     0.000 O
ATOM     28  HD  A00 X   2     122.961  77.603  27.9030  0.00  0.00     0.000 HD
BRANCH 21 30
ATOM     28   N  A00 X   2     121.794  75.515  29.7950  0.00  0.00     0.000 N
ATOM     30  HD  A00 X   2     121.588  75.897  29.0460  0.00  0.00     0.000 HD
ATOM     30   O  A00 X   2     119.991  75.859  28.3500  0.00  0.00     0.000 OA
ATOM     31   S  A00 X   2     120.604  76.500  29.4590  0.00  0.00     0.000 S
ATOM     32   O  A00 X   2     119.824  76.510  30.6570  0.00  0.00     0.000 OA
ATOM     33   O  A00 X   2     121.177  77.792  29.2270  0.00  0.00     0.000 OA
ENDBRANCH 21 30
BRANCH 24 34
ATOM     34   C  A00 X   2     126.934  76.181  30.9650  0.00  0.00     0.000 C
ATOM     35   O  A00 X   2     127.022  78.852  33.4390  0.00  0.00     0.000 OA
ATOM     36   O  A00 X   2     126.812  77.481  31.5770  0.00  0.00     0.000 O
ATOM     37   O  A00 X   2     125.401  77.130  33.4100  0.00  0.00     0.000 OA
ATOM     38   S  A00 X   2     126.764  77.479  33.1490  0.00  0.00     0.000 S
ATOM     39   O  A00 X   2     127.778  76.566  33.5840  0.00  0.00     0.000 OA
ENDBRANCH 24 34
BRANCH 20 40
ATOM     40  O4  A00 X   3     124.391  73.666  29.1310  0.00  0.00     0.000 O
BRANCH 40 44
ATOM     41  C1  A00 X   3     127.431  71.781  28.5590  0.00  0.00     0.000 C
ATOM     42  C2  A00 X   3     126.219  71.806  27.6040  0.00  0.00     0.000 C
ATOM     43  C3  A00 X   3     124.904  71.504  28.3680  0.00  0.00     0.000 C
ATOM     44  C4  A00 X   3     124.693  72.342  29.6220  0.00  0.00     0.000 C
ATOM     45  C5  A00 X   3     125.951  72.263  30.5330  0.00  0.00     0.000 C
ATOM     46  O5  A00 X   3     127.168  72.544  29.7690  0.00  0.00     0.000 O
ATOM     47   O  A00 X   3     123.726  71.415  27.5690  0.00  0.00     0.000 O
ATOM     49  HD  A00 X   3     123.373  71.827  28.2440  0.00  0.00     0.000 HD
BRANCH 42 49
ATOM     49   O  A00 X   3     126.186  73.115  26.9950  0.00  0.00     0.000 O
ATOM     50   O  A00 X   3     124.784  74.265  25.4330  0.00  0.00     0.000 OA
ATOM     51   O  A00 X   3     125.324  72.000  25.0280  0.00  0.00     0.000 OA
ATOM     52   O  A00 X   3     127.043  73.615  24.8660  0.00  0.00     0.000 OA
ATOM     53   S  A00 X   3     125.812  73.275  25.4930  0.00  0.00     0.000 S
ENDBRANCH 42 49
BRANCH 45 54
ATOM     54   C  A00 X   3     126.014  70.937  31.3000  0.00  0.00     0.000 C
ATOM     55   O  A00 X   3     126.832  70.769  32.1800  0.00  0.00     0.000 OA
ATOM     56   O  A00 X   3     125.243  70.026  31.0380  0.00  0.00     0.000 OA
ENDBRANCH 45 54
BRANCH 41 57
ATOM     57  O4  A00 X   4     127.891  70.433  28.8040  0.00  0.00     0.000 O
BRANCH 57 61
ATOM     58  C1  A00 X   4     131.792  68.753  29.5740  0.00  0.00     0.000 C
ATOM     59  C2  A00 X   4     131.223  69.793  30.5710  0.00  0.00     0.000 C
ATOM     60  C3  A00 X   4     129.712  70.046  30.3990  0.00  0.00     0.000 C
ATOM     61  C4  A00 X   4     129.334  70.283  28.9210  0.00  0.00     0.000 C
ATOM     62  C5  A00 X   4     129.808  69.030  28.1440  0.00  0.00     0.000 C
ATOM     63  O5  A00 X   4     131.251  68.924  28.2440  0.00  0.00     0.000 O
BRANCH 59 66
ATOM     64   N  A00 X   4     131.875  71.096  30.3460  0.00  0.00     0.000 N
ATOM     66  HD  A00 X   4     132.173  71.262  29.5500  0.00  0.00     0.000 HD
ATOM     66   O  A00 X   4     133.702  70.302  31.6990  0.00  0.00     0.000 OA
ATOM     67   S  A00 X   4     133.066  71.526  31.3240  0.00  0.00     0.000 S
ATOM     68   O  A00 X   4     133.824  72.374  30.4510  0.00  0.00     0.000 OA
ATOM     69   O  A00 X   4     132.324  72.231  32.3310  0.00  0.00     0.000 OA
ENDBRANCH 59 66
BRANCH 62 70
ATOM     70   C  A00 X   4     129.418  69.029  26.6470  0.00  0.00     0.000 C
ATOM     71   O  A00 X   4     130.669  71.138  23.9830  0.00  0.00     0.000 OA
ATOM     72   O  A00 X   4     128.463  70.596  24.6030  0.00  0.00     0.000 OA
ATOM     73   O  A00 X   4     130.337  69.857  25.9160  0.00  0.00     0.000 O
ATOM     74   O  A00 X   4     129.732  72.188  25.9410  0.00  0.00     0.000 OA
ATOM     75   S  A00 X   4     129.750  71.048  25.0830  0.00  0.00     0.000 S
ENDBRANCH 62 70
ENDBRANCH 57 61
ENDBRANCH 41 57
ENDBRANCH 40 44
ENDBRANCH 20 40
ENDBRANCH 19 23
ENDBRANCH 1 19
TORSDOF 14
ENDMDL
MODEL 38
REMARK VINA RESULT:       0.0     30.732     36.112
ROOT
ATOM      1  C1  A00 X   1      52.800  80.401  58.1120  0.00  0.00     0.000 C
ATOM      2  C2  A00 X   1      52.908  81.283  59.3850  0.00  0.00     0.000 C
ATOM      3  C3  A00 X   1      52.973  82.827  59.1470  0.00  0.00     0.000 C
ATOM      4  C4  A00 X   1      53.290  83.268  57.6950  0.00  0.00     0.000 C
ATOM      5  C5  A00 X   1      54.003  82.173  56.9020  0.00  0.00     0.000 C
ATOM      6  O5  A00 X   1      53.059  81.079  56.8570  0.00  0.00     0.000 O
ATOM      7   O  A00 X   1      54.002  83.374  59.9700  0.00  0.00     0.000 O
ATOM      9  HD  A00 X   1      54.055  83.766  59.1990  0.00  0.00     0.000 HD
ATOM      9   O  A00 X   1      52.109  83.673  57.0030  0.00  0.00     0.000 O
ATOM     11  HD  A00 X   1      52.163  84.066  56.2330  0.00  0.00     0.000 HD
ENDROOT
BRANCH 2 11
ATOM     11   O  A00 X   1      51.775  80.984  60.2220  0.00  0.00     0.000 O
ATOM     12   O  A00 X   1      51.292  82.250  62.2050  0.00  0.00     0.000 OA
ATOM     13   O  A00 X   1      53.347  80.955  62.0910  0.00  0.00     0.000 OA
ATOM     14   O  A00 X   1      51.238  79.861  62.1980  0.00  0.00     0.000 OA
ATOM     15   S  A00 X   1      51.947  81.039  61.7790  0.00  0.00     0.000 S
ENDBRANCH 2 11
BRANCH 5 16
ATOM     16   C  A00 X   1      55.379  81.773  57.4430  0.00  0.00     0.000 C
ATOM     17   O  A00 X   1      55.911  80.776  56.9990  0.00  0.00     0.000 OA
ATOM     18   O  A00 X   1      55.959  82.420  58.2920  0.00  0.00     0.000 OA
ENDBRANCH 5 16
BRANCH 1 19
ATOM     19  O4  A00 X   2      53.559  79.172  58.2140  0.00  0.00     0.000 O
BRANCH 19 23
ATOM     20  C1  A00 X   2      50.577  76.808  56.2430  0.00  0.00     0.000 C
ATOM     21  C2  A00 X   2      50.602  76.782  57.7910  0.00  0.00     0.000 C
ATOM     22  C3  A00 X   2      51.406  77.975  58.3480  0.00  0.00     0.000 C
ATOM     23  C4  A00 X   2      52.820  78.016  57.7260  0.00  0.00     0.000 C
ATOM     24  C5  A00 X   2      52.658  78.020  56.1810  0.00  0.00     0.000 C
ATOM     25  O5  A00 X   2      51.954  76.816  55.7810  0.00  0.00     0.000 O
ATOM     26   O  A00 X   2      51.341  77.945  59.7840  0.00  0.00     0.000 O
ATOM     28  HD  A00 X   2      51.574  77.112  59.8270  0.00  0.00     0.000 HD
BRANCH 21 30
ATOM     28   N  A00 X   2      50.186  75.377  57.7360  0.00  0.00     0.000 N
ATOM     30  HD  A00 X   2      50.049  75.647  58.5470  0.00  0.00     0.000 HD
ATOM     30   O  A00 X   2      48.879  74.931  59.6200  0.00  0.00     0.000 OA
ATOM     31   S  A00 X   2      50.135  74.548  59.0810  0.00  0.00     0.000 S
ATOM     32   O  A00 X   2      50.216  73.188  58.6440  0.00  0.00     0.000 OA
ATOM     33   O  A00 X   2      51.300  74.897  59.8380  0.00  0.00     0.000 OA
ENDBRANCH 21 30
BRANCH 24 34
ATOM     34   C  A00 X   2      53.916  78.290  55.3210  0.00  0.00     0.000 C
ATOM     35   O  A00 X   2      55.340  75.890  52.9820  0.00  0.00     0.000 OA
ATOM     36   O  A00 X   2      54.445  77.066  54.7710  0.00  0.00     0.000 O
ATOM     37   O  A00 X   2      53.096  76.633  52.9100  0.00  0.00     0.000 OA
ATOM     38   S  A00 X   2      54.452  76.984  53.2010  0.00  0.00     0.000 S
ATOM     39   O  A00 X   2      54.924  78.252  52.7320  0.00  0.00     0.000 OA
ENDBRANCH 24 34
BRANCH 20 40
ATOM     40  O4  A00 X   3      49.944  78.045  55.8860  0.00  0.00     0.000 O
BRANCH 40 44
ATOM     41  C1  A00 X   3      49.909  80.984  53.7690  0.00  0.00     0.000 C
ATOM     42  C2  A00 X   3      48.898  80.704  54.9010  0.00  0.00     0.000 C
ATOM     43  C3  A00 X   3      48.292  79.283  54.7650  0.00  0.00     0.000 C
ATOM     44  C4  A00 X   3      49.318  78.171  54.5910  0.00  0.00     0.000 C
ATOM     45  C5  A00 X   3      50.294  78.523  53.4330  0.00  0.00     0.000 C
ATOM     46  O5  A00 X   3      50.833  79.875  53.5970  0.00  0.00     0.000 O
ATOM     47   O  A00 X   3      47.278  78.945  55.7090  0.00  0.00     0.000 O
ATOM     49  HD  A00 X   3      47.674  78.176  55.6900  0.00  0.00     0.000 HD
BRANCH 42 49
ATOM     49   O  A00 X   3      49.608  80.857  56.1500  0.00  0.00     0.000 O
ATOM     50   O  A00 X   3      49.094  80.615  58.4750  0.00  0.00     0.000 OA
ATOM     51   O  A00 X   3      47.508  81.646  57.0580  0.00  0.00     0.000 OA
ATOM     52   O  A00 X   3      49.535  82.781  57.4950  0.00  0.00     0.000 OA
ATOM     53   S  A00 X   3      48.907  81.510  57.3770  0.00  0.00     0.000 S
ENDBRANCH 42 49
BRANCH 45 54
ATOM     54   C  A00 X   3      49.652  78.292  52.0600  0.00  0.00     0.000 C
ATOM     55   O  A00 X   3      50.312  78.385  51.0450  0.00  0.00     0.000 OA
ATOM     56   O  A00 X   3      48.468  78.011  51.9630  0.00  0.00     0.000 OA
ENDBRANCH 45 54
BRANCH 41 57
ATOM     57  O4  A00 X   4      49.247  81.390  52.5500  0.00  0.00     0.000 O
BRANCH 57 61
ATOM     58  C1  A00 X   4      50.330  84.119  49.3850  0.00  0.00     0.000 C
ATOM     59  C2  A00 X   4      51.229  82.884  49.6380  0.00  0.00     0.000 C
ATOM     60  C3  A00 X   4      50.565  81.812  50.5260  0.00  0.00     0.000 C
ATOM     61  C4  A00 X   4      49.930  82.428  51.7910  0.00  0.00     0.000 C
ATOM     62  C5  A00 X   4      48.914  83.488  51.2970  0.00  0.00     0.000 C
ATOM     63  O5  A00 X   4      49.623  84.529  50.5780  0.00  0.00     0.000 O
BRANCH 59 66
ATOM     64   N  A00 X   4      52.464  83.259  50.3510  0.00  0.00     0.000 N
ATOM     66  HD  A00 X   4      52.430  83.948  50.8740  0.00  0.00     0.000 HD
ATOM     66   O  A00 X   4      53.362  83.949  48.2260  0.00  0.00     0.000 OA
ATOM     67   S  A00 X   4      53.800  83.461  49.4960  0.00  0.00     0.000 S
ATOM     68   O  A00 X   4      54.491  84.411  50.3180  0.00  0.00     0.000 OA
ATOM     69   O  A00 X   4      54.340  82.132  49.5530  0.00  0.00     0.000 OA
ENDBRANCH 59 66
BRANCH 62 70
ATOM     70   C  A00 X   4      48.088  84.147  52.4270  0.00  0.00     0.000 C
ATOM     71   O  A00 X   4      49.197  86.446  54.9950  0.00  0.00     0.000 OA
ATOM     72   O  A00 X   4      47.918  84.475  55.1490  0.00  0.00     0.000 OA
ATOM     73   O  A00 X   4      48.874  85.172  53.0550  0.00  0.00     0.000 O
ATOM     74   O  A00 X   4      50.322  84.324  54.7840  0.00  0.00     0.000 OA
ATOM     75   S  A00 X   4      49.118  85.067  54.6010  0.00  0.00     0.000 S
ENDBRANCH 62 70
ENDBRANCH 57 61
ENDBRANCH 41 57
ENDBRANCH 40 44
ENDBRANCH 20 40
ENDBRANCH 19 23
ENDBRANCH 1 19
TORSDOF 14
ENDMDL
MODEL 39
REMARK VINA RESULT:       0.0    119.186    124.311
ROOT
ATOM      1  C1  A00 X   1      42.359  28.281 131.5230  0.00  0.00     0.000 C
ATOM      2  C2  A00 X   1      40.909  27.768 131.3130  0.00  0.00     0.000 C
ATOM      3  C3  A00 X   1      40.766  26.380 130.6050  0.00  0.00     0.000 C
ATOM      4  C4  A00 X   1      42.037  25.866 129.8810  0.00  0.00     0.000 C
ATOM      5  C5  A00 X   1      42.996  27.000 129.5230  0.00  0.00     0.000 C
ATOM      6  O5  A00 X   1      43.387  27.566 130.7940  0.00  0.00     0.000 O
ATOM      7   O  A00 X   1      39.746  26.475 129.6150  0.00  0.00     0.000 O
ATOM      9  HD  A00 X   1      40.393  26.013 129.2710  0.00  0.00     0.000 HD
ATOM      9   O  A00 X   1      42.720  24.884 130.6600  0.00  0.00     0.000 O
ATOM     11  HD  A00 X   1      43.367  24.422 130.3160  0.00  0.00     0.000 HD
ENDROOT
BRANCH 2 11
ATOM     11   O  A00 X   1      40.275  27.703 132.6060  0.00  0.00     0.000 O
ATOM     12   O  A00 X   1      37.964  27.101 132.8580  0.00  0.00     0.000 OA
ATOM     13   O  A00 X   1      38.539  29.142 131.6660  0.00  0.00     0.000 OA
ATOM     14   O  A00 X   1      38.908  28.971 134.0100  0.00  0.00     0.000 OA
ATOM     15   S  A00 X   1      38.818  28.258 132.7650  0.00  0.00     0.000 S
ENDBRANCH 2 11
BRANCH 5 16
ATOM     16   C  A00 X   1      42.439  28.033 128.5370  0.00  0.00     0.000 C
ATOM     17   O  A00 X   1      43.061  29.061 128.3600  0.00  0.00     0.000 OA
ATOM     18   O  A00 X   1      41.405  27.858 127.9250  0.00  0.00     0.000 OA
ENDBRANCH 5 16
BRANCH 1 19
ATOM     19  O4  A00 X   2      42.480  29.713 131.3400  0.00  0.00     0.000 O
BRANCH 19 23
ATOM     20  C1  A00 X   2      45.360  30.179 134.4790  0.00  0.00     0.000 C
ATOM     21  C2  A00 X   2      43.881  30.490 134.8140  0.00  0.00     0.000 C
ATOM     22  C3  A00 X   2      42.937  29.876 133.7580  0.00  0.00     0.000 C
ATOM     23  C4  A00 X   2      43.340  30.333 132.3380  0.00  0.00     0.000 C
ATOM     24  C5  A00 X   2      44.839  29.984 132.1340  0.00  0.00     0.000 C
ATOM     25  O5  A00 X   2      45.622  30.678 133.1400  0.00  0.00     0.000 O
ATOM     26   O  A00 X   2      41.578  30.132 134.1500  0.00  0.00     0.000 O
ATOM     28  HD  A00 X   2      41.720  30.977 134.2730  0.00  0.00     0.000 HD
BRANCH 21 30
ATOM     28   N  A00 X   2      44.346  31.548 135.7160  0.00  0.00     0.000 N
ATOM     30  HD  A00 X   2      43.518  31.395 135.9160  0.00  0.00     0.000 HD
ATOM     30   O  A00 X   2      42.825  31.721 137.4810  0.00  0.00     0.000 OA
ATOM     31   S  A00 X   2      43.276  32.501 136.3830  0.00  0.00     0.000 S
ATOM     32   O  A00 X   2      44.032  33.662 136.7380  0.00  0.00     0.000 OA
ATOM     33   O  A00 X   2      42.310  32.824 135.3760  0.00  0.00     0.000 OA
ENDBRANCH 21 30
BRANCH 24 34
ATOM     34   C  A00 X   2      45.431  30.129 130.7120  0.00  0.00     0.000 C
ATOM     35   O  A00 X   2      45.447  33.237 128.8160  0.00  0.00     0.000 OA
ATOM     36   O  A00 X   2      44.987  31.348 130.0830  0.00  0.00     0.000 O
ATOM     37   O  A00 X   2      46.374  33.004 130.9790  0.00  0.00     0.000 OA
ATOM     38   S  A00 X   2      46.126  32.369 129.7210  0.00  0.00     0.000 S
ATOM     39   O  A00 X   2      47.189  31.603 129.1440  0.00  0.00     0.000 OA
ENDBRANCH 24 34
BRANCH 20 40
ATOM     40  O4  A00 X   3      45.467  28.748 134.4870  0.00  0.00     0.000 O
BRANCH 40 44
ATOM     41  C1  A00 X   3      46.742  25.776 132.8540  0.00  0.00     0.000 C
ATOM     42  C2  A00 X   3      45.870  25.775 134.1290  0.00  0.00     0.000 C
ATOM     43  C3  A00 X   3      46.450  26.737 135.1980  0.00  0.00     0.000 C
ATOM     44  C4  A00 X   3      46.760  28.138 134.6890  0.00  0.00     0.000 C
ATOM     45  C5  A00 X   3      47.642  28.057 133.4110  0.00  0.00     0.000 C
ATOM     46  O5  A00 X   3      47.064  27.131 132.4340  0.00  0.00     0.000 O
ATOM     47   O  A00 X   3      45.773  26.752 136.4540  0.00  0.00     0.000 O
ATOM     49  HD  A00 X   3      45.934  27.601 136.4030  0.00  0.00     0.000 HD
BRANCH 42 49
ATOM     49   O  A00 X   3      44.539  26.168 133.7310  0.00  0.00     0.000 O
ATOM     50   O  A00 X   3      42.451  26.573 134.8300  0.00  0.00     0.000 OA
ATOM     51   O  A00 X   3      43.757  24.723 135.5090  0.00  0.00     0.000 OA
ATOM     52   O  A00 X   3      42.763  24.676 133.3650  0.00  0.00     0.000 OA
ATOM     53   S  A00 X   3      43.294  25.506 134.3900  0.00  0.00     0.000 S
ENDBRANCH 42 49
BRANCH 45 54
ATOM     54   C  A00 X   3      49.104  27.740 133.7500  0.00  0.00     0.000 C
ATOM     55   O  A00 X   3      49.968  27.826 132.9020  0.00  0.00     0.000 OA
ATOM     56   O  A00 X   3      49.424  27.395 134.8770  0.00  0.00     0.000 OA
ENDBRANCH 45 54
BRANCH 41 57
ATOM     57  O4  A00 X   4      47.895  24.916 132.9950  0.00  0.00     0.000 O
BRANCH 57 61
ATOM     58  C1  A00 X   4      50.082  22.456 130.2020  0.00  0.00     0.000 C
ATOM     59  C2  A00 X   4      50.021  23.984 129.9540  0.00  0.00     0.000 C
ATOM     60  C3  A00 X   4      49.536  24.786 131.1790  0.00  0.00     0.000 C
ATOM     61  C4  A00 X   4      48.261  24.173 131.7970  0.00  0.00     0.000 C
ATOM     62  C5  A00 X   4      48.614  22.710 132.1610  0.00  0.00     0.000 C
ATOM     63  O5  A00 X   4      48.939  21.982 130.9490  0.00  0.00     0.000 O
BRANCH 59 66
ATOM     64   N  A00 X   4      49.062  24.299 128.8800  0.00  0.00     0.000 N
ATOM     66  HD  A00 X   4      48.399  23.755 128.7630  0.00  0.00     0.000 HD
ATOM     66   O  A00 X   4      50.798  23.744 127.3050  0.00  0.00     0.000 OA
ATOM     67   S  A00 X   4      49.633  24.567 127.4100  0.00  0.00     0.000 S
ATOM     68   O  A00 X   4      48.512  24.153 126.6170  0.00  0.00     0.000 OA
ATOM     69   O  A00 X   4      49.821  25.989 127.4660  0.00  0.00     0.000 OA
ENDBRANCH 59 66
BRANCH 62 70
ATOM     70   C  A00 X   4      47.485  21.953 132.9020  0.00  0.00     0.000 C
ATOM     71   O  A00 X   4      44.287  20.844 131.6190  0.00  0.00     0.000 OA
ATOM     72   O  A00 X   4      44.823  22.043 133.5720  0.00  0.00     0.000 OA
ATOM     73   O  A00 X   4      46.511  21.501 131.9470  0.00  0.00     0.000 O
ATOM     74   O  A00 X   4      44.864  23.176 131.4150  0.00  0.00     0.000 OA
ATOM     75   S  A00 X   4      45.024  21.959 132.1430  0.00  0.00     0.000 S
ENDBRANCH 62 70
ENDBRANCH 57 61
ENDBRANCH 41 57
ENDBRANCH 40 44
ENDBRANCH 20 40
ENDBRANCH 19 23
ENDBRANCH 1 19
TORSDOF 14
ENDMDL
MODEL 40
REMARK VINA RESULT:       0.0     90.937     94.597
ROOT
ATOM      1  C1  A00 X   1     100.693  96.796 119.0280  0.00  0.00     0.000 C
ATOM      2  C2  A00 X   1     101.402  97.205 117.7100  0.00  0.00     0.000 C
ATOM      3  C3  A00 X   1     100.477  97.751 116.5720  0.00  0.00     0.000 C
ATOM      4  C4  A00 X   1      98.962  97.477 116.7540  0.00  0.00     0.000 C
ATOM      5  C5  A00 X   1      98.696  96.292 117.6830  0.00  0.00     0.000 C
ATOM      6  O5  A00 X   1      99.249  96.694 118.9570  0.00  0.00     0.000 O
ATOM      7   O  A00 X   1     100.854  97.138 115.3420  0.00  0.00     0.000 O
ATOM      9  HD  A00 X   1      99.989  97.161 115.3610  0.00  0.00     0.000 HD
ATOM      9   O  A00 X   1      98.277  98.632 117.2380  0.00  0.00     0.000 O
ATOM     11  HD  A00 X   1      97.411  98.655 117.2560  0.00  0.00     0.000 HD
ENDROOT
BRANCH 2 11
ATOM     11   O  A00 X   1     102.387  98.205 118.0340  0.00  0.00     0.000 O
ATOM     12   O  A00 X   1     103.628  99.363 116.3350  0.00  0.00     0.000 OA
ATOM     13   O  A00 X   1     103.914  96.961 116.5890  0.00  0.00     0.000 OA
ATOM     14   O  A00 X   1     104.697  98.453 118.2680  0.00  0.00     0.000 OA
ATOM     15   S  A00 X   1     103.730  98.236 117.2260  0.00  0.00     0.000 S
ENDBRANCH 2 11
BRANCH 5 16
ATOM     16   C  A00 X   1      99.227  94.945 117.1830  0.00  0.00     0.000 C
ATOM     17   O  A00 X   1      99.245  94.006 117.9510  0.00  0.00     0.000 OA
ATOM     18   O  A00 X   1      99.622  94.782 116.0460  0.00  0.00     0.000 OA
ENDBRANCH 5 16
BRANCH 1 19
ATOM     19  O4  A00 X   2     101.276  95.618 119.6370  0.00  0.00     0.000 O
BRANCH 19 23
ATOM     20  C1  A00 X   2     100.891  97.120 123.6320  0.00  0.00     0.000 C
ATOM     21  C2  A00 X   2     102.271  97.262 122.9450  0.00  0.00     0.000 C
ATOM     22  C3  A00 X   2     102.145  97.088 121.4170  0.00  0.00     0.000 C
ATOM     23  C4  A00 X   2     101.439  95.756 121.0770  0.00  0.00     0.000 C
ATOM     24  C5  A00 X   2     100.085  95.729 121.8370  0.00  0.00     0.000 C
ATOM     25  O5  A00 X   2     100.346  95.826 123.2620  0.00  0.00     0.000 O
ATOM     26   O  A00 X   2     103.436  97.297 120.8210  0.00  0.00     0.000 O
ATOM     28  HD  A00 X   2     103.831  96.748 121.3630  0.00  0.00     0.000 HD
BRANCH 21 30
ATOM     28   N  A00 X   2     102.902  97.053 124.2520  0.00  0.00     0.000 N
ATOM     30  HD  A00 X   2     103.510  97.380 123.7300  0.00  0.00     0.000 HD
ATOM     30   O  A00 X   2     104.898  98.265 124.2990  0.00  0.00     0.000 OA
ATOM     31   S  A00 X   2     104.474  96.910 124.3210  0.00  0.00     0.000 S
ATOM     32   O  A00 X   2     104.698  96.228 125.5580  0.00  0.00     0.000 OA
ATOM     33   O  A00 X   2     104.874  96.087 123.2190  0.00  0.00     0.000 OA
ENDBRANCH 21 30
BRANCH 24 34
ATOM     34   C  A00 X   2      99.080  94.605 121.4890  0.00  0.00     0.000 C
ATOM     35   O  A00 X   2      99.821  91.051 121.7580  0.00  0.00     0.000 OA
ATOM     36   O  A00 X   2      99.746  93.334 121.3490  0.00  0.00     0.000 O
ATOM     37   O  A00 X   2     100.035  92.584 123.5460  0.00  0.00     0.000 OA
ATOM     38   S  A00 X   2      99.298  92.227 122.3720  0.00  0.00     0.000 S
ATOM     39   O  A00 X   2      97.869  92.292 122.4410  0.00  0.00     0.000 OA
ENDBRANCH 24 34
BRANCH 20 40
ATOM     40  O4  A00 X   3     100.074  98.161 123.0780  0.00  0.00     0.000 O
BRANCH 40 44
ATOM     41  C1  A00 X   3      96.855  99.109 121.7120  0.00  0.00     0.000 C
ATOM     42  C2  A00 X   3      98.070 100.053 121.8380  0.00  0.00     0.000 C
ATOM     43  C3  A00 X   3      98.652 100.021 123.2740  0.00  0.00     0.000 C
ATOM     44  C4  A00 X   3      98.923  98.624 123.8170  0.00  0.00     0.000 C
ATOM     45  C5  A00 X   3      97.655  97.737 123.6610  0.00  0.00     0.000 C
ATOM     46  O5  A00 X   3      97.135  97.805 122.2940  0.00  0.00     0.000 O
ATOM     47   O  A00 X   3      99.727 100.922 123.5310  0.00  0.00     0.000 O
ATOM     49  HD  A00 X   3     100.030 100.253 123.9890  0.00  0.00     0.000 HD
BRANCH 42 49
ATOM     49   O  A00 X   3      99.045  99.620 120.8640  0.00  0.00     0.000 O
ATOM     50   O  A00 X   3     101.260 100.264 120.2240  0.00  0.00     0.000 OA
ATOM     51   O  A00 X   3      99.671 101.951 120.6940  0.00  0.00     0.000 OA
ATOM     52   O  A00 X   3      99.365 100.621 118.7640  0.00  0.00     0.000 OA
ATOM     53   S  A00 X   3      99.895 100.664 120.0840  0.00  0.00     0.000 S
ENDBRANCH 42 49
BRANCH 45 54
ATOM     54   C  A00 X   3      96.600  98.063 124.7250  0.00  0.00     0.000 C
ATOM     55   O  A00 X   3      95.592  97.393 124.8220  0.00  0.00     0.000 OA
ATOM     56   O  A00 X   3      96.754  99.001 125.4920  0.00  0.00     0.000 OA
ENDBRANCH 45 54
BRANCH 41 57
ATOM     57  O4  A00 X   4      95.646  99.726 122.2090  0.00  0.00     0.000 O
BRANCH 57 61
ATOM     58  C1  A00 X   4      91.503  99.444 121.0270  0.00  0.00     0.000 C
ATOM     59  C2  A00 X   4      92.221  98.165 121.5240  0.00  0.00     0.000 C
ATOM     60  C3  A00 X   4      93.553  98.449 122.2470  0.00  0.00     0.000 C
ATOM     61  C4  A00 X   4      94.442  99.426 121.4470  0.00  0.00     0.000 C
ATOM     62  C5  A00 X   4      93.602 100.712 121.2450  0.00  0.00     0.000 C
ATOM     63  O5  A00 X   4      92.429 100.396 120.4530  0.00  0.00     0.000 O
BRANCH 59 66
ATOM     64   N  A00 X   4      92.570  97.298 120.3840  0.00  0.00     0.000 N
ATOM     66  HD  A00 X   4      92.706  97.680 119.6190  0.00  0.00     0.000 HD
ATOM     66   O  A00 X   4      90.306  96.480 120.4430  0.00  0.00     0.000 OA
ATOM     67   S  A00 X   4      91.615  96.057 120.0570  0.00  0.00     0.000 S
ATOM     68   O  A00 X   4      91.832  95.930 118.6450  0.00  0.00     0.000 OA
ATOM     69   O  A00 X   4      92.249  95.036 120.8430  0.00  0.00     0.000 OA
ENDBRANCH 59 66
BRANCH 62 70
ATOM     70   C  A00 X   4      94.367 101.864 120.5520  0.00  0.00     0.000 C
ATOM     71   O  A00 X   4      95.496 102.085 117.1190  0.00  0.00     0.000 OA
ATOM     72   O  A00 X   4      96.640 102.483 119.1390  0.00  0.00     0.000 OA
ATOM     73   O  A00 X   4      94.389 101.634 119.1340  0.00  0.00     0.000 O
ATOM     74   O  A00 X   4      96.191 100.192 118.4410  0.00  0.00     0.000 OA
ATOM     75   S  A00 X   4      95.786 101.561 118.4240  0.00  0.00     0.000 S
ENDBRANCH 62 70
ENDBRANCH 57 61
ENDBRANCH 41 57
ENDBRANCH 40 44
ENDBRANCH 20 40
ENDBRANCH 19 23
ENDBRANCH 1 19
TORSDOF 14
ENDMDL
MODEL 41
REMARK VINA RESULT:       0.0     86.681     91.434
ROOT
ATOM      1  C1  A00 X   1     129.902 120.642  74.6550  0.00  0.00     0.000 C
ATOM      2  C2  A00 X   1     128.960 120.702  73.4220  0.00  0.00     0.000 C
ATOM      3  C3  A00 X   1     128.750 122.116  72.7860  0.00  0.00     0.000 C
ATOM      4  C4  A00 X   1     129.196 123.316  73.6610  0.00  0.00     0.000 C
ATOM      5  C5  A00 X   1     129.244 122.960  75.1470  0.00  0.00     0.000 C
ATOM      6  O5  A00 X   1     130.244 121.922  75.2440  0.00  0.00     0.000 O
ATOM      7   O  A00 X   1     127.360 122.298  72.5260  0.00  0.00     0.000 O
ATOM      9  HD  A00 X   1     127.661 123.046  72.8430  0.00  0.00     0.000 HD
ATOM      9   O  A00 X   1     130.464 123.822  73.2450  0.00  0.00     0.000 O
ATOM     11  HD  A00 X   1     130.765 124.570  73.5620  0.00  0.00     0.000 HD
ENDROOT
BRANCH 2 11
ATOM     11   O  A00 X   1     129.491 119.811  72.4220  0.00  0.00     0.000 O
ATOM     12   O  A00 X   1     128.304 119.333  70.3900  0.00  0.00     0.000 OA
ATOM     13   O  A00 X   1     127.341 118.656  72.5180  0.00  0.00     0.000 OA
ATOM     14   O  A00 X   1     129.307 117.600  71.6960  0.00  0.00     0.000 OA
ATOM     15   S  A00 X   1     128.521 118.804  71.7130  0.00  0.00     0.000 S
ENDBRANCH 2 11
BRANCH 5 16
ATOM     16   C  A00 X   1     127.896 122.573  75.7640  0.00  0.00     0.000 C
ATOM     17   O  A00 X   1     127.883 122.096  76.8800  0.00  0.00     0.000 OA
ATOM     18   O  A00 X   1     126.842 122.733  75.1810  0.00  0.00     0.000 OA
ENDBRANCH 5 16
BRANCH 1 19
ATOM     19  O4  A00 X   2     129.451 119.702  75.6600  0.00  0.00     0.000 O
BRANCH 19 23
ATOM     20  C1  A00 X   2     133.416 118.475  76.7270  0.00  0.00     0.000 C
ATOM     21  C2  A00 X   2     132.630 117.575  75.7430  0.00  0.00     0.000 C
ATOM     22  C3  A00 X   2     131.439 118.341  75.1300  0.00  0.00     0.000 C
ATOM     23  C4  A00 X   2     130.546 118.937  76.2410  0.00  0.00     0.000 C
ATOM     24  C5  A00 X   2     131.450 119.798  77.1650  0.00  0.00     0.000 C
ATOM     25  O5  A00 X   2     132.481 118.949  77.7330  0.00  0.00     0.000 O
ATOM     26   O  A00 X   2     130.785 117.488  74.1750  0.00  0.00     0.000 O
ATOM     28  HD  A00 X   2     130.730 116.824  74.7300  0.00  0.00     0.000 HD
BRANCH 21 30
ATOM     28   N  A00 X   2     133.285 116.410  76.3460  0.00  0.00     0.000 N
ATOM     30  HD  A00 X   2     132.943 116.145  75.5950  0.00  0.00     0.000 HD
ATOM     30   O  A00 X   2     133.539 114.781  74.6900  0.00  0.00     0.000 OA
ATOM     31   S  A00 X   2     132.822 114.965  75.9020  0.00  0.00     0.000 S
ATOM     32   O  A00 X   2     133.239 114.128  76.9840  0.00  0.00     0.000 OA
ATOM     33   O  A00 X   2     131.392 114.988  75.8130  0.00  0.00     0.000 OA
ENDBRANCH 21 30
BRANCH 24 34
ATOM     34   C  A00 X   2     130.763 120.692  78.2250  0.00  0.00     0.000 C
ATOM     35   O  A00 X   2     131.208 120.309  81.8180  0.00  0.00     0.000 OA
ATOM     36   O  A00 X   2     130.836 120.099  79.5360  0.00  0.00     0.000 O
ATOM     37   O  A00 X   2     132.988 120.620  80.2920  0.00  0.00     0.000 OA
ATOM     38   S  A00 X   2     131.628 120.935  80.6070  0.00  0.00     0.000 S
ATOM     39   O  A00 X   2     131.208 122.295  80.4500  0.00  0.00     0.000 OA
ENDBRANCH 24 34
BRANCH 20 40
ATOM     40  O4  A00 X   3     133.885 119.585  75.9480  0.00  0.00     0.000 O
BRANCH 40 44
ATOM     41  C1  A00 X   3     134.418 123.158  75.6750  0.00  0.00     0.000 C
ATOM     42  C2  A00 X   3     134.749 122.131  74.5700  0.00  0.00     0.000 C
ATOM     43  C3  A00 X   3     135.602 120.965  75.1320  0.00  0.00     0.000 C
ATOM     44  C4  A00 X   3     135.042 120.323  76.3950  0.00  0.00     0.000 C
ATOM     45  C5  A00 X   3     134.740 121.416  77.4590  0.00  0.00     0.000 C
ATOM     46  O5  A00 X   3     133.943 122.500  76.8830  0.00  0.00     0.000 O
ATOM     47   O  A00 X   3     136.041 119.999  74.1800  0.00  0.00     0.000 O
ATOM     49  HD  A00 X   3     135.866 119.449  74.8250  0.00  0.00     0.000 HD
BRANCH 42 49
ATOM     49   O  A00 X   3     133.491 121.658  74.0420  0.00  0.00     0.000 O
ATOM     50   O  A00 X   3     132.791 120.058  72.4040  0.00  0.00     0.000 OA
ATOM     51   O  A00 X   3     134.646 121.443  71.9260  0.00  0.00     0.000 OA
ATOM     52   O  A00 X   3     132.504 122.434  72.0570  0.00  0.00     0.000 OA
ATOM     53   S  A00 X   3     133.334 121.375  72.5190  0.00  0.00     0.000 S
ENDBRANCH 42 49
BRANCH 45 54
ATOM     54   C  A00 X   3     136.019 121.907  78.1470  0.00  0.00     0.000 C
ATOM     55   O  A00 X   3     135.961 122.667  79.0920  0.00  0.00     0.000 OA
ATOM     56   O  A00 X   3     137.118 121.545  77.7560  0.00  0.00     0.000 OA
ENDBRANCH 45 54
BRANCH 41 57
ATOM     57  O4  A00 X   4     135.513 124.074  75.8980  0.00  0.00     0.000 O
BRANCH 57 61
ATOM     58  C1  A00 X   4     135.677 128.238  77.0270  0.00  0.00     0.000 C
ATOM     59  C2  A00 X   4     135.032 127.228  78.0090  0.00  0.00     0.000 C
ATOM     60  C3  A00 X   4     135.349 125.757  77.6740  0.00  0.00     0.000 C
ATOM     61  C4  A00 X   4     135.122 125.448  76.1780  0.00  0.00     0.000 C
ATOM     62  C5  A00 X   4     136.021 126.433  75.3890  0.00  0.00     0.000 C
ATOM     63  O5  A00 X   4     135.588 127.791  75.6550  0.00  0.00     0.000 O
BRANCH 59 66
ATOM     64   N  A00 X   4     133.566 127.359  77.9290  0.00  0.00     0.000 N
ATOM     66  HD  A00 X   4     133.231 127.647  77.1840  0.00  0.00     0.000 HD
ATOM     66   O  A00 X   4     133.749 129.214  79.4550  0.00  0.00     0.000 OA
ATOM     67   S  A00 X   4     132.818 128.201  79.0640  0.00  0.00     0.000 S
ATOM     68   O  A00 X   4     131.675 128.663  78.3330  0.00  0.00     0.000 OA
ATOM     69   O  A00 X   4     132.531 127.157  80.0060  0.00  0.00     0.000 OA
ENDBRANCH 59 66
BRANCH 62 70
ATOM     70   C  A00 X   4     136.015 126.205  73.8590  0.00  0.00     0.000 C
ATOM     71   O  A00 X   4     133.334 126.781  71.4960  0.00  0.00     0.000 OA
ATOM     72   O  A00 X   4     134.722 124.906  71.8130  0.00  0.00     0.000 OA
ATOM     73   O  A00 X   4     134.835 126.798  73.2940  0.00  0.00     0.000 O
ATOM     74   O  A00 X   4     132.914 125.346  73.3870  0.00  0.00     0.000 OA
ATOM     75   S  A00 X   4     133.872 125.874  72.4700  0.00  0.00     0.000 S
ENDBRANCH 62 70
ENDBRANCH 57 61
ENDBRANCH 41 57
ENDBRANCH 40 44
ENDBRANCH 20 40
ENDBRANCH 19 23
ENDBRANCH 1 19
TORSDOF 14
ENDMDL
MODEL 42
REMARK VINA RESULT:       0.0    124.708    129.932
ROOT
ATOM      1  C1  A00 X   1      63.659  20.169 134.1470  0.00  0.00     0.000 C
ATOM      2  C2  A00 X   1      63.509  19.901 135.6690  0.00  0.00     0.000 C
ATOM      3  C3  A00 X   1      62.125  20.268 136.2990  0.00  0.00     0.000 C
ATOM      4  C4  A00 X   1      61.216  21.177 135.4320  0.00  0.00     0.000 C
ATOM      5  C5  A00 X   1      62.014  21.979 134.4040  0.00  0.00     0.000 C
ATOM      6  O5  A00 X   1      62.619  20.982 133.5500  0.00  0.00     0.000 O
ATOM      7   O  A00 X   1      62.349  20.966 137.5210  0.00  0.00     0.000 O
ATOM      9  HD  A00 X   1      61.698  21.366 137.1140  0.00  0.00     0.000 HD
ATOM      9   O  A00 X   1      60.200  20.422 134.7720  0.00  0.00     0.000 O
ATOM     11  HD  A00 X   1      59.549  20.822 134.3650  0.00  0.00     0.000 HD
ENDROOT
BRANCH 2 11
ATOM     11   O  A00 X   1      63.773  18.503 135.8960  0.00  0.00     0.000 O
ATOM     12   O  A00 X   1      63.433  17.479 138.0420  0.00  0.00     0.000 OA
ATOM     13   O  A00 X   1      65.119  19.216 137.8060  0.00  0.00     0.000 OA
ATOM     14   O  A00 X   1      65.420  17.096 136.7690  0.00  0.00     0.000 OA
ATOM     15   S  A00 X   1      64.468  18.070 137.2330  0.00  0.00     0.000 S
ENDBRANCH 2 11
BRANCH 5 16
ATOM     16   C  A00 X   1      63.020  22.971 134.9960  0.00  0.00     0.000 C
ATOM     17   O  A00 X   1      63.835  23.484 134.2560  0.00  0.00     0.000 OA
ATOM     18   O  A00 X   1      63.028  23.267 136.1740  0.00  0.00     0.000 OA
ENDBRANCH 5 16
BRANCH 1 19
ATOM     19  O4  A00 X   2      64.977  20.650 133.7890  0.00  0.00     0.000 O
BRANCH 19 23
ATOM     20  C1  A00 X   2      65.171  18.352 130.1770  0.00  0.00     0.000 C
ATOM     21  C2  A00 X   2      65.867  17.771 131.4310  0.00  0.00     0.000 C
ATOM     22  C3  A00 X   2      65.356  18.462 132.7120  0.00  0.00     0.000 C
ATOM     23  C4  A00 X   2      65.506  19.996 132.5990  0.00  0.00     0.000 C
ATOM     24  C5  A00 X   2      64.785  20.449 131.3000  0.00  0.00     0.000 C
ATOM     25  O5  A00 X   2      65.405  19.785 130.1670  0.00  0.00     0.000 O
ATOM     26   O  A00 X   2      65.980  17.843 133.8500  0.00  0.00     0.000 O
ATOM     28  HD  A00 X   2      66.776  17.916 133.5170  0.00  0.00     0.000 HD
BRANCH 21 30
ATOM     28   N  A00 X   2      66.898  17.209 130.5530  0.00  0.00     0.000 N
ATOM     30  HD  A00 X   2      66.974  16.809 131.3170  0.00  0.00     0.000 HD
ATOM     30   O  A00 X   2      67.667  15.223 131.5130  0.00  0.00     0.000 OA
ATOM     31   S  A00 X   2      68.160  16.519 131.2090  0.00  0.00     0.000 S
ATOM     32   O  A00 X   2      69.146  16.563 130.1750  0.00  0.00     0.000 OA
ATOM     33   O  A00 X   2      68.562  17.337 132.3150  0.00  0.00     0.000 OA
ENDBRANCH 21 30
BRANCH 24 34
ATOM     34   C  A00 X   2      64.590  21.966 131.0690  0.00  0.00     0.000 C
ATOM     35   O  A00 X   2      67.313  24.379 130.9390  0.00  0.00     0.000 OA
ATOM     36   O  A00 X   2      65.778  22.705 131.4170  0.00  0.00     0.000 O
ATOM     37   O  A00 X   2      67.177  22.463 129.5580  0.00  0.00     0.000 OA
ATOM     38   S  A00 X   2      66.447  23.493 130.2320  0.00  0.00     0.000 S
ATOM     39   O  A00 X   2      65.383  24.129 129.5160  0.00  0.00     0.000 OA
ENDBRANCH 24 34
BRANCH 20 40
ATOM     40  O4  A00 X   3      63.770  18.096 130.3570  0.00  0.00     0.000 O
BRANCH 40 44
ATOM     41  C1  A00 X   3      60.397  19.401 130.1640  0.00  0.00     0.000 C
ATOM     42  C2  A00 X   3      60.766  17.986 130.6590  0.00  0.00     0.000 C
ATOM     43  C3  A00 X   3      61.691  17.266 129.6450  0.00  0.00     0.000 C
ATOM     44  C4  A00 X   3      62.901  18.079 129.2040  0.00  0.00     0.000 C
ATOM     45  C5  A00 X   3      62.449  19.484 128.7150  0.00  0.00     0.000 C
ATOM     46  O5  A00 X   3      61.571  20.122 129.6980  0.00  0.00     0.000 O
ATOM     47   O  A00 X   3      62.027  15.916 129.9580  0.00  0.00     0.000 O
ATOM     49  HD  A00 X   3      62.800  16.156 129.6490  0.00  0.00     0.000 HD
BRANCH 42 49
ATOM     49   O  A00 X   3      61.410  18.142 131.9430  0.00  0.00     0.000 O
ATOM     50   O  A00 X   3      62.442  16.699 133.5500  0.00  0.00     0.000 OA
ATOM     51   O  A00 X   3      60.439  15.998 132.5080  0.00  0.00     0.000 OA
ATOM     52   O  A00 X   3      60.350  17.819 134.0130  0.00  0.00     0.000 OA
ATOM     53   S  A00 X   3      61.157  17.110 133.0800  0.00  0.00     0.000 S
ENDBRANCH 42 49
BRANCH 45 54
ATOM     54   C  A00 X   3      61.841  19.427 127.3090  0.00  0.00     0.000 C
ATOM     55   O  A00 X   3      61.579  18.361 126.7910  0.00  0.00     0.000 OA
ATOM     56   O  A00 X   3      61.610  20.452 126.6860  0.00  0.00     0.000 OA
ENDBRANCH 45 54
BRANCH 41 57
ATOM     57  O4  A00 X   4      59.312  19.366 129.2090  0.00  0.00     0.000 O
BRANCH 57 61
ATOM     58  C1  A00 X   4      56.067  22.080 128.3490  0.00  0.00     0.000 C
ATOM     59  C2  A00 X   4      57.521  22.582 128.1660  0.00  0.00     0.000 C
ATOM     60  C3  A00 X   4      58.565  21.447 128.1490  0.00  0.00     0.000 C
ATOM     61  C4  A00 X   4      58.357  20.460 129.3180  0.00  0.00     0.000 C
ATOM     62  C5  A00 X   4      56.910  19.923 129.1830  0.00  0.00     0.000 C
ATOM     63  O5  A00 X   4      55.978  21.024 129.3330  0.00  0.00     0.000 O
BRANCH 59 66
ATOM     64   N  A00 X   4      57.897  23.451 129.2950  0.00  0.00     0.000 N
ATOM     66  HD  A00 X   4      57.504  23.313 130.0540  0.00  0.00     0.000 HD
ATOM     66   O  A00 X   4      56.768  25.248 128.1590  0.00  0.00     0.000 OA
ATOM     67   S  A00 X   4      57.835  25.035 129.0860  0.00  0.00     0.000 S
ATOM     68   O  A00 X   4      57.580  25.464 130.4300  0.00  0.00     0.000 OA
ATOM     69   O  A00 X   4      59.175  25.283 128.6330  0.00  0.00     0.000 OA
ENDBRANCH 59 66
BRANCH 62 70
ATOM     70   C  A00 X   4      56.545  18.826 130.2110  0.00  0.00     0.000 C
ATOM     71   O  A00 X   4      56.073  19.144 133.7870  0.00  0.00     0.000 OA
ATOM     72   O  A00 X   4      57.350  17.610 132.5380  0.00  0.00     0.000 OA
ATOM     73   O  A00 X   4      56.219  19.442 131.4680  0.00  0.00     0.000 O
ATOM     74   O  A00 X   4      58.156  19.891 132.8280  0.00  0.00     0.000 OA
ATOM     75   S  A00 X   4      57.038  19.008 132.7320  0.00  0.00     0.000 S
ENDBRANCH 62 70
ENDBRANCH 57 61
ENDBRANCH 41 57
ENDBRANCH 40 44
ENDBRANCH 20 40
ENDBRANCH 19 23
ENDBRANCH 1 19
TORSDOF 14
ENDMDL
MODEL 43
REMARK VINA RESULT:       0.0     92.269     96.506
ROOT
ATOM      1  C1  A00 X   1     134.031  84.620  81.9270  0.00  0.00     0.000 C
ATOM      2  C2  A00 X   1     134.780  83.280  81.7050  0.00  0.00     0.000 C
ATOM      3  C3  A00 X   1     134.190  82.032  82.4420  0.00  0.00     0.000 C
ATOM      4  C4  A00 X   1     133.177  82.342  83.5740  0.00  0.00     0.000 C
ATOM      5  C5  A00 X   1     133.342  83.758  84.1250  0.00  0.00     0.000 C
ATOM      6  O5  A00 X   1     133.060  84.624  83.0030  0.00  0.00     0.000 O
ATOM      7   O  A00 X   1     135.260  81.308  83.0430  0.00  0.00     0.000 O
ATOM      9  HD  A00 X   1     134.607  81.317  83.6120  0.00  0.00     0.000 HD
ATOM      9   O  A00 X   1     131.832  82.148  83.1380  0.00  0.00     0.000 O
ATOM     11  HD  A00 X   1     131.179  82.158  83.7060  0.00  0.00     0.000 HD
ENDROOT
BRANCH 2 11
ATOM     11   O  A00 X   1     134.803  83.020  80.2880  0.00  0.00     0.000 O
ATOM     12   O  A00 X   1     135.604  80.942  79.3900  0.00  0.00     0.000 OA
ATOM     13   O  A00 X   1     137.145  82.394  80.5870  0.00  0.00     0.000 OA
ATOM     14   O  A00 X   1     136.271  83.046  78.4720  0.00  0.00     0.000 OA
ATOM     15   S  A00 X   1     136.043  82.285  79.6710  0.00  0.00     0.000 S
ENDBRANCH 2 11
BRANCH 5 16
ATOM     16   C  A00 X   1     134.692  84.040  84.7920  0.00  0.00     0.000 C
ATOM     17   O  A00 X   1     134.980  85.188  85.0600  0.00  0.00     0.000 OA
ATOM     18   O  A00 X   1     135.480  83.157  85.0680  0.00  0.00     0.000 OA
ENDBRANCH 5 16
BRANCH 1 19
ATOM     19  O4  A00 X   2     134.927  85.755  82.0210  0.00  0.00     0.000 O
BRANCH 19 23
ATOM     20  C1  A00 X   2     132.360  88.359  79.7870  0.00  0.00     0.000 C
ATOM     21  C2  A00 X   2     133.520  87.673  79.0250  0.00  0.00     0.000 C
ATOM     22  C3  A00 X   2     134.066  86.471  79.8230  0.00  0.00     0.000 C
ATOM     23  C4  A00 X   2     134.459  86.901  81.2540  0.00  0.00     0.000 C
ATOM     24  C5  A00 X   2     133.224  87.588  81.8990  0.00  0.00     0.000 C
ATOM     25  O5  A00 X   2     132.858  88.740  81.0970  0.00  0.00     0.000 O
ATOM     26   O  A00 X   2     135.090  85.828  79.0450  0.00  0.00     0.000 O
ATOM     28  HD  A00 X   2     135.511  86.570  78.8940  0.00  0.00     0.000 HD
BRANCH 21 30
ATOM     28   N  A00 X   2     133.644  88.880  78.2020  0.00  0.00     0.000 N
ATOM     30  HD  A00 X   2     134.075  88.252  77.7920  0.00  0.00     0.000 HD
ATOM     30   O  A00 X   2     134.362  88.239  76.0730  0.00  0.00     0.000 OA
ATOM     31   S  A00 X   2     134.847  88.982  77.1820  0.00  0.00     0.000 S
ATOM     32   O  A00 X   2     134.979  90.388  76.9540  0.00  0.00     0.000 OA
ATOM     33   O  A00 X   2     136.010  88.474  77.8460  0.00  0.00     0.000 OA
ENDBRANCH 21 30
BRANCH 24 34
ATOM     34   C  A00 X   2     133.280  87.907  83.4120  0.00  0.00     0.000 C
ATOM     35   O  A00 X   2     135.823  90.000  84.9640  0.00  0.00     0.000 OA
ATOM     36   O  A00 X   2     134.563  88.447  83.7860  0.00  0.00     0.000 O
ATOM     37   O  A00 X   2     134.447  90.701  83.1740  0.00  0.00     0.000 OA
ATOM     38   S  A00 X   2     134.533  89.909  84.3630  0.00  0.00     0.000 S
ATOM     39   O  A00 X   2     133.432  89.962  85.2770  0.00  0.00     0.000 OA
ENDBRANCH 24 34
BRANCH 20 40
ATOM     40  O4  A00 X   3     131.344  87.356  79.9320  0.00  0.00     0.000 O
BRANCH 40 44
ATOM     41  C1  A00 X   3     128.924  85.756  82.1010  0.00  0.00     0.000 C
ATOM     42  C2  A00 X   3     129.205  85.343  80.6400  0.00  0.00     0.000 C
ATOM     43  C3  A00 X   3     129.143  86.570  79.6950  0.00  0.00     0.000 C
ATOM     44  C4  A00 X   3     129.976  87.762  80.1490  0.00  0.00     0.000 C
ATOM     45  C5  A00 X   3     129.634  88.119  81.6230  0.00  0.00     0.000 C
ATOM     46  O5  A00 X   3     129.694  86.931  82.4770  0.00  0.00     0.000 O
ATOM     47   O  A00 X   3     129.302  86.294  78.3050  0.00  0.00     0.000 O
ATOM     49  HD  A00 X   3     129.758  87.030  78.3260  0.00  0.00     0.000 HD
BRANCH 42 49
ATOM     49   O  A00 X   3     130.510  84.725  80.6190  0.00  0.00     0.000 O
ATOM     50   O  A00 X   3     131.963  83.800  78.9550  0.00  0.00     0.000 OA
ATOM     51   O  A00 X   3     129.647  83.342  78.8310  0.00  0.00     0.000 OA
ATOM     52   O  A00 X   3     130.886  82.407  80.6130  0.00  0.00     0.000 OA
ATOM     53   S  A00 X   3     130.784  83.496  79.7040  0.00  0.00     0.000 S
ENDBRANCH 42 49
BRANCH 45 54
ATOM     54   C  A00 X   3     128.302  88.872  81.7300  0.00  0.00     0.000 C
ATOM     55   O  A00 X   3     127.990  89.434  82.7600  0.00  0.00     0.000 OA
ATOM     56   O  A00 X   3     127.532  88.918  80.7830  0.00  0.00     0.000 OA
ENDBRANCH 45 54
BRANCH 41 57
ATOM     57  O4  A00 X   4     127.507  85.875  82.3590  0.00  0.00     0.000 O
BRANCH 57 61
ATOM     58  C1  A00 X   4     125.089  85.173  85.8670  0.00  0.00     0.000 C
ATOM     59  C2  A00 X   4     126.194  86.257  85.9320  0.00  0.00     0.000 C
ATOM     60  C3  A00 X   4     126.737  86.667  84.5480  0.00  0.00     0.000 C
ATOM     61  C4  A00 X   4     127.080  85.437  83.6800  0.00  0.00     0.000 C
ATOM     62  C5  A00 X   4     125.779  84.602  83.5740  0.00  0.00     0.000 C
ATOM     63  O5  A00 X   4     125.396  84.146  84.8960  0.00  0.00     0.000 O
BRANCH 59 66
ATOM     64   N  A00 X   4     127.355  85.739  86.6780  0.00  0.00     0.000 N
ATOM     66  HD  A00 X   4     127.485  84.883  86.6700  0.00  0.00     0.000 HD
ATOM     66   O  A00 X   4     126.188  86.320  88.7030  0.00  0.00     0.000 OA
ATOM     67   S  A00 X   4     127.521  86.163  88.2110  0.00  0.00     0.000 S
ATOM     68   O  A00 X   4     128.235  85.027  88.7180  0.00  0.00     0.000 OA
ATOM     69   O  A00 X   4     128.323  87.344  88.0620  0.00  0.00     0.000 OA
ENDBRANCH 59 66
BRANCH 62 70
ATOM     70   C  A00 X   4     125.893  83.372  82.6430  0.00  0.00     0.000 C
ATOM     71   O  A00 X   4     127.809  80.338  83.1270  0.00  0.00     0.000 OA
ATOM     72   O  A00 X   4     127.665  81.782  81.2730  0.00  0.00     0.000 OA
ATOM     73   O  A00 X   4     126.557  82.307  83.3420  0.00  0.00     0.000 O
ATOM     74   O  A00 X   4     128.959  82.456  83.2250  0.00  0.00     0.000 OA
ATOM     75   S  A00 X   4     127.859  81.710  82.7040  0.00  0.00     0.000 S
ENDBRANCH 62 70
ENDBRANCH 57 61
ENDBRANCH 41 57
ENDBRANCH 40 44
ENDBRANCH 20 40
ENDBRANCH 19 23
ENDBRANCH 1 19
TORSDOF 14
ENDMDL
MODEL 44
REMARK VINA RESULT:       0.0     91.964     96.440
ROOT
ATOM      1  C1  A00 X   1     116.270  65.595  95.9560  0.00  0.00     0.000 C
ATOM      2  C2  A00 X   1     116.082  64.109  96.3610  0.00  0.00     0.000 C
ATOM      3  C3  A00 X   1     114.750  63.762  97.1050  0.00  0.00     0.000 C
ATOM      4  C4  A00 X   1     113.963  64.974  97.6660  0.00  0.00     0.000 C
ATOM      5  C5  A00 X   1     114.857  66.196  97.8770  0.00  0.00     0.000 C
ATOM      6  O5  A00 X   1     115.340  66.530  96.5560  0.00  0.00     0.000 O
ATOM      7   O  A00 X   1     115.052  62.925  98.2180  0.00  0.00     0.000 O
ATOM      9  HD  A00 X   1     114.456  63.495  98.4820  0.00  0.00     0.000 HD
ATOM      9   O  A00 X   1     112.866  65.320  96.8210  0.00  0.00     0.000 O
ATOM     11  HD  A00 X   1     112.270  65.891  97.0850  0.00  0.00     0.000 HD
ENDROOT
BRANCH 2 11
ATOM     11   O  A00 X   1     116.172  63.312  95.1640  0.00  0.00     0.000 O
ATOM     12   O  A00 X   1     115.679  60.962  95.1610  0.00  0.00     0.000 OA
ATOM     13   O  A00 X   1     117.566  61.781  96.4590  0.00  0.00     0.000 OA
ATOM     14   O  A00 X   1     117.624  61.838  94.0820  0.00  0.00     0.000 OA
ATOM     15   S  A00 X   1     116.790  61.875  95.2530  0.00  0.00     0.000 S
ENDBRANCH 2 11
BRANCH 5 16
ATOM     16   C  A00 X   1     115.975  66.010  98.9090  0.00  0.00     0.000 C
ATOM     17   O  A00 X   1     116.870  66.828  98.9500  0.00  0.00     0.000 OA
ATOM     18   O  A00 X   1     115.993  65.079  99.6900  0.00  0.00     0.000 OA
ENDBRANCH 5 16
BRANCH 1 19
ATOM     19  O4  A00 X   2     117.639  66.046  96.0980  0.00  0.00     0.000 O
BRANCH 19 23
ATOM     20  C1  A00 X   2     117.557  68.393  92.5130  0.00  0.00     0.000 C
ATOM     21  C2  A00 X   2     118.188  66.982  92.4290  0.00  0.00     0.000 C
ATOM     22  C3  A00 X   2     117.764  66.118  93.6350  0.00  0.00     0.000 C
ATOM     23  C4  A00 X   2     118.086  66.841  94.9620  0.00  0.00     0.000 C
ATOM     24  C5  A00 X   2     117.416  68.242  94.9140  0.00  0.00     0.000 C
ATOM     25  O5  A00 X   2     117.952  68.977  93.7830  0.00  0.00     0.000 O
ATOM     26   O  A00 X   2     118.318  64.801  93.4760  0.00  0.00     0.000 O
ATOM     28  HD  A00 X   2     119.116  65.100  93.3220  0.00  0.00     0.000 HD
BRANCH 21 30
ATOM     28   N  A00 X   2     119.145  67.509  91.4510  0.00  0.00     0.000 N
ATOM     30  HD  A00 X   2     119.179  66.645  91.3950  0.00  0.00     0.000 HD
ATOM     30   O  A00 X   2     119.688  65.789  89.9660  0.00  0.00     0.000 OA
ATOM     31   S  A00 X   2     120.323  66.575  90.9640  0.00  0.00     0.000 S
ATOM     32   O  A00 X   2     121.304  67.494  90.4750  0.00  0.00     0.000 OA
ATOM     33   O  A00 X   2     120.820  65.883  92.1160  0.00  0.00     0.000 OA
ENDBRANCH 21 30
BRANCH 24 34
ATOM     34   C  A00 X   2     117.392  69.080  96.2130  0.00  0.00     0.000 C
ATOM     35   O  A00 X   2     120.371  70.066  98.0610  0.00  0.00     0.000 OA
ATOM     36   O  A00 X   2     118.657  69.014  96.9010  0.00  0.00     0.000 O
ATOM     37   O  A00 X   2     120.015  70.548  95.7730  0.00  0.00     0.000 OA
ATOM     38   S  A00 X   2     119.408  70.386  97.0590  0.00  0.00     0.000 S
ATOM     39   O  A00 X   2     118.420  71.346  97.4520  0.00  0.00     0.000 OA
ENDBRANCH 24 34
BRANCH 20 40
ATOM     40  O4  A00 X   3     116.137  68.184  92.5010  0.00  0.00     0.000 O
BRANCH 40 44
ATOM     41  C1  A00 X   3     112.918  69.036  93.9270  0.00  0.00     0.000 C
ATOM     42  C2  A00 X   3     113.138  67.986  92.8170  0.00  0.00     0.000 C
ATOM     43  C3  A00 X   3     113.980  68.575  91.6560  0.00  0.00     0.000 C
ATOM     44  C4  A00 X   3     115.268  69.262  92.0920  0.00  0.00     0.000 C
ATOM     45  C5  A00 X   3     114.964  70.305  93.2050  0.00  0.00     0.000 C
ATOM     46  O5  A00 X   3     114.159  69.709  94.2730  0.00  0.00     0.000 O
ATOM     47   O  A00 X   3     114.175  67.719  90.5310  0.00  0.00     0.000 O
ATOM     49  HD  A00 X   3     114.968  68.067  90.5460  0.00  0.00     0.000 HD
BRANCH 42 49
ATOM     49   O  A00 X   3     113.799  66.856  93.4280  0.00  0.00     0.000 O
ATOM     50   O  A00 X   3     114.655  64.744  92.6940  0.00  0.00     0.000 OA
ATOM     51   O  A00 X   3     112.580  65.493  91.8420  0.00  0.00     0.000 OA
ATOM     52   O  A00 X   3     112.711  64.895  94.1250  0.00  0.00     0.000 OA
ATOM     53   S  A00 X   3     113.426  65.405  93.0060  0.00  0.00     0.000 S
ENDBRANCH 42 49
BRANCH 45 54
ATOM     54   C  A00 X   3     114.349  71.586  92.6290  0.00  0.00     0.000 C
ATOM     55   O  A00 X   3     114.213  72.573  93.3220  0.00  0.00     0.000 OA
ATOM     56   O  A00 X   3     113.983  71.635  91.4650  0.00  0.00     0.000 OA
ENDBRANCH 45 54
BRANCH 41 57
ATOM     57  O4  A00 X   4     111.833  69.935  93.6040  0.00  0.00     0.000 O
BRANCH 57 61
ATOM     58  C1  A00 X   4     108.891  71.973  96.0190  0.00  0.00     0.000 C
ATOM     59  C2  A00 X   4     110.391  72.275  96.2650  0.00  0.00     0.000 C
ATOM     60  C3  A00 X   4     111.311  71.781  95.1310  0.00  0.00     0.000 C
ATOM     61  C4  A00 X   4     110.996  70.323  94.7300  0.00  0.00     0.000 C
ATOM     62  C5  A00 X   4     109.502  70.297  94.3220  0.00  0.00     0.000 C
ATOM     63  O5  A00 X   4     108.688  70.651  95.4690  0.00  0.00     0.000 O
BRANCH 59 66
ATOM     64   N  A00 X   4     110.876  71.593  97.4780  0.00  0.00     0.000 N
ATOM     66  HD  A00 X   4     110.484  70.855  97.7060  0.00  0.00     0.000 HD
ATOM     66   O  A00 X   4     109.919  73.397  98.7540  0.00  0.00     0.000 OA
ATOM     67   S  A00 X   4     110.975  72.437  98.8330  0.00  0.00     0.000 S
ATOM     68   O  A00 X   4     110.790  71.395  99.8010  0.00  0.00     0.000 OA
ATOM     69   O  A00 X   4     112.324  72.916  98.7350  0.00  0.00     0.000 OA
ENDBRANCH 59 66
BRANCH 62 70
ATOM     70   C  A00 X   4     109.019  68.931  93.7790  0.00  0.00     0.000 C
ATOM     71   O  A00 X   4     108.568  65.817  95.5690  0.00  0.00     0.000 OA
ATOM     72   O  A00 X   4     109.682  66.276  93.5460  0.00  0.00     0.000 OA
ATOM     73   O  A00 X   4     108.754  68.049  94.8810  0.00  0.00     0.000 O
ATOM     74   O  A00 X   4     110.721  66.898  95.6610  0.00  0.00     0.000 OA
ATOM     75   S  A00 X   4     109.518  66.680  94.9250  0.00  0.00     0.000 S
ENDBRANCH 62 70
ENDBRANCH 57 61
ENDBRANCH 41 57
ENDBRANCH 40 44
ENDBRANCH 20 40
ENDBRANCH 19 23
ENDBRANCH 1 19
TORSDOF 14
ENDMDL
MODEL 45
REMARK VINA RESULT:       0.0     25.169     30.160
ROOT
ATOM      1  C1  A00 X   1      40.252 110.572  72.1600  0.00  0.00     0.000 C
ATOM      2  C2  A00 X   1      40.598 112.046  72.4990  0.00  0.00     0.000 C
ATOM      3  C3  A00 X   1      42.104 112.447  72.3620  0.00  0.00     0.000 C
ATOM      4  C4  A00 X   1      43.105 111.266  72.2700  0.00  0.00     0.000 C
ATOM      5  C5  A00 X   1      42.533 109.978  72.8610  0.00  0.00     0.000 C
ATOM      6  O5  A00 X   1      41.383 109.675  72.0390  0.00  0.00     0.000 O
ATOM      7   O  A00 X   1      42.481 113.208  73.5080  0.00  0.00     0.000 O
ATOM      9  HD  A00 X   1      43.135 112.667  73.3340  0.00  0.00     0.000 HD
ATOM      9   O  A00 X   1      43.518 111.037  70.9230  0.00  0.00     0.000 O
ATOM     11  HD  A00 X   1      44.172 110.497  70.7490  0.00  0.00     0.000 HD
ENDROOT
BRANCH 2 11
ATOM     11   O  A00 X   1      39.808 112.891  71.6390  0.00  0.00     0.000 O
ATOM     12   O  A00 X   1      39.900 115.287  71.7800  0.00  0.00     0.000 OA
ATOM     13   O  A00 X   1      39.058 114.014  73.6740  0.00  0.00     0.000 OA
ATOM     14   O  A00 X   1      37.820 114.116  71.6450  0.00  0.00     0.000 OA
ATOM     15   S  A00 X   1      39.126 114.164  72.2470  0.00  0.00     0.000 S
ENDBRANCH 2 11
BRANCH 5 16
ATOM     16   C  A00 X   1      42.216 110.037  74.3590  0.00  0.00     0.000 C
ATOM     17   O  A00 X   1      41.594 109.122  74.8580  0.00  0.00     0.000 OA
ATOM     18   O  A00 X   1      42.571 110.961  75.0640  0.00  0.00     0.000 OA
ENDBRANCH 5 16
BRANCH 1 19
ATOM     19  O4  A00 X   2      39.232 110.021  73.0290  0.00  0.00     0.000 O
BRANCH 19 23
ATOM     20  C1  A00 X   2      37.368 107.748  69.9120  0.00  0.00     0.000 C
ATOM     21  C2  A00 X   2      36.741 109.117  70.2700  0.00  0.00     0.000 C
ATOM     22  C3  A00 X   2      37.736 109.985  71.0680  0.00  0.00     0.000 C
ATOM     23  C4  A00 X   2      38.255 109.220  72.3060  0.00  0.00     0.000 C
ATOM     24  C5  A00 X   2      38.838 107.866  71.8170  0.00  0.00     0.000 C
ATOM     25  O5  A00 X   2      37.788 107.117  71.1510  0.00  0.00     0.000 O
ATOM     26   O  A00 X   2      37.134 111.267  71.3160  0.00  0.00     0.000 O
ATOM     28  HD  A00 X   2      36.403 110.920  71.6250  0.00  0.00     0.000 HD
BRANCH 21 30
ATOM     28   N  A00 X   2      35.421 108.547  69.9790  0.00  0.00     0.000 N
ATOM     30  HD  A00 X   2      35.325 109.407  69.9950  0.00  0.00     0.000 HD
ATOM     30   O  A00 X   2      34.059 110.254  69.1500  0.00  0.00     0.000 OA
ATOM     31   S  A00 X   2      34.136 109.412  70.2900  0.00  0.00     0.000 S
ATOM     32   O  A00 X   2      33.091 108.441  70.3960  0.00  0.00     0.000 OA
ATOM     33   O  A00 X   2      34.351 110.050  71.5550  0.00  0.00     0.000 OA
ENDBRANCH 21 30
BRANCH 24 34
ATOM     34   C  A00 X   2      39.631 107.008  72.8320  0.00  0.00     0.000 C
ATOM     35   O  A00 X   2      38.642 103.668  73.8920  0.00  0.00     0.000 OA
ATOM     36   O  A00 X   2      38.836 105.910  73.3210  0.00  0.00     0.000 O
ATOM     37   O  A00 X   2      38.976 104.293  71.6360  0.00  0.00     0.000 OA
ATOM     38   S  A00 X   2      39.396 104.477  72.9910  0.00  0.00     0.000 S
ATOM     39   O  A00 X   2      40.803 104.524  73.2500  0.00  0.00     0.000 OA
ENDBRANCH 24 34
BRANCH 20 40
ATOM     40  O4  A00 X   3      38.520 108.047  69.1110  0.00  0.00     0.000 O
BRANCH 40 44
ATOM     41  C1  A00 X   3      41.997 107.382  68.3390  0.00  0.00     0.000 C
ATOM     42  C2  A00 X   3      41.127 108.447  67.6360  0.00  0.00     0.000 C
ATOM     43  C3  A00 X   3      39.790 107.836  67.1450  0.00  0.00     0.000 C
ATOM     44  C4  A00 X   3      39.028 107.046  68.2020  0.00  0.00     0.000 C
ATOM     45  C5  A00 X   3      39.966 105.994  68.8590  0.00  0.00     0.000 C
ATOM     46  O5  A00 X   3      41.219 106.613  69.2970  0.00  0.00     0.000 O
ATOM     47   O  A00 X   3      38.941 108.710  66.4030  0.00  0.00     0.000 O
ATOM     49  HD  A00 X   3      38.321 108.306  66.8530  0.00  0.00     0.000 HD
BRANCH 42 49
ATOM     49   O  A00 X   3      40.904 109.508  68.5900  0.00  0.00     0.000 O
ATOM     50   O  A00 X   3      39.683 111.567  68.6390  0.00  0.00     0.000 OA
ATOM     51   O  A00 X   3      40.884 110.998  66.6830  0.00  0.00     0.000 OA
ATOM     52   O  A00 X   3      42.101 111.528  68.6390  0.00  0.00     0.000 OA
ATOM     53   S  A00 X   3      40.887 110.994  68.1250  0.00  0.00     0.000 S
ENDBRANCH 42 49
BRANCH 45 54
ATOM     54   C  A00 X   3      40.179 104.778  67.9490  0.00  0.00     0.000 C
ATOM     55   O  A00 X   3      40.757 103.792  68.3600  0.00  0.00     0.000 OA
ATOM     56   O  A00 X   3      39.774 104.780  66.7970  0.00  0.00     0.000 OA
ENDBRANCH 45 54
BRANCH 41 57
ATOM     57  O4  A00 X   4      42.723 106.573  67.3870  0.00  0.00     0.000 O
BRANCH 57 61
ATOM     58  C1  A00 X   4      46.605 104.688  67.4870  0.00  0.00     0.000 C
ATOM     59  C2  A00 X   4      45.540 104.246  68.5210  0.00  0.00     0.000 C
ATOM     60  C3  A00 X   4      44.112 104.711  68.1690  0.00  0.00     0.000 C
ATOM     61  C4  A00 X   4      44.073 106.207  67.7890  0.00  0.00     0.000 C
ATOM     62  C5  A00 X   4      45.052 106.380  66.6020  0.00  0.00     0.000 C
ATOM     63  O5  A00 X   4      46.395 106.046  67.0380  0.00  0.00     0.000 O
BRANCH 59 66
ATOM     64   N  A00 X   4      45.820 104.830  69.8460  0.00  0.00     0.000 N
ATOM     66  HD  A00 X   4      46.240 105.587  69.8690  0.00  0.00     0.000 HD
ATOM     66   O  A00 X   4      47.414 103.056  70.1790  0.00  0.00     0.000 OA
ATOM     67   S  A00 X   4      46.560 103.920  70.9330  0.00  0.00     0.000 S
ATOM     68   O  A00 X   4      47.227 104.928  71.7030  0.00  0.00     0.000 OA
ATOM     69   O  A00 X   4      45.425 103.334  71.5880  0.00  0.00     0.000 OA
ENDBRANCH 59 66
BRANCH 62 70
ATOM     70   C  A00 X   4      45.071 107.807  66.0020  0.00  0.00     0.000 C
ATOM     71   O  A00 X   4      46.350 110.860  67.4670  0.00  0.00     0.000 OA
ATOM     72   O  A00 X   4      44.287 110.404  66.4290  0.00  0.00     0.000 OA
ATOM     73   O  A00 X   4      45.892 108.656  66.8210  0.00  0.00     0.000 O
ATOM     74   O  A00 X   4      44.700 109.597  68.6910  0.00  0.00     0.000 OA
ATOM     75   S  A00 X   4      45.240 109.951  67.4180  0.00  0.00     0.000 S
ENDBRANCH 62 70
ENDBRANCH 57 61
ENDBRANCH 41 57
ENDBRANCH 40 44
ENDBRANCH 20 40
ENDBRANCH 19 23
ENDBRANCH 1 19
TORSDOF 14
ENDMDL
MODEL 46
REMARK VINA RESULT:       0.0    106.398    111.156
ROOT
ATOM      1  C1  A00 X   1      69.888  46.081 126.1030  0.00  0.00     0.000 C
ATOM      2  C2  A00 X   1      71.335  46.574 126.3710  0.00  0.00     0.000 C
ATOM      3  C3  A00 X   1      71.832  46.474 127.8510  0.00  0.00     0.000 C
ATOM      4  C4  A00 X   1      70.726  46.252 128.9140  0.00  0.00     0.000 C
ATOM      5  C5  A00 X   1      69.352  46.704 128.4210  0.00  0.00     0.000 C
ATOM      6  O5  A00 X   1      69.074  45.859 127.2820  0.00  0.00     0.000 O
ATOM      7   O  A00 X   1      72.486  47.693 128.1960  0.00  0.00     0.000 O
ATOM      9  HD  A00 X   1      72.005  47.460 128.8770  0.00  0.00     0.000 HD
ATOM      9   O  A00 X   1      70.665  44.886 129.3250  0.00  0.00     0.000 O
ATOM     11  HD  A00 X   1      70.184  44.652 130.0060  0.00  0.00     0.000 HD
ENDROOT
BRANCH 2 11
ATOM     11   O  A00 X   1      72.220  45.813 125.5260  0.00  0.00     0.000 O
ATOM     12   O  A00 X   1      74.581  46.245 125.4450  0.00  0.00     0.000 OA
ATOM     13   O  A00 X   1      73.030  47.959 124.6880  0.00  0.00     0.000 OA
ATOM     14   O  A00 X   1      73.292  45.942 123.4560  0.00  0.00     0.000 OA
ATOM     15   S  A00 X   1      73.359  46.562 124.7510  0.00  0.00     0.000 S
ENDBRANCH 2 11
BRANCH 5 16
ATOM     16   C  A00 X   1      69.233  48.201 128.1170  0.00  0.00     0.000 C
ATOM     17   O  A00 X   1      68.244  48.600 127.5370  0.00  0.00     0.000 OA
ATOM     18   O  A00 X   1      70.088  49.001 128.4410  0.00  0.00     0.000 OA
ENDBRANCH 5 16
BRANCH 1 19
ATOM     19  O4  A00 X   2      69.191  46.890 125.1250  0.00  0.00     0.000 O
BRANCH 19 23
ATOM     20  C1  A00 X   2      67.146  43.557 123.3720  0.00  0.00     0.000 C
ATOM     21  C2  A00 X   2      68.427  44.061 122.6660  0.00  0.00     0.000 C
ATOM     22  C3  A00 X   2      69.268  44.941 123.6140  0.00  0.00     0.000 C
ATOM     23  C4  A00 X   2      68.410  46.090 124.1910  0.00  0.00     0.000 C
ATOM     24  C5  A00 X   2      67.154  45.459 124.8520  0.00  0.00     0.000 C
ATOM     25  O5  A00 X   2      66.416  44.721 123.8430  0.00  0.00     0.000 O
ATOM     26   O  A00 X   2      70.476  45.326 122.9360  0.00  0.00     0.000 O
ATOM     28  HD  A00 X   2      70.054  45.599 122.2310  0.00  0.00     0.000 HD
BRANCH 21 30
ATOM     28   N  A00 X   2      67.810  43.714 121.3810  0.00  0.00     0.000 N
ATOM     30  HD  A00 X   2      68.656  43.823 121.2320  0.00  0.00     0.000 HD
ATOM     30   O  A00 X   2      69.507  43.076 119.9080  0.00  0.00     0.000 OA
ATOM     31   S  A00 X   2      68.555  44.120 120.0480  0.00  0.00     0.000 S
ATOM     32   O  A00 X   2      67.515  44.125 119.0660  0.00  0.00     0.000 OA
ATOM     33   O  A00 X   2      69.068  45.445 120.2350  0.00  0.00     0.000 OA
ENDBRANCH 21 30
BRANCH 24 34
ATOM     34   C  A00 X   2      66.246  46.374 125.7060  0.00  0.00     0.000 C
ATOM     35   O  A00 X   2      62.746  47.046 124.9600  0.00  0.00     0.000 OA
ATOM     36   O  A00 X   2      65.046  46.733 124.9920  0.00  0.00     0.000 O
ATOM     37   O  A00 X   2      63.644  44.877 125.2420  0.00  0.00     0.000 OA
ATOM     38   S  A00 X   2      63.703  46.247 125.6510  0.00  0.00     0.000 S
ATOM     39   O  A00 X   2      63.820  46.517 127.0530  0.00  0.00     0.000 OA
ENDBRANCH 24 34
BRANCH 20 40
ATOM     40  O4  A00 X   3      67.599  42.788 124.4960  0.00  0.00     0.000 O
BRANCH 40 44
ATOM     41  C1  A00 X   3      67.222  41.926 127.9940  0.00  0.00     0.000 C
ATOM     42  C2  A00 X   3      68.310  41.354 127.0590  0.00  0.00     0.000 C
ATOM     43  C3  A00 X   3      67.684  40.804 125.7510  0.00  0.00     0.000 C
ATOM     44  C4  A00 X   3      66.738  41.769 125.0470  0.00  0.00     0.000 C
ATOM     45  C5  A00 X   3      65.673  42.296 126.0500  0.00  0.00     0.000 C
ATOM     46  O5  A00 X   3      66.306  42.795 127.2720  0.00  0.00     0.000 O
ATOM     47   O  A00 X   3      68.587  40.171 124.8470  0.00  0.00     0.000 O
ATOM     49  HD  A00 X   3      68.100  40.575 124.2550  0.00  0.00     0.000 HD
BRANCH 42 49
ATOM     49   O  A00 X   3      69.241  42.424 126.7890  0.00  0.00     0.000 O
ATOM     50   O  A00 X   3      71.210  42.713 125.4580  0.00  0.00     0.000 OA
ATOM     51   O  A00 X   3      70.935  40.700 126.6670  0.00  0.00     0.000 OA
ATOM     52   O  A00 X   3      71.306  42.697 127.8740  0.00  0.00     0.000 OA
ATOM     53   S  A00 X   3      70.767  42.131 126.6860  0.00  0.00     0.000 S
ENDBRANCH 42 49
BRANCH 45 54
ATOM     54   C  A00 X   3      64.581  41.253 126.3190  0.00  0.00     0.000 C
ATOM     55   O  A00 X   3      63.587  41.546 126.9510  0.00  0.00     0.000 OA
ATOM     56   O  A00 X   3      64.693  40.110 125.9040  0.00  0.00     0.000 OA
ENDBRANCH 45 54
BRANCH 41 57
ATOM     57  O4  A00 X   4      66.568  40.884 128.7520  0.00  0.00     0.000 O
BRANCH 57 61
ATOM     58  C1  A00 X   4      64.890  40.753 132.7280  0.00  0.00     0.000 C
ATOM     59  C2  A00 X   4      64.277  41.733 131.6970  0.00  0.00     0.000 C
ATOM     60  C3  A00 X   4      64.703  41.441 130.2430  0.00  0.00     0.000 C
ATOM     61  C4  A00 X   4      66.229  41.237 130.1240  0.00  0.00     0.000 C
ATOM     62  C5  A00 X   4      66.590  40.075 131.0820  0.00  0.00     0.000 C
ATOM     63  O5  A00 X   4      66.278  40.465 132.4440  0.00  0.00     0.000 O
BRANCH 59 66
ATOM     64   N  A00 X   4      64.722  43.112 131.9630  0.00  0.00     0.000 N
ATOM     66  HD  A00 X   4      65.492  43.217 132.3460  0.00  0.00     0.000 HD
ATOM     66   O  A00 X   4      63.003  43.236 133.6450  0.00  0.00     0.000 OA
ATOM     67   S  A00 X   4      63.734  44.086 132.7590  0.00  0.00     0.000 S
ATOM     68   O  A00 X   4      64.682  44.961 133.3860  0.00  0.00     0.000 OA
ATOM     69   O  A00 X   4      63.024  44.679 131.6610  0.00  0.00     0.000 OA
ENDBRANCH 59 66
BRANCH 62 70
ATOM     70   C  A00 X   4      68.075  39.644 131.0210  0.00  0.00     0.000 C
ATOM     71   O  A00 X   4      71.002  41.454 132.1420  0.00  0.00     0.000 OA
ATOM     72   O  A00 X   4      70.559  40.368 130.1010  0.00  0.00     0.000 OA
ATOM     73   O  A00 X   4      68.866  40.556 131.7990  0.00  0.00     0.000 O
ATOM     74   O  A00 X   4      69.520  42.522 130.5680  0.00  0.00     0.000 OA
ATOM     75   S  A00 X   4      70.047  41.299 131.0820  0.00  0.00     0.000 S
ENDBRANCH 62 70
ENDBRANCH 57 61
ENDBRANCH 41 57
ENDBRANCH 40 44
ENDBRANCH 20 40
ENDBRANCH 19 23
ENDBRANCH 1 19
TORSDOF 14
ENDMDL
MODEL 47
REMARK VINA RESULT:       0.0     67.712     72.317
ROOT
ATOM      1  C1  A00 X   1      81.542  74.384  96.5820  0.00  0.00     0.000 C
ATOM      2  C2  A00 X   1      82.480  73.959  97.7430  0.00  0.00     0.000 C
ATOM      3  C3  A00 X   1      83.934  74.533  97.6970  0.00  0.00     0.000 C
ATOM      4  C4  A00 X   1      84.370  75.140  96.3380  0.00  0.00     0.000 C
ATOM      5  C5  A00 X   1      83.545  74.597  95.1720  0.00  0.00     0.000 C
ATOM      6  O5  A00 X   1      82.191  75.018  95.4530  0.00  0.00     0.000 O
ATOM      7   O  A00 X   1      84.851  73.479  97.9820  0.00  0.00     0.000 O
ATOM      9  HD  A00 X   1      85.191  73.945  97.3360  0.00  0.00     0.000 HD
ATOM      9   O  A00 X   1      84.299  76.565  96.3570  0.00  0.00     0.000 O
ATOM     11  HD  A00 X   1      84.639  77.032  95.7110  0.00  0.00     0.000 HD
ENDROOT
BRANCH 2 11
ATOM     11   O  A00 X   1      81.857  74.359  98.9790  0.00  0.00     0.000 O
ATOM     12   O  A00 X   1      82.994  74.190 101.0880  0.00  0.00     0.000 OA
ATOM     13   O  A00 X   1      82.491  72.163  99.8420  0.00  0.00     0.000 OA
ATOM     14   O  A00 X   1      80.740  73.445 100.8150  0.00  0.00     0.000 OA
ATOM     15   S  A00 X   1      82.064  73.471 100.2550  0.00  0.00     0.000 S
ENDBRANCH 2 11
BRANCH 5 16
ATOM     16   C  A00 X   1      83.680  73.090  94.9290  0.00  0.00     0.000 C
ATOM     17   O  A00 X   1      82.912  72.554  94.1570  0.00  0.00     0.000 OA
ATOM     18   O  A00 X   1      84.532  72.416  95.4740  0.00  0.00     0.000 OA
ENDBRANCH 5 16
BRANCH 1 19
ATOM     19  O4  A00 X   2      80.660  73.317  96.1540  0.00  0.00     0.000 O
BRANCH 19 23
ATOM     20  C1  A00 X   2      77.290  75.906  95.6060  0.00  0.00     0.000 C
ATOM     21  C2  A00 X   2      77.376  75.118  96.9350  0.00  0.00     0.000 C
ATOM     22  C3  A00 X   2      78.808  74.591  97.1690  0.00  0.00     0.000 C
ATOM     23  C4  A00 X   2      79.291  73.771  95.9530  0.00  0.00     0.000 C
ATOM     24  C5  A00 X   2      79.137  74.660  94.6890  0.00  0.00     0.000 C
ATOM     25  O5  A00 X   2      77.740  75.026  94.5420  0.00  0.00     0.000 O
ATOM     26   O  A00 X   2      78.852  73.928  98.4440  0.00  0.00     0.000 O
ATOM     28  HD  A00 X   2      78.155  73.444  98.2730  0.00  0.00     0.000 HD
BRANCH 21 30
ATOM     28   N  A00 X   2      75.914  75.015  96.9250  0.00  0.00     0.000 N
ATOM     30  HD  A00 X   2      76.174  74.817  97.7270  0.00  0.00     0.000 HD
ATOM     30   O  A00 X   2      75.171  74.996  99.1400  0.00  0.00     0.000 OA
ATOM     31   S  A00 X   2      75.209  74.122  98.0220  0.00  0.00     0.000 S
ATOM     32   O  A00 X   2      73.934  73.822  97.4470  0.00  0.00     0.000 OA
ATOM     33   O  A00 X   2      75.987  72.927  98.1590  0.00  0.00     0.000 OA
ENDBRANCH 21 30
BRANCH 24 34
ATOM     34   C  A00 X   2      79.765  74.158  93.3670  0.00  0.00     0.000 C
ATOM     35   O  A00 X   2      77.853  73.368  90.3700  0.00  0.00     0.000 OA
ATOM     36   O  A00 X   2      78.764  73.598  92.4930  0.00  0.00     0.000 O
ATOM     37   O  A00 X   2      77.774  75.457  91.4760  0.00  0.00     0.000 OA
ATOM     38   S  A00 X   2      78.588  74.337  91.1160  0.00  0.00     0.000 S
ATOM     39   O  A00 X   2      79.907  74.605  90.6280  0.00  0.00     0.000 OA
ENDBRANCH 24 34
BRANCH 20 40
ATOM     40  O4  A00 X   3      78.207  77.001  95.7430  0.00  0.00     0.000 O
BRANCH 40 44
ATOM     41  C1  A00 X   3      80.815  79.031  94.2590  0.00  0.00     0.000 C
ATOM     42  C2  A00 X   3      80.275  79.204  95.6950  0.00  0.00     0.000 C
ATOM     43  C3  A00 X   3      78.728  79.291  95.7000  0.00  0.00     0.000 C
ATOM     44  C4  A00 X   3      78.028  78.179  94.9290  0.00  0.00     0.000 C
ATOM     45  C5  A00 X   3      78.621  78.071  93.4960  0.00  0.00     0.000 C
ATOM     46  O5  A00 X   3      80.083  78.001  93.5390  0.00  0.00     0.000 O
ATOM     47   O  A00 X   3      78.121  79.539  96.9670  0.00  0.00     0.000 O
ATOM     49  HD  A00 X   3      77.536  78.974  96.6710  0.00  0.00     0.000 HD
BRANCH 42 49
ATOM     49   O  A00 X   3      80.742  78.072  96.4620  0.00  0.00     0.000 O
ATOM     50   O  A00 X   3      80.486  77.274  98.7040  0.00  0.00     0.000 OA
ATOM     51   O  A00 X   3      80.818  79.587  98.3470  0.00  0.00     0.000 OA
ATOM     52   O  A00 X   3      82.605  78.109  97.8920  0.00  0.00     0.000 OA
ATOM     53   S  A00 X   3      81.191  78.255  97.9410  0.00  0.00     0.000 S
ENDBRANCH 42 49
BRANCH 45 54
ATOM     54   C  A00 X   3      78.097  79.183  92.5790  0.00  0.00     0.000 C
ATOM     55   O  A00 X   3      78.346  79.174  91.3910  0.00  0.00     0.000 OA
ATOM     56   O  A00 X   3      77.422  80.097  93.0270  0.00  0.00     0.000 OA
ENDBRANCH 45 54
BRANCH 41 57
ATOM     57  O4  A00 X   4      80.891  80.294  93.5620  0.00  0.00     0.000 O
BRANCH 57 61
ATOM     58  C1  A00 X   4      83.609  81.853  90.5920  0.00  0.00     0.000 C
ATOM     59  C2  A00 X   4      82.773  80.596  90.2440  0.00  0.00     0.000 C
ATOM     60  C3  A00 X   4      81.601  80.350  91.2150  0.00  0.00     0.000 C
ATOM     61  C4  A00 X   4      82.047  80.450  92.6900  0.00  0.00     0.000 C
ATOM     62  C5  A00 X   4      82.662  81.861  92.8640  0.00  0.00     0.000 C
ATOM     63  O5  A00 X   4      83.833  81.979  92.0150  0.00  0.00     0.000 O
BRANCH 59 66
ATOM     64   N  A00 X   4      83.610  79.385  90.3260  0.00  0.00     0.000 N
ATOM     66  HD  A00 X   4      84.282  79.400  90.8720  0.00  0.00     0.000 HD
ATOM     66   O  A00 X   4      84.404  79.906  88.1130  0.00  0.00     0.000 OA
ATOM     67   S  A00 X   4      84.200  78.779  88.9680  0.00  0.00     0.000 S
ATOM     68   O  A00 X   4      85.392  78.154  89.4610  0.00  0.00     0.000 OA
ATOM     69   O  A00 X   4      83.152  77.860  88.6250  0.00  0.00     0.000 OA
ENDBRANCH 59 66
BRANCH 62 70
ATOM     70   C  A00 X   4      83.074  82.196  94.3170  0.00  0.00     0.000 C
ATOM     71   O  A00 X   4      85.782  80.807  96.2780  0.00  0.00     0.000 OA
ATOM     72   O  A00 X   4      83.508  81.116  96.8050  0.00  0.00     0.000 OA
ATOM     73   O  A00 X   4      84.347  81.593  94.6020  0.00  0.00     0.000 O
ATOM     74   O  A00 X   4      84.163  79.300  95.3190  0.00  0.00     0.000 OA
ATOM     75   S  A00 X   4      84.436  80.608  95.8190  0.00  0.00     0.000 S
ENDBRANCH 62 70
ENDBRANCH 57 61
ENDBRANCH 41 57
ENDBRANCH 40 44
ENDBRANCH 20 40
ENDBRANCH 19 23
ENDBRANCH 1 19
TORSDOF 14
ENDMDL
MODEL 48
REMARK VINA RESULT:       0.0    120.085    126.100
ROOT
ATOM      1  C1  A00 X   1      18.209  51.777 146.3050  0.00  0.00     0.000 C
ATOM      2  C2  A00 X   1      17.797  53.216 146.7130  0.00  0.00     0.000 C
ATOM      3  C3  A00 X   1      17.247  53.387 148.1680  0.00  0.00     0.000 C
ATOM      4  C4  A00 X   1      16.839  52.075 148.8860  0.00  0.00     0.000 C
ATOM      5  C5  A00 X   1      16.531  50.948 147.9000  0.00  0.00     0.000 C
ATOM      6  O5  A00 X   1      17.776  50.723 147.2000  0.00  0.00     0.000 O
ATOM      7   O  A00 X   1      16.080  54.204 148.1230  0.00  0.00     0.000 O
ATOM      9  HD  A00 X   1      15.921  53.562 148.6820  0.00  0.00     0.000 HD
ATOM      9   O  A00 X   1      17.843  51.649 149.8060  0.00  0.00     0.000 O
ATOM     11  HD  A00 X   1      17.684  51.008 150.3660  0.00  0.00     0.000 HD
ENDROOT
BRANCH 2 11
ATOM     11   O  A00 X   1      18.947  54.067 146.5440  0.00  0.00     0.000 O
ATOM     12   O  A00 X   1      18.952  56.356 147.2700  0.00  0.00     0.000 OA
ATOM     13   O  A00 X   1      17.427  55.671 145.5030  0.00  0.00     0.000 OA
ATOM     14   O  A00 X   1      19.773  55.720 145.1170  0.00  0.00     0.000 OA
ATOM     15   S  A00 X   1      18.732  55.553 146.0940  0.00  0.00     0.000 S
ENDBRANCH 2 11
BRANCH 5 16
ATOM     16   C  A00 X   1      15.343  51.209 146.9680  0.00  0.00     0.000 C
ATOM     17   O  A00 X   1      15.169  50.464 146.0260  0.00  0.00     0.000 OA
ATOM     18   O  A00 X   1      14.567  52.127 147.1440  0.00  0.00     0.000 OA
ENDBRANCH 5 16
BRANCH 1 19
ATOM     19  O4  A00 X   2      17.881  51.468 144.9280  0.00  0.00     0.000 O
BRANCH 19 23
ATOM     20  C1  A00 X   2      21.498  49.277 144.2340  0.00  0.00     0.000 C
ATOM     21  C2  A00 X   2      21.457  50.753 143.7700  0.00  0.00     0.000 C
ATOM     22  C3  A00 X   2      20.302  51.513 144.4560  0.00  0.00     0.000 C
ATOM     23  C4  A00 X   2      18.961  50.777 144.2370  0.00  0.00     0.000 C
ATOM     24  C5  A00 X   2      19.139  49.312 144.7230  0.00  0.00     0.000 C
ATOM     25  O5  A00 X   2      20.200  48.690 143.9520  0.00  0.00     0.000 O
ATOM     26   O  A00 X   2      20.348  52.890 144.0460  0.00  0.00     0.000 O
ATOM     28  HD  A00 X   2      20.395  52.690 143.2040  0.00  0.00     0.000 HD
BRANCH 21 30
ATOM     28   N  A00 X   2      22.302  50.379 142.6320  0.00  0.00     0.000 N
ATOM     30  HD  A00 X   2      22.331  51.243 142.6930  0.00  0.00     0.000 HD
ATOM     30   O  A00 X   2      23.651  52.210 142.0960  0.00  0.00     0.000 OA
ATOM     31   S  A00 X   2      22.594  51.460 141.5160  0.00  0.00     0.000 S
ATOM     32   O  A00 X   2      22.962  50.679 140.3760  0.00  0.00     0.000 OA
ATOM     33   O  A00 X   2      21.366  52.155 141.2680  0.00  0.00     0.000 OA
ENDBRANCH 21 30
BRANCH 24 34
ATOM     34   C  A00 X   2      17.876  48.424 144.8260  0.00  0.00     0.000 C
ATOM     35   O  A00 X   2      17.345  45.398 142.8730  0.00  0.00     0.000 OA
ATOM     36   O  A00 X   2      17.781  47.519 143.7080  0.00  0.00     0.000 O
ATOM     37   O  A00 X   2      19.229  45.765 144.2550  0.00  0.00     0.000 OA
ATOM     38   S  A00 X   2      17.827  45.991 144.0770  0.00  0.00     0.000 S
ATOM     39   O  A00 X   2      16.978  45.824 145.2180  0.00  0.00     0.000 OA
ENDBRANCH 24 34
BRANCH 20 40
ATOM     40  O4  A00 X   3      21.706  49.323 145.6530  0.00  0.00     0.000 O
BRANCH 40 44
ATOM     41  C1  A00 X   3      20.823  48.065 148.9340  0.00  0.00     0.000 C
ATOM     42  C2  A00 X   3      21.857  49.180 148.6680  0.00  0.00     0.000 C
ATOM     43  C3  A00 X   3      22.888  48.738 147.5970  0.00  0.00     0.000 C
ATOM     44  C4  A00 X   3      22.274  48.176 146.3210  0.00  0.00     0.000 C
ATOM     45  C5  A00 X   3      21.250  47.059 146.6700  0.00  0.00     0.000 C
ATOM     46  O5  A00 X   3      20.305  47.516 147.6910  0.00  0.00     0.000 O
ATOM     47   O  A00 X   3      23.945  49.657 147.3330  0.00  0.00     0.000 O
ATOM     49  HD  A00 X   3      23.816  49.397 146.5170  0.00  0.00     0.000 HD
BRANCH 42 49
ATOM     49   O  A00 X   3      21.121  50.347 148.2410  0.00  0.00     0.000 O
ATOM     50   O  A00 X   3      21.657  52.568 147.5270  0.00  0.00     0.000 OA
ATOM     51   O  A00 X   3      22.844  51.637 149.3480  0.00  0.00     0.000 OA
ATOM     52   O  A00 X   3      20.555  52.148 149.6380  0.00  0.00     0.000 OA
ATOM     53   S  A00 X   3      21.559  51.767 148.7060  0.00  0.00     0.000 S
ENDBRANCH 42 49
BRANCH 45 54
ATOM     54   C  A00 X   3      21.949  45.745 147.0400  0.00  0.00     0.000 C
ATOM     55   O  A00 X   3      23.146  45.715 147.2390  0.00  0.00     0.000 OA
ATOM     56   O  A00 X   3      21.314  44.706 147.1410  0.00  0.00     0.000 OA
ENDBRANCH 45 54
BRANCH 41 57
ATOM     57  O4  A00 X   4      21.335  47.069 149.8470  0.00  0.00     0.000 O
BRANCH 57 61
ATOM     58  C1  A00 X   4      19.466  44.613 152.8670  0.00  0.00     0.000 C
ATOM     59  C2  A00 X   4      19.017  44.446 151.3940  0.00  0.00     0.000 C
ATOM     60  C3  A00 X   4      19.982  45.094 150.3800  0.00  0.00     0.000 C
ATOM     61  C4  A00 X   4      20.361  46.534 150.7880  0.00  0.00     0.000 C
ATOM     62  C5  A00 X   4      20.981  46.437 152.2040  0.00  0.00     0.000 C
ATOM     63  O5  A00 X   4      19.982  45.938 153.1300  0.00  0.00     0.000 O
BRANCH 59 66
ATOM     64   N  A00 X   4      17.719  45.114 151.1870  0.00  0.00     0.000 N
ATOM     66  HD  A00 X   4      17.529  45.786 151.6990  0.00  0.00     0.000 HD
ATOM     66   O  A00 X   4      16.675  43.140 152.0900  0.00  0.00     0.000 OA
ATOM     67   S  A00 X   4      16.397  44.214 151.1880  0.00  0.00     0.000 S
ATOM     68   O  A00 X   4      15.433  45.171 151.6460  0.00  0.00     0.000 OA
ATOM     69   O  A00 X   4      16.300  43.905 149.7890  0.00  0.00     0.000 OA
ENDBRANCH 59 66
BRANCH 62 70
ATOM     70   C  A00 X   4      21.529  47.778 152.7480  0.00  0.00     0.000 C
ATOM     71   O  A00 X   4      19.690  50.717 153.7890  0.00  0.00     0.000 OA
ATOM     72   O  A00 X   4      21.539  50.495 152.3490  0.00  0.00     0.000 OA
ATOM     73   O  A00 X   4      20.441  48.561 153.2650  0.00  0.00     0.000 O
ATOM     74   O  A00 X   4      19.322  49.854 151.5680  0.00  0.00     0.000 OA
ATOM     75   S  A00 X   4      20.221  49.994 152.6680  0.00  0.00     0.000 S
ENDBRANCH 62 70
ENDBRANCH 57 61
ENDBRANCH 41 57
ENDBRANCH 40 44
ENDBRANCH 20 40
ENDBRANCH 19 23
ENDBRANCH 1 19
TORSDOF 14
ENDMDL
MODEL 49
REMARK VINA RESULT:       0.0     25.007     30.537
ROOT
ATOM      1  C1  A00 X   1      37.488 126.711  20.7760  0.00  0.00     0.000 C
ATOM      2  C2  A00 X   1      36.301 126.280  21.6780  0.00  0.00     0.000 C
ATOM      3  C3  A00 X   1      34.905 126.189  20.9800  0.00  0.00     0.000 C
ATOM      4  C4  A00 X   1      34.802 126.882  19.5970  0.00  0.00     0.000 C
ATOM      5  C5  A00 X   1      35.868 127.962  19.4120  0.00  0.00     0.000 C
ATOM      6  O5  A00 X   1      37.126 127.253  19.4810  0.00  0.00     0.000 O
ATOM      7   O  A00 X   1      33.933 126.812  21.8170  0.00  0.00     0.000 O
ATOM      9  HD  A00 X   1      33.758 127.049  21.0030  0.00  0.00     0.000 HD
ATOM      9   O  A00 X   1      34.885 125.936  18.5310  0.00  0.00     0.000 O
ATOM     11  HD  A00 X   1      34.710 126.173  17.7170  0.00  0.00     0.000 HD
ENDROOT
BRANCH 2 11
ATOM     11   O  A00 X   1      36.626 124.996  22.2450  0.00  0.00     0.000 O
ATOM     12   O  A00 X   1      35.198 123.916  23.8460  0.00  0.00     0.000 OA
ATOM     13   O  A00 X   1      36.255 126.028  24.4280  0.00  0.00     0.000 OA
ATOM     14   O  A00 X   1      37.562 124.058  24.1680  0.00  0.00     0.000 OA
ATOM     15   S  A00 X   1      36.368 124.754  23.7720  0.00  0.00     0.000 S
ENDBRANCH 2 11
BRANCH 5 16
ATOM     16   C  A00 X   1      35.774 129.139  20.3890  0.00  0.00     0.000 C
ATOM     17   O  A00 X   1      36.688 129.937  20.4270  0.00  0.00     0.000 OA
ATOM     18   O  A00 X   1      34.817 129.305  21.1180  0.00  0.00     0.000 OA
ENDBRANCH 5 16
BRANCH 1 19
ATOM     19  O4  A00 X   2      38.431 127.570  21.4620  0.00  0.00     0.000 O
BRANCH 19 23
ATOM     20  C1  A00 X   2      41.855 125.872  19.5230  0.00  0.00     0.000 C
ATOM     21  C2  A00 X   2      41.512 125.362  20.9430  0.00  0.00     0.000 C
ATOM     22  C3  A00 X   2      40.060 125.723  21.3220  0.00  0.00     0.000 C
ATOM     23  C4  A00 X   2      39.816 127.239  21.1530  0.00  0.00     0.000 C
ATOM     24  C5  A00 X   2      40.212 127.626  19.7020  0.00  0.00     0.000 C
ATOM     25  O5  A00 X   2      41.613 127.304  19.4990  0.00  0.00     0.000 O
ATOM     26   O  A00 X   2      39.770 125.170  22.6170  0.00  0.00     0.000 O
ATOM     28  HD  A00 X   2      40.485 125.502  22.9750  0.00  0.00     0.000 HD
BRANCH 21 30
ATOM     28   N  A00 X   2      42.949 125.219  21.1970  0.00  0.00     0.000 N
ATOM     30  HD  A00 X   2      42.540 124.768  21.8130  0.00  0.00     0.000 HD
ATOM     30   O  A00 X   2      43.254 123.428  22.6660  0.00  0.00     0.000 OA
ATOM     31   S  A00 X   2      43.428 124.837  22.6540  0.00  0.00     0.000 S
ATOM     32   O  A00 X   2      44.788 125.278  22.6900  0.00  0.00     0.000 OA
ATOM     33   O  A00 X   2      42.634 125.597  23.5740  0.00  0.00     0.000 OA
ENDBRANCH 21 30
BRANCH 24 34
ATOM     34   C  A00 X   2      39.847 129.044  19.2030  0.00  0.00     0.000 C
ATOM     35   O  A00 X   2      42.292 131.536  18.1710  0.00  0.00     0.000 OA
ATOM     36   O  A00 X   2      40.998 129.912  19.2070  0.00  0.00     0.000 O
ATOM     37   O  A00 X   2      42.145 129.366  17.2430  0.00  0.00     0.000 OA
ATOM     38   S  A00 X   2      41.423 130.469  17.7990  0.00  0.00     0.000 S
ATOM     39   O  A00 X   2      40.216 130.871  17.1420  0.00  0.00     0.000 OA
ENDBRANCH 24 34
BRANCH 20 40
ATOM     40  O4  A00 X   3      40.932 125.214  18.6420  0.00  0.00     0.000 O
BRANCH 40 44
ATOM     41  C1  A00 X   3      38.689 125.424  15.8050  0.00  0.00     0.000 C
ATOM     42  C2  A00 X   3      38.933 124.150  16.6420  0.00  0.00     0.000 C
ATOM     43  C3  A00 X   3      40.449 123.860  16.7840  0.00  0.00     0.000 C
ATOM     44  C4  A00 X   3      41.280 125.049  17.2500  0.00  0.00     0.000 C
ATOM     45  C5  A00 X   3      40.984 126.288  16.3590  0.00  0.00     0.000 C
ATOM     46  O5  A00 X   3      39.542 126.517  16.2440  0.00  0.00     0.000 O
ATOM     47   O  A00 X   3      40.792 122.656  17.4660  0.00  0.00     0.000 O
ATOM     49  HD  A00 X   3      41.421 123.153  17.7940  0.00  0.00     0.000 HD
BRANCH 42 49
ATOM     49   O  A00 X   3      38.313 124.364  17.9290  0.00  0.00     0.000 O
ATOM     50   O  A00 X   3      38.113 123.145  19.9790  0.00  0.00     0.000 OA
ATOM     51   O  A00 X   3      37.879 121.983  17.9340  0.00  0.00     0.000 OA
ATOM     52   O  A00 X   3      36.205 123.535  18.5460  0.00  0.00     0.000 OA
ATOM     53   S  A00 X   3      37.582 123.196  18.6530  0.00  0.00     0.000 S
ENDBRANCH 42 49
BRANCH 45 54
ATOM     54   C  A00 X   3      41.689 126.191  15.0010  0.00  0.00     0.000 C
ATOM     55   O  A00 X   3      42.243 125.165  14.6630  0.00  0.00     0.000 OA
ATOM     56   O  A00 X   3      41.708 127.143  14.2360  0.00  0.00     0.000 OA
ENDBRANCH 45 54
BRANCH 41 57
ATOM     57  O4  A00 X   4      38.765 125.154  14.3870  0.00  0.00     0.000 O
BRANCH 57 61
ATOM     58  C1  A00 X   4      36.700 126.796  10.9690  0.00  0.00     0.000 C
ATOM     59  C2  A00 X   4      37.575 127.741  11.8310  0.00  0.00     0.000 C
ATOM     60  C3  A00 X   4      38.531 126.994  12.7830  0.00  0.00     0.000 C
ATOM     61  C4  A00 X   4      37.804 125.880  13.5680  0.00  0.00     0.000 C
ATOM     62  C5  A00 X   4      37.182 124.937  12.5090  0.00  0.00     0.000 C
ATOM     63  O5  A00 X   4      36.203 125.673  11.7310  0.00  0.00     0.000 O
BRANCH 59 66
ATOM     64   N  A00 X   4      36.726 128.573  12.7020  0.00  0.00     0.000 N
ATOM     66  HD  A00 X   4      35.960 128.249  12.9420  0.00  0.00     0.000 HD
ATOM     66   O  A00 X   4      36.387 130.028  10.8130  0.00  0.00     0.000 OA
ATOM     67   S  A00 X   4      36.408 130.072  12.2410  0.00  0.00     0.000 S
ATOM     68   O  A00 X   4      35.136 130.272  12.8710  0.00  0.00     0.000 OA
ATOM     69   O  A00 X   4      37.494 130.767  12.8740  0.00  0.00     0.000 OA
ENDBRANCH 59 66
BRANCH 62 70
ATOM     70   C  A00 X   4      36.496 123.684  13.1040  0.00  0.00     0.000 C
ATOM     71   O  A00 X   4      33.443 123.481  15.0390  0.00  0.00     0.000 OA
ATOM     72   O  A00 X   4      35.572 122.555  15.4310  0.00  0.00     0.000 OA
ATOM     73   O  A00 X   4      35.187 124.039  13.5780  0.00  0.00     0.000 O
ATOM     74   O  A00 X   4      35.205 124.933  15.8150  0.00  0.00     0.000 OA
ATOM     75   S  A00 X   4      34.851 123.760  15.0840  0.00  0.00     0.000 S
ENDBRANCH 62 70
ENDBRANCH 57 61
ENDBRANCH 41 57
ENDBRANCH 40 44
ENDBRANCH 20 40
ENDBRANCH 19 23
ENDBRANCH 1 19
TORSDOF 14
ENDMDL
MODEL 50
REMARK VINA RESULT:       0.0     84.298     89.081
ROOT
ATOM      1  C1  A00 X   1     135.017 117.497  21.9630  0.00  0.00     0.000 C
ATOM      2  C2  A00 X   1     136.187 117.295  22.9620  0.00  0.00     0.000 C
ATOM      3  C3  A00 X   1     136.432 115.827  23.4450  0.00  0.00     0.000 C
ATOM      4  C4  A00 X   1     135.277 114.830  23.1680  0.00  0.00     0.000 C
ATOM      5  C5  A00 X   1     133.935 115.539  22.9840  0.00  0.00     0.000 C
ATOM      6  O5  A00 X   1     134.117 116.370  21.8160  0.00  0.00     0.000 O
ATOM      7   O  A00 X   1     136.629 115.837  24.8570  0.00  0.00     0.000 O
ATOM      9  HD  A00 X   1     136.130 115.154  24.6740  0.00  0.00     0.000 HD
ATOM      9   O  A00 X   1     135.553 114.015  22.0300  0.00  0.00     0.000 O
ATOM     11  HD  A00 X   1     135.054 113.332  21.8460  0.00  0.00     0.000 HD
ENDROOT
BRANCH 2 11
ATOM     11   O  A00 X   1     137.387 117.791  22.3380  0.00  0.00     0.000 O
ATOM     12   O  A00 X   1     139.552 117.496  23.3350  0.00  0.00     0.000 OA
ATOM     13   O  A00 X   1     137.888 118.853  24.4800  0.00  0.00     0.000 OA
ATOM     14   O  A00 X   1     138.858 119.601  22.4410  0.00  0.00     0.000 OA
ATOM     15   S  A00 X   1     138.486 118.460  23.2330  0.00  0.00     0.000 S
ENDBRANCH 2 11
BRANCH 5 16
ATOM     16   C  A00 X   1     133.434 116.306  24.2110  0.00  0.00     0.000 C
ATOM     17   O  A00 X   1     132.494 117.063  24.0800  0.00  0.00     0.000 OA
ATOM     18   O  A00 X   1     133.937 116.179  25.3100  0.00  0.00     0.000 OA
ENDBRANCH 5 16
BRANCH 1 19
ATOM     19  O4  A00 X   2     134.289 118.728  22.1920  0.00  0.00     0.000 O
BRANCH 19 23
ATOM     20  C1  A00 X   2     133.791 119.571  18.0200  0.00  0.00     0.000 C
ATOM     21  C2  A00 X   2     134.949 120.283  18.7600  0.00  0.00     0.000 C
ATOM     22  C3  A00 X   2     135.269 119.574  20.0920  0.00  0.00     0.000 C
ATOM     23  C4  A00 X   2     133.995 119.442  20.9570  0.00  0.00     0.000 C
ATOM     24  C5  A00 X   2     132.911 118.733  20.1010  0.00  0.00     0.000 C
ATOM     25  O5  A00 X   2     132.651 119.534  18.9190  0.00  0.00     0.000 O
ATOM     26   O  A00 X   2     136.392 120.230  20.7060  0.00  0.00     0.000 O
ATOM     28  HD  A00 X   2     136.042 121.018  20.6220  0.00  0.00     0.000 HD
BRANCH 21 30
ATOM     28   N  A00 X   2     134.726 121.453  17.9040  0.00  0.00     0.000 N
ATOM     30  HD  A00 X   2     135.504 121.555  18.2710  0.00  0.00     0.000 HD
ATOM     30   O  A00 X   2     136.780 122.517  17.5770  0.00  0.00     0.000 OA
ATOM     31   S  A00 X   2     135.534 122.778  18.2060  0.00  0.00     0.000 S
ATOM     32   O  A00 X   2     134.748 123.801  17.5880  0.00  0.00     0.000 OA
ATOM     33   O  A00 X   2     135.547 122.952  19.6280  0.00  0.00     0.000 OA
ENDBRANCH 21 30
BRANCH 24 34
ATOM     34   C  A00 X   2     131.614 118.273  20.8070  0.00  0.00     0.000 C
ATOM     35   O  A00 X   2     129.373 120.503  22.6140  0.00  0.00     0.000 OA
ATOM     36   O  A00 X   2     131.131 119.279  21.7200  0.00  0.00     0.000 O
ATOM     37   O  A00 X   2     130.009 120.812  20.3570  0.00  0.00     0.000 OA
ATOM     38   S  A00 X   2     129.710 119.863  21.3850  0.00  0.00     0.000 S
ATOM     39   O  A00 X   2     128.885 118.745  21.0370  0.00  0.00     0.000 OA
ENDBRANCH 24 34
BRANCH 20 40
ATOM     40  O4  A00 X   3     134.252 118.234  17.7750  0.00  0.00     0.000 O
BRANCH 40 44
ATOM     41  C1  A00 X   3     133.516 114.687  17.8060  0.00  0.00     0.000 C
ATOM     42  C2  A00 X   3     134.878 115.300  17.4160  0.00  0.00     0.000 C
ATOM     43  C3  A00 X   3     134.702 116.417  16.3550  0.00  0.00     0.000 C
ATOM     44  C4  A00 X   3     133.655 117.466  16.7090  0.00  0.00     0.000 C
ATOM     45  C5  A00 X   3     132.314 116.774  17.0830  0.00  0.00     0.000 C
ATOM     46  O5  A00 X   3     132.529 115.721  18.0780  0.00  0.00     0.000 O
ATOM     47   O  A00 X   3     135.905 116.997  15.8550  0.00  0.00     0.000 O
ATOM     49  HD  A00 X   3     135.437 117.724  15.8930  0.00  0.00     0.000 HD
BRANCH 42 49
ATOM     49   O  A00 X   3     135.474 115.812  18.6280  0.00  0.00     0.000 O
ATOM     50   O  A00 X   3     137.475 116.989  19.2110  0.00  0.00     0.000 OA
ATOM     51   O  A00 X   3     137.603 115.235  17.6310  0.00  0.00     0.000 OA
ATOM     52   O  A00 X   3     137.116 114.693  19.8800  0.00  0.00     0.000 OA
ATOM     53   S  A00 X   3     137.007 115.684  18.8650  0.00  0.00     0.000 S
ENDBRANCH 42 49
BRANCH 45 54
ATOM     54   C  A00 X   3     131.561 116.285  15.8410  0.00  0.00     0.000 C
ATOM     55   O  A00 X   3     130.427 115.860  15.9310  0.00  0.00     0.000 OA
ATOM     56   O  A00 X   3     132.088 116.312  14.7390  0.00  0.00     0.000 OA
ENDBRANCH 45 54
BRANCH 41 57
ATOM     57  O4  A00 X   4     133.081 113.699  16.8460  0.00  0.00     0.000 O
BRANCH 57 61
ATOM     58  C1  A00 X   4     130.819 110.040  17.2140  0.00  0.00     0.000 C
ATOM     59  C2  A00 X   4     130.141 111.374  17.6150  0.00  0.00     0.000 C
ATOM     60  C3  A00 X   4     130.894 112.622  17.1100  0.00  0.00     0.000 C
ATOM     61  C4  A00 X   4     132.406 112.541  17.4140  0.00  0.00     0.000 C
ATOM     62  C5  A00 X   4     132.915 111.241  16.7430  0.00  0.00     0.000 C
ATOM     63  O5  A00 X   4     132.257 110.100  17.3510  0.00  0.00     0.000 O
BRANCH 59 66
ATOM     64   N  A00 X   4     130.108 111.497  19.0830  0.00  0.00     0.000 N
ATOM     66  HD  A00 X   4     130.726 111.091  19.5330  0.00  0.00     0.000 HD
ATOM     66   O  A00 X   4     128.141 110.108  19.0550  0.00  0.00     0.000 OA
ATOM     67   S  A00 X   4     128.748 111.135  19.8430  0.00  0.00     0.000 S
ATOM     68   O  A00 X   4     129.265 110.714  21.1120  0.00  0.00     0.000 OA
ATOM     69   O  A00 X   4     128.117 112.424  19.8630  0.00  0.00     0.000 OA
ENDBRANCH 59 66
BRANCH 62 70
ATOM     70   C  A00 X   4     134.446 111.036  16.8440  0.00  0.00     0.000 C
ATOM     71   O  A00 X   4     136.439 110.280  19.7700  0.00  0.00     0.000 OA
ATOM     72   O  A00 X   4     136.724 111.916  18.1000  0.00  0.00     0.000 OA
ATOM     73   O  A00 X   4     134.771 110.513  18.1420  0.00  0.00     0.000 O
ATOM     74   O  A00 X   4     135.020 112.229  19.8140  0.00  0.00     0.000 OA
ATOM     75   S  A00 X   4     135.785 111.319  19.0240  0.00  0.00     0.000 S
ENDBRANCH 62 70
ENDBRANCH 57 61
ENDBRANCH 41 57
ENDBRANCH 40 44
ENDBRANCH 20 40
ENDBRANCH 19 23
ENDBRANCH 1 19
TORSDOF 14
ENDMDL
MODEL 51
REMARK VINA RESULT:       0.0     39.566     44.529
ROOT
ATOM      1  C1  A00 X   1      58.094  69.261  36.3600  0.00  0.00     0.000 C
ATOM      2  C2  A00 X   1      58.868  69.402  37.6980  0.00  0.00     0.000 C
ATOM      3  C3  A00 X   1      58.931  70.843  38.3050  0.00  0.00     0.000 C
ATOM      4  C4  A00 X   1      58.547  71.993  37.3400  0.00  0.00     0.000 C
ATOM      5  C5  A00 X   1      58.704  71.593  35.8730  0.00  0.00     0.000 C
ATOM      6  O5  A00 X   1      57.772  70.504  35.6880  0.00  0.00     0.000 O
ATOM      7   O  A00 X   1      60.267  71.101  38.7310  0.00  0.00     0.000 O
ATOM      9  HD  A00 X   1      59.976  71.823  38.3530  0.00  0.00     0.000 HD
ATOM      9   O  A00 X   1      57.215  72.448  37.5750  0.00  0.00     0.000 O
ATOM     11  HD  A00 X   1      56.923  73.171  37.1970  0.00  0.00     0.000 HD
ENDROOT
BRANCH 2 11
ATOM     11   O  A00 X   1      58.255  68.516  38.6540  0.00  0.00     0.000 O
ATOM     12   O  A00 X   1      58.881  68.521  40.9730  0.00  0.00     0.000 OA
ATOM     13   O  A00 X   1      60.523  67.877  39.2980  0.00  0.00     0.000 OA
ATOM     14   O  A00 X   1      58.645  66.487  39.7410  0.00  0.00     0.000 OA
ATOM     15   S  A00 X   1      59.156  67.831  39.7380  0.00  0.00     0.000 S
ENDBRANCH 2 11
BRANCH 5 16
ATOM     16   C  A00 X   1      60.136  71.254  35.4440  0.00  0.00     0.000 C
ATOM     17   O  A00 X   1      60.310  70.731  34.3630  0.00  0.00     0.000 OA
ATOM     18   O  A00 X   1      61.100  71.497  36.1420  0.00  0.00     0.000 OA
ENDBRANCH 5 16
BRANCH 1 19
ATOM     19  O4  A00 X   2      58.711  68.314  35.4530  0.00  0.00     0.000 O
BRANCH 19 23
ATOM     20  C1  A00 X   2      54.976  66.705  34.1030  0.00  0.00     0.000 C
ATOM     21  C2  A00 X   2      55.730  65.929  35.2090  0.00  0.00     0.000 C
ATOM     22  C3  A00 X   2      56.793  66.823  35.8810  0.00  0.00     0.000 C
ATOM     23  C4  A00 X   2      57.740  67.431  34.8220  0.00  0.00     0.000 C
ATOM     24  C5  A00 X   2      56.866  68.161  33.7660  0.00  0.00     0.000 C
ATOM     25  O5  A00 X   2      55.964  67.199  33.1600  0.00  0.00     0.000 O
ATOM     26   O  A00 X   2      57.415  66.081  36.9430  0.00  0.00     0.000 O
ATOM     28  HD  A00 X   2      57.575  65.396  36.4390  0.00  0.00     0.000 HD
BRANCH 21 30
ATOM     28   N  A00 X   2      55.230  64.682  34.6230  0.00  0.00     0.000 N
ATOM     30  HD  A00 X   2      55.516  64.488  35.4170  0.00  0.00     0.000 HD
ATOM     30   O  A00 X   2      54.943  63.131  36.3470  0.00  0.00     0.000 OA
ATOM     31   S  A00 X   2      55.758  63.307  35.1980  0.00  0.00     0.000 S
ATOM     32   O  A00 X   2      55.515  62.380  34.1370  0.00  0.00     0.000 OA
ATOM     33   O  A00 X   2      57.167  63.454  35.4180  0.00  0.00     0.000 OA
ENDBRANCH 21 30
BRANCH 24 34
ATOM     34   C  A00 X   2      57.581  69.050  32.7210  0.00  0.00     0.000 C
ATOM     35   O  A00 X   2      57.535  68.423  29.1350  0.00  0.00     0.000 OA
ATOM     36   O  A00 X   2      57.690  68.378  31.4510  0.00  0.00     0.000 O
ATOM     37   O  A00 X   2      55.590  68.664  30.4600  0.00  0.00     0.000 OA
ATOM     38   S  A00 X   2      56.945  69.078  30.2560  0.00  0.00     0.000 S
ATOM     39   O  A00 X   2      57.234  70.477  30.3620  0.00  0.00     0.000 OA
ENDBRANCH 24 34
BRANCH 20 40
ATOM     40  O4  A00 X   3      54.348  67.813  34.7650  0.00  0.00     0.000 O
BRANCH 40 44
ATOM     41  C1  A00 X   3      53.561  71.349  34.7540  0.00  0.00     0.000 C
ATOM     42  C2  A00 X   3      53.181  70.366  35.8830  0.00  0.00     0.000 C
ATOM     43  C3  A00 X   3      52.469  69.113  35.3120  0.00  0.00     0.000 C
ATOM     44  C4  A00 X   3      53.200  68.441  34.1560  0.00  0.00     0.000 C
ATOM     45  C5  A00 X   3      53.542  69.491  33.0610  0.00  0.00     0.000 C
ATOM     46  O5  A00 X   3      54.203  70.660  33.6460  0.00  0.00     0.000 O
ATOM     47   O  A00 X   3      51.995  68.173  36.2740  0.00  0.00     0.000 O
ATOM     49  HD  A00 X   3      52.272  67.601  35.6860  0.00  0.00     0.000 HD
BRANCH 42 49
ATOM     49   O  A00 X   3      54.404  70.013  36.5660  0.00  0.00     0.000 O
ATOM     50   O  A00 X   3      55.028  68.563  38.3650  0.00  0.00     0.000 OA
ATOM     51   O  A00 X   3      53.048  69.840  38.5630  0.00  0.00     0.000 OA
ATOM     52   O  A00 X   3      55.124  70.969  38.5860  0.00  0.00     0.000 OA
ATOM     53   S  A00 X   3      54.417  69.830  38.1110  0.00  0.00     0.000 S
ENDBRANCH 42 49
BRANCH 45 54
ATOM     54   C  A00 X   3      52.314  69.851  32.2170  0.00  0.00     0.000 C
ATOM     55   O  A00 X   3      51.211  69.448  32.5250  0.00  0.00     0.000 OA
ATOM     56   O  A00 X   3      52.423  70.548  31.2200  0.00  0.00     0.000 OA
ENDBRANCH 45 54
BRANCH 41 57
ATOM     57  O4  A00 X   4      52.439  72.172  34.3630  0.00  0.00     0.000 O
BRANCH 57 61
ATOM     58  C1  A00 X   4      52.124  76.250  32.9820  0.00  0.00     0.000 C
ATOM     59  C2  A00 X   4      52.933  75.239  32.1310  0.00  0.00     0.000 C
ATOM     60  C3  A00 X   4      52.679  73.768  32.5180  0.00  0.00     0.000 C
ATOM     61  C4  A00 X   4      52.767  73.554  34.0440  0.00  0.00     0.000 C
ATOM     62  C5  A00 X   4      51.729  74.512  34.6790  0.00  0.00     0.000 C
ATOM     63  O5  A00 X   4      52.098  75.882  34.3800  0.00  0.00     0.000 O
BRANCH 59 66
ATOM     64   N  A00 X   4      54.381  75.442  32.3120  0.00  0.00     0.000 N
ATOM     66  HD  A00 X   4      54.648  75.770  33.0680  0.00  0.00     0.000 HD
ATOM     66   O  A00 X   4      54.229  77.233  30.7080  0.00  0.00     0.000 OA
ATOM     67   S  A00 X   4      55.173  76.279  31.2030  0.00  0.00     0.000 S
ATOM     68   O  A00 X   4      56.237  76.820  31.9970  0.00  0.00     0.000 OA
ATOM     69   O  A00 X   4      55.576  75.218  30.3240  0.00  0.00     0.000 OA
ENDBRANCH 59 66
BRANCH 62 70
ATOM     70   C  A00 X   4      51.588  74.364  36.2130  0.00  0.00     0.000 C
ATOM     71   O  A00 X   4      53.957  75.268  38.7980  0.00  0.00     0.000 OA
ATOM     72   O  A00 X   4      52.748  73.277  38.4530  0.00  0.00     0.000 OA
ATOM     73   O  A00 X   4      52.657  75.075  36.8590  0.00  0.00     0.000 O
ATOM     74   O  A00 X   4      54.676  73.773  37.0480  0.00  0.00     0.000 OA
ATOM     75   S  A00 X   4      53.591  74.273  37.8300  0.00  0.00     0.000 S
ENDBRANCH 62 70
ENDBRANCH 57 61
ENDBRANCH 41 57
ENDBRANCH 40 44
ENDBRANCH 20 40
ENDBRANCH 19 23
ENDBRANCH 1 19
TORSDOF 14
ENDMDL
MODEL 52
REMARK VINA RESULT:       0.0     91.352     95.880
ROOT
ATOM      1  C1  A00 X   1      97.320  46.156  92.5190  0.00  0.00     0.000 C
ATOM      2  C2  A00 X   1      98.401  46.845  91.6440  0.00  0.00     0.000 C
ATOM      3  C3  A00 X   1      97.959  47.252  90.1990  0.00  0.00     0.000 C
ATOM      4  C4  A00 X   1      96.645  46.601  89.6940  0.00  0.00     0.000 C
ATOM      5  C5  A00 X   1      96.318  45.307  90.4390  0.00  0.00     0.000 C
ATOM      6  O5  A00 X   1      96.134  45.712  91.8140  0.00  0.00     0.000 O
ATOM      7   O  A00 X   1      98.981  46.865  89.2830  0.00  0.00     0.000 O
ATOM      9  HD  A00 X   1      98.221  46.675  88.9130  0.00  0.00     0.000 HD
ATOM      9   O  A00 X   1      95.545  47.505  89.7900  0.00  0.00     0.000 O
ATOM     11  HD  A00 X   1      94.785  47.315  89.4210  0.00  0.00     0.000 HD
ENDROOT
BRANCH 2 11
ATOM     11   O  A00 X   1      98.849  48.021  92.3460  0.00  0.00     0.000 O
ATOM     12   O  A00 X   1     100.328  49.619  91.3330  0.00  0.00     0.000 OA
ATOM     13   O  A00 X   1     101.114  47.351  91.7270  0.00  0.00     0.000 OA
ATOM     14   O  A00 X   1     100.683  48.811  93.5540  0.00  0.00     0.000 OA
ATOM     15   S  A00 X   1     100.344  48.468  92.2000  0.00  0.00     0.000 S
ENDBRANCH 2 11
BRANCH 5 16
ATOM     16   C  A00 X   1      97.343  44.182  90.2640  0.00  0.00     0.000 C
ATOM     17   O  A00 X   1      97.268  43.210  90.9870  0.00  0.00     0.000 OA
ATOM     18   O  A00 X   1      98.220  44.224  89.4250  0.00  0.00     0.000 OA
ENDBRANCH 5 16
BRANCH 1 19
ATOM     19  O4  A00 X   2      97.862  45.104  93.3550  0.00  0.00     0.000 O
BRANCH 19 23
ATOM     20  C1  A00 X   2      95.400  46.091  96.7210  0.00  0.00     0.000 C
ATOM     21  C2  A00 X   2      96.847  46.640  96.7090  0.00  0.00     0.000 C
ATOM     22  C3  A00 X   2      97.446  46.579  95.2880  0.00  0.00     0.000 C
ATOM     23  C4  A00 X   2      97.342  45.148  94.7150  0.00  0.00     0.000 C
ATOM     24  C5  A00 X   2      95.854  44.709  94.8000  0.00  0.00     0.000 C
ATOM     25  O5  A00 X   2      95.437  44.740  96.1890  0.00  0.00     0.000 O
ATOM     26   O  A00 X   2      98.760  47.162  95.3160  0.00  0.00     0.000 O
ATOM     28  HD  A00 X   2      99.012  46.685  95.9930  0.00  0.00     0.000 HD
BRANCH 21 30
ATOM     28   N  A00 X   2      96.881  46.480  98.1660  0.00  0.00     0.000 N
ATOM     30  HD  A00 X   2      97.543  46.997  97.9550  0.00  0.00     0.000 HD
ATOM     30   O  A00 X   2      98.254  48.150  99.0500  0.00  0.00     0.000 OA
ATOM     31   S  A00 X   2      98.243  46.736  98.9260  0.00  0.00     0.000 S
ATOM     32   O  A00 X   2      98.084  46.023 100.1550  0.00  0.00     0.000 OA
ATOM     33   O  A00 X   2      99.284  46.145  98.1390  0.00  0.00     0.000 OA
ENDBRANCH 21 30
BRANCH 24 34
ATOM     34   C  A00 X   2      95.441  43.404  94.0800  0.00  0.00     0.000 C
ATOM     35   O  A00 X   2      96.915  40.145  94.7590  0.00  0.00     0.000 OA
ATOM     36   O  A00 X   2      96.415  42.362  94.2880  0.00  0.00     0.000 O
ATOM     37   O  A00 X   2      95.917  41.513  96.4100  0.00  0.00     0.000 OA
ATOM     38   S  A00 X   2      95.885  41.089  95.0430  0.00  0.00     0.000 S
ATOM     39   O  A00 X   2      94.607  40.782  94.4740  0.00  0.00     0.000 OA
ENDBRANCH 24 34
BRANCH 20 40
ATOM     40  O4  A00 X   3      94.657  46.937  95.8310  0.00  0.00     0.000 O
BRANCH 40 44
ATOM     41  C1  A00 X   3      92.234  47.182  93.1490  0.00  0.00     0.000 C
ATOM     42  C2  A00 X   3      92.967  48.382  93.7850  0.00  0.00     0.000 C
ATOM     43  C3  A00 X   3      92.848  48.350  95.3310  0.00  0.00     0.000 C
ATOM     44  C4  A00 X   3      93.222  47.017  95.9670  0.00  0.00     0.000 C
ATOM     45  C5  A00 X   3      92.442  45.862  95.2780  0.00  0.00     0.000 C
ATOM     46  O5  A00 X   3      92.573  45.938  93.8210  0.00  0.00     0.000 O
ATOM     47   O  A00 X   3      93.416  49.461  96.0220  0.00  0.00     0.000 O
ATOM     49  HD  A00 X   3      93.657  48.845  96.5820  0.00  0.00     0.000 HD
BRANCH 42 49
ATOM     49   O  A00 X   3      94.345  48.310  93.3600  0.00  0.00     0.000 O
ATOM     50   O  A00 X   3      96.350  49.555  93.7630  0.00  0.00     0.000 OA
ATOM     51   O  A00 X   3      94.325  50.729  93.4340  0.00  0.00     0.000 OA
ATOM     52   O  A00 X   3      95.264  49.568  91.6020  0.00  0.00     0.000 OA
ATOM     53   S  A00 X   3      95.132  49.609  93.0180  0.00  0.00     0.000 S
ENDBRANCH 42 49
BRANCH 45 54
ATOM     54   C  A00 X   3      90.984  45.801  95.7500  0.00  0.00     0.000 C
ATOM     55   O  A00 X   3      90.296  44.829  95.5120  0.00  0.00     0.000 OA
ATOM     56   O  A00 X   3      90.489  46.728  96.3720  0.00  0.00     0.000 OA
ENDBRANCH 45 54
BRANCH 41 57
ATOM     57  O4  A00 X   4      90.813  47.421  93.0390  0.00  0.00     0.000 O
BRANCH 57 61
ATOM     58  C1  A00 X   4      87.836  46.169  90.1740  0.00  0.00     0.000 C
ATOM     59  C2  A00 X   4      88.586  45.084  90.9850  0.00  0.00     0.000 C
ATOM     60  C3  A00 X   4      89.344  45.643  92.2060  0.00  0.00     0.000 C
ATOM     61  C4  A00 X   4      90.187  46.884  91.8390  0.00  0.00     0.000 C
ATOM     62  C5  A00 X   4      89.201  47.918  91.2400  0.00  0.00     0.000 C
ATOM     63  O5  A00 X   4      88.620  47.375  90.0270  0.00  0.00     0.000 O
BRANCH 59 66
ATOM     64   N  A00 X   4      89.611  44.450  90.1370  0.00  0.00     0.000 N
ATOM     66  HD  A00 X   4      89.945  44.923  89.4920  0.00  0.00     0.000 HD
ATOM     66   O  A00 X   4      87.864  43.056  89.2410  0.00  0.00     0.000 OA
ATOM     67   S  A00 X   4      89.275  43.035  89.4720  0.00  0.00     0.000 S
ATOM     68   O  A00 X   4      90.093  43.100  88.2960  0.00  0.00     0.000 OA
ATOM     69   O  A00 X   4      89.774  42.153  90.4880  0.00  0.00     0.000 OA
ENDBRANCH 59 66
BRANCH 62 70
ATOM     70   C  A00 X   4      89.845  49.285  90.9070  0.00  0.00     0.000 C
ATOM     71   O  A00 X   4      92.250  50.083  88.3210  0.00  0.00     0.000 OA
ATOM     72   O  A00 X   4      92.240  50.598  90.6180  0.00  0.00     0.000 OA
ATOM     73   O  A00 X   4      90.545  49.188  89.6560  0.00  0.00     0.000 O
ATOM     74   O  A00 X   4      92.786  48.336  89.8940  0.00  0.00     0.000 OA
ATOM     75   S  A00 X   4      92.072  49.546  89.6400  0.00  0.00     0.000 S
ENDBRANCH 62 70
ENDBRANCH 57 61
ENDBRANCH 41 57
ENDBRANCH 40 44
ENDBRANCH 20 40
ENDBRANCH 19 23
ENDBRANCH 1 19
TORSDOF 14
ENDMDL
MODEL 53
REMARK VINA RESULT:       0.0     31.452     36.748
ROOT
ATOM      1  C1  A00 X   1      39.327  78.676  38.2240  0.00  0.00     0.000 C
ATOM      2  C2  A00 X   1      38.719  77.745  39.3060  0.00  0.00     0.000 C
ATOM      3  C3  A00 X   1      37.507  76.865  38.8550  0.00  0.00     0.000 C
ATOM      4  C4  A00 X   1      36.835  77.287  37.5220  0.00  0.00     0.000 C
ATOM      5  C5  A00 X   1      37.101  78.752  37.1800  0.00  0.00     0.000 C
ATOM      6  O5  A00 X   1      38.535  78.836  37.0200  0.00  0.00     0.000 O
ATOM      7   O  A00 X   1      36.495  76.931  39.8570  0.00  0.00     0.000 O
ATOM      9  HD  A00 X   1      36.097  76.974  39.0890  0.00  0.00     0.000 HD
ATOM      9   O  A00 X   1      37.253  76.454  36.4410  0.00  0.00     0.000 O
ATOM     11  HD  A00 X   1      36.854  76.497  35.6730  0.00  0.00     0.000 HD
ENDROOT
BRANCH 2 11
ATOM     11   O  A00 X   1      39.770  76.884  39.7860  0.00  0.00     0.000 O
ATOM     12   O  A00 X   1      39.336  75.067  41.2940  0.00  0.00     0.000 OA
ATOM     13   O  A00 X   1      38.929  77.349  42.0310  0.00  0.00     0.000 OA
ATOM     14   O  A00 X   1      41.148  76.584  41.6460  0.00  0.00     0.000 OA
ATOM     15   S  A00 X   1      39.763  76.443  41.2900  0.00  0.00     0.000 S
ENDBRANCH 2 11
BRANCH 5 16
ATOM     16   C  A00 X   1      36.535  79.765  38.1800  0.00  0.00     0.000 C
ATOM     17   O  A00 X   1      36.889  80.923  38.0970  0.00  0.00     0.000 OA
ATOM     18   O  A00 X   1      35.742  79.452  39.0460  0.00  0.00     0.000 OA
ENDBRANCH 5 16
BRANCH 1 19
ATOM     19  O4  A00 X   2      39.746  79.956  38.7550  0.00  0.00     0.000 O
BRANCH 19 23
ATOM     20  C1  A00 X   2      43.282  80.148  36.3420  0.00  0.00     0.000 C
ATOM     21  C2  A00 X   2      43.437  79.646  37.7980  0.00  0.00     0.000 C
ATOM     22  C3  A00 X   2      42.072  79.225  38.3830  0.00  0.00     0.000 C
ATOM     23  C4  A00 X   2      41.046  80.373  38.2490  0.00  0.00     0.000 C
ATOM     24  C5  A00 X   2      40.998  80.795  36.7550  0.00  0.00     0.000 C
ATOM     25  O5  A00 X   2      42.320  81.236  36.3510  0.00  0.00     0.000 O
ATOM     26   O  A00 X   2      42.278  78.705  39.7070  0.00  0.00     0.000 O
ATOM     28  HD  A00 X   2      42.748  79.388  39.9570  0.00  0.00     0.000 HD
BRANCH 21 30
ATOM     28   N  A00 X   2      44.750  80.297  37.8450  0.00  0.00     0.000 N
ATOM     30  HD  A00 X   2      44.720  79.746  38.5120  0.00  0.00     0.000 HD
ATOM     30   O  A00 X   2      46.132  79.045  39.2530  0.00  0.00     0.000 OA
ATOM     31   S  A00 X   2      45.531  80.331  39.2190  0.00  0.00     0.000 S
ATOM     32   O  A00 X   2      46.445  81.421  39.0610  0.00  0.00     0.000 OA
ATOM     33   O  A00 X   2      44.574  80.628  40.2420  0.00  0.00     0.000 OA
ENDBRANCH 21 30
BRANCH 24 34
ATOM     34   C  A00 X   2      39.882  81.771  36.3130  0.00  0.00     0.000 C
ATOM     35   O  A00 X   2      39.408  85.099  37.7120  0.00  0.00     0.000 OA
ATOM     36   O  A00 X   2      39.718  82.843  37.2630  0.00  0.00     0.000 O
ATOM     37   O  A00 X   2      41.431  84.348  36.7430  0.00  0.00     0.000 OA
ATOM     38   S  A00 X   2      40.002  84.284  36.7030  0.00  0.00     0.000 S
ATOM     39   O  A00 X   2      39.371  84.352  35.4190  0.00  0.00     0.000 OA
ENDBRANCH 24 34
BRANCH 20 40
ATOM     40  O4  A00 X   3      42.745  79.039  35.6050  0.00  0.00     0.000 O
BRANCH 40 44
ATOM     41  C1  A00 X   3      40.363  77.856  33.1460  0.00  0.00     0.000 C
ATOM     42  C2  A00 X   3      41.351  76.955  33.9190  0.00  0.00     0.000 C
ATOM     43  C3  A00 X   3      42.796  77.508  33.8240  0.00  0.00     0.000 C
ATOM     44  C4  A00 X   3      42.934  78.984  34.1750  0.00  0.00     0.000 C
ATOM     45  C5  A00 X   3      41.913  79.823  33.3560  0.00  0.00     0.000 C
ATOM     46  O5  A00 X   3      40.566  79.260  33.4650  0.00  0.00     0.000 O
ATOM     47   O  A00 X   3      43.810  76.708  34.4300  0.00  0.00     0.000 O
ATOM     49  HD  A00 X   3      44.121  77.482  34.6650  0.00  0.00     0.000 HD
BRANCH 42 49
ATOM     49   O  A00 X   3      40.894  76.904  35.2880  0.00  0.00     0.000 O
ATOM     50   O  A00 X   3      41.645  75.902  37.3290  0.00  0.00     0.000 OA
ATOM     51   O  A00 X   3      41.779  74.651  35.3270  0.00  0.00     0.000 OA
ATOM     52   O  A00 X   3      39.642  75.143  36.2080  0.00  0.00     0.000 OA
ATOM     53   S  A00 X   3      40.991  75.579  36.1000  0.00  0.00     0.000 S
ENDBRANCH 42 49
BRANCH 45 54
ATOM     54   C  A00 X   3      42.371  80.015  31.9050  0.00  0.00     0.000 C
ATOM     55   O  A00 X   3      43.317  79.392  31.4670  0.00  0.00     0.000 OA
ATOM     56   O  A00 X   3      41.794  80.796  31.1650  0.00  0.00     0.000 OA
ENDBRANCH 45 54
BRANCH 41 57
ATOM     57  O4  A00 X   4      40.374  77.568  31.7300  0.00  0.00     0.000 O
BRANCH 57 61
ATOM     58  C1  A00 X   4      37.323  77.711  28.6790  0.00  0.00     0.000 C
ATOM     59  C2  A00 X   4      37.699  79.022  29.4130  0.00  0.00     0.000 C
ATOM     60  C3  A00 X   4      39.020  78.927  30.2040  0.00  0.00     0.000 C
ATOM     61  C4  A00 X   4      39.078  77.652  31.0720  0.00  0.00     0.000 C
ATOM     62  C5  A00 X   4      38.889  76.457  30.1050  0.00  0.00     0.000 C
ATOM     63  O5  A00 X   4      37.578  76.542  29.4910  0.00  0.00     0.000 O
BRANCH 59 66
ATOM     64   N  A00 X   4      36.669  79.362  30.4120  0.00  0.00     0.000 N
ATOM     66  HD  A00 X   4      36.217  78.710  30.7580  0.00  0.00     0.000 HD
ATOM     66   O  A00 X   4      35.385  80.319  28.6130  0.00  0.00     0.000 OA
ATOM     67   S  A00 X   4      35.571  80.459  30.0230  0.00  0.00     0.000 S
ATOM     68   O  A00 X   4      34.473  80.025  30.8370  0.00  0.00     0.000 OA
ATOM     69   O  A00 X   4      36.222  81.647  30.4980  0.00  0.00     0.000 OA
ENDBRANCH 59 66
BRANCH 62 70
ATOM     70   C  A00 X   4      39.028  75.070  30.7780  0.00  0.00     0.000 C
ATOM     71   O  A00 X   4      36.815  73.485  33.1660  0.00  0.00     0.000 OA
ATOM     72   O  A00 X   4      39.150  73.784  33.2020  0.00  0.00     0.000 OA
ATOM     73   O  A00 X   4      37.803  74.749  31.4580  0.00  0.00     0.000 O
ATOM     74   O  A00 X   4      37.688  75.674  33.6800  0.00  0.00     0.000 OA
ATOM     75   S  A00 X   4      37.877  74.437  32.9930  0.00  0.00     0.000 S
ENDBRANCH 62 70
ENDBRANCH 57 61
ENDBRANCH 41 57
ENDBRANCH 40 44
ENDBRANCH 20 40
ENDBRANCH 19 23
ENDBRANCH 1 19
TORSDOF 14
ENDMDL
MODEL 54
REMARK VINA RESULT:       0.0    105.093    109.496
ROOT
ATOM      1  C1  A00 X   1     134.155  56.714  72.2660  0.00  0.00     0.000 C
ATOM      2  C2  A00 X   1     133.071  57.648  72.8660  0.00  0.00     0.000 C
ATOM      3  C3  A00 X   1     133.458  58.388  74.1890  0.00  0.00     0.000 C
ATOM      4  C4  A00 X   1     134.702  57.831  74.9270  0.00  0.00     0.000 C
ATOM      5  C5  A00 X   1     134.992  56.378  74.5530  0.00  0.00     0.000 C
ATOM      6  O5  A00 X   1     135.274  56.412  73.1360  0.00  0.00     0.000 O
ATOM      7   O  A00 X   1     132.368  58.292  75.1030  0.00  0.00     0.000 O
ATOM      9  HD  A00 X   1     133.094  58.169  75.5580  0.00  0.00     0.000 HD
ATOM      9   O  A00 X   1     135.858  58.632  74.6810  0.00  0.00     0.000 O
ATOM     11  HD  A00 X   1     136.584  58.509  75.1360  0.00  0.00     0.000 HD
ENDROOT
BRANCH 2 11
ATOM     11   O  A00 X   1     132.731  58.626  71.8640  0.00  0.00     0.000 O
ATOM     12   O  A00 X   1     131.320  60.507  72.3510  0.00  0.00     0.000 OA
ATOM     13   O  A00 X   1     130.402  58.260  72.5030  0.00  0.00     0.000 OA
ATOM     14   O  A00 X   1     131.004  59.175  70.3920  0.00  0.00     0.000 OA
ATOM     15   S  A00 X   1     131.264  59.174  71.8060  0.00  0.00     0.000 S
ENDBRANCH 2 11
BRANCH 5 16
ATOM     16   C  A00 X   1     133.895  55.379  74.9360  0.00  0.00     0.000 C
ATOM     17   O  A00 X   1     133.948  54.255  74.4810  0.00  0.00     0.000 OA
ATOM     18   O  A00 X   1     132.982  55.669  75.6830  0.00  0.00     0.000 OA
ENDBRANCH 5 16
BRANCH 1 19
ATOM     19  O4  A00 X   2     133.598  55.509  71.6850  0.00  0.00     0.000 O
BRANCH 19 23
ATOM     20  C1  A00 X   2     136.275  55.514  68.3390  0.00  0.00     0.000 C
ATOM     21  C2  A00 X   2     134.862  56.108  68.1250  0.00  0.00     0.000 C
ATOM     22  C3  A00 X   2     134.191  56.432  69.4760  0.00  0.00     0.000 C
ATOM     23  C4  A00 X   2     134.186  55.188  70.3920  0.00  0.00     0.000 C
ATOM     24  C5  A00 X   2     135.649  54.681  70.5120  0.00  0.00     0.000 C
ATOM     25  O5  A00 X   2     136.136  54.343  69.1870  0.00  0.00     0.000 O
ATOM     26   O  A00 X   2     132.914  57.042  69.2220  0.00  0.00     0.000 O
ATOM     28  HD  A00 X   2     132.670  56.421  68.6700  0.00  0.00     0.000 HD
BRANCH 21 30
ATOM     28   N  A00 X   2     134.889  55.586  66.7550  0.00  0.00     0.000 N
ATOM     30  HD  A00 X   2     134.249  56.169  66.7880  0.00  0.00     0.000 HD
ATOM     30   O  A00 X   2     133.659  57.038  65.3990  0.00  0.00     0.000 OA
ATOM     31   S  A00 X   2     133.582  55.702  65.8730  0.00  0.00     0.000 S
ATOM     32   O  A00 X   2     133.758  54.695  64.8730  0.00  0.00     0.000 OA
ATOM     33   O  A00 X   2     132.472  55.375  66.7170  0.00  0.00     0.000 OA
ENDBRANCH 21 30
BRANCH 24 34
ATOM     34   C  A00 X   2     135.953  53.582  71.5580  0.00  0.00     0.000 C
ATOM     35   O  A00 X   2     137.209  50.266  70.7280  0.00  0.00     0.000 OA
ATOM     36   O  A00 X   2     136.090  52.290  70.9330  0.00  0.00     0.000 O
ATOM     37   O  A00 X   2     138.270  52.280  70.0860  0.00  0.00     0.000 OA
ATOM     38   S  A00 X   2     137.501  51.614  71.0920  0.00  0.00     0.000 S
ATOM     39   O  A00 X   2     137.889  51.803  72.4580  0.00  0.00     0.000 OA
ENDBRANCH 24 34
BRANCH 20 40
ATOM     40  O4  A00 X   3     137.019  56.525  69.0360  0.00  0.00     0.000 O
BRANCH 40 44
ATOM     41  C1  A00 X   3     139.337  57.351  71.6940  0.00  0.00     0.000 C
ATOM     42  C2  A00 X   3     138.686  58.379  70.7420  0.00  0.00     0.000 C
ATOM     43  C3  A00 X   3     138.868  57.956  69.2620  0.00  0.00     0.000 C
ATOM     44  C4  A00 X   3     138.460  56.520  68.9590  0.00  0.00     0.000 C
ATOM     45  C5  A00 X   3     139.157  55.548  69.9520  0.00  0.00     0.000 C
ATOM     46  O5  A00 X   3     138.969  55.991  71.3350  0.00  0.00     0.000 O
ATOM     47   O  A00 X   3     138.381  58.877  68.2870  0.00  0.00     0.000 O
ATOM     49  HD  A00 X   3     138.135  58.150  67.8870  0.00  0.00     0.000 HD
BRANCH 42 49
ATOM     49   O  A00 X   3     137.290  58.462  71.1000  0.00  0.00     0.000 O
ATOM     50   O  A00 X   3     135.362  59.633  70.2970  0.00  0.00     0.000 OA
ATOM     51   O  A00 X   3     137.424  60.783  70.4270  0.00  0.00     0.000 OA
ATOM     52   O  A00 X   3     136.357  60.151  72.4390  0.00  0.00     0.000 OA
ATOM     53   S  A00 X   3     136.550  59.831  71.0670  0.00  0.00     0.000 S
ENDBRANCH 42 49
BRANCH 45 54
ATOM     54   C  A00 X   3     140.629  55.322  69.5860  0.00  0.00     0.000 C
ATOM     55   O  A00 X   3     141.286  54.476  70.1580  0.00  0.00     0.000 OA
ATOM     56   O  A00 X   3     141.166  55.987  68.7140  0.00  0.00     0.000 OA
ENDBRANCH 45 54
BRANCH 41 57
ATOM     57  O4  A00 X   4     140.761  57.562  71.8150  0.00  0.00     0.000 O
BRANCH 57 61
ATOM     58  C1  A00 X   4     143.544  57.049  75.0750  0.00  0.00     0.000 C
ATOM     59  C2  A00 X   4     142.792  55.805  74.5400  0.00  0.00     0.000 C
ATOM     60  C3  A00 X   4     142.117  56.036  73.1720  0.00  0.00     0.000 C
ATOM     61  C4  A00 X   4     141.307  57.350  73.1480  0.00  0.00     0.000 C
ATOM     62  C5  A00 X   4     142.301  58.482  73.5070  0.00  0.00     0.000 C
ATOM     63  O5  A00 X   4     142.802  58.269  74.8510  0.00  0.00     0.000 O
BRANCH 59 66
ATOM     64   N  A00 X   4     141.700  55.430  75.4560  0.00  0.00     0.000 N
ATOM     66  HD  A00 X   4     141.341  56.060  75.9300  0.00  0.00     0.000 HD
ATOM     66   O  A00 X   4     143.348  54.300  76.7990  0.00  0.00     0.000 OA
ATOM     67   S  A00 X   4     141.954  54.236  76.4890  0.00  0.00     0.000 S
ATOM     68   O  A00 X   4     141.068  54.619  77.5500  0.00  0.00     0.000 OA
ATOM     69   O  A00 X   4     141.492  53.123  75.7090  0.00  0.00     0.000 OA
ENDBRANCH 59 66
BRANCH 62 70
ATOM     70   C  A00 X   4     141.696  59.904  73.4270  0.00  0.00     0.000 C
ATOM     71   O  A00 X   4     139.232  61.438  75.5910  0.00  0.00     0.000 OA
ATOM     72   O  A00 X   4     139.341  61.305  73.2420  0.00  0.00     0.000 OA
ATOM     73   O  A00 X   4     140.949  60.170  74.6250  0.00  0.00     0.000 O
ATOM     74   O  A00 X   4     138.689  59.342  74.5300  0.00  0.00     0.000 OA
ATOM     75   S  A00 X   4     139.437  60.556  74.4760  0.00  0.00     0.000 S
ENDBRANCH 62 70
ENDBRANCH 57 61
ENDBRANCH 41 57
ENDBRANCH 40 44
ENDBRANCH 20 40
ENDBRANCH 19 23
ENDBRANCH 1 19
TORSDOF 14
ENDMDL
MODEL 55
REMARK VINA RESULT:       0.0     44.620     50.003
ROOT
ATOM      1  C1  A00 X   1      61.265  68.705  18.4930  0.00  0.00     0.000 C
ATOM      2  C2  A00 X   1      61.426  67.513  19.4740  0.00  0.00     0.000 C
ATOM      3  C3  A00 X   1      62.283  67.788  20.7530  0.00  0.00     0.000 C
ATOM      4  C4  A00 X   1      63.157  69.068  20.7110  0.00  0.00     0.000 C
ATOM      5  C5  A00 X   1      63.447  69.521  19.2800  0.00  0.00     0.000 C
ATOM      6  O5  A00 X   1      62.150  69.830  18.7230  0.00  0.00     0.000 O
ATOM      7   O  A00 X   1      63.176  66.694  20.9490  0.00  0.00     0.000 O
ATOM      9  HD  A00 X   1      63.620  67.419  21.1160  0.00  0.00     0.000 HD
ATOM      9   O  A00 X   1      62.556  70.135  21.4430  0.00  0.00     0.000 O
ATOM     11  HD  A00 X   1      62.999  70.860  21.6090  0.00  0.00     0.000 HD
ENDROOT
BRANCH 2 11
ATOM     11   O  A00 X   1      60.107  67.093  19.8740  0.00  0.00     0.000 O
ATOM     12   O  A00 X   1      59.762  65.481  21.6190  0.00  0.00     0.000 OA
ATOM     13   O  A00 X   1      60.906  64.803  19.5820  0.00  0.00     0.000 OA
ATOM     14   O  A00 X   1      58.591  65.349  19.5400  0.00  0.00     0.000 OA
ATOM     15   S  A00 X   1      59.856  65.578  20.1850  0.00  0.00     0.000 S
ENDBRANCH 2 11
BRANCH 5 16
ATOM     16   C  A00 X   1      64.256  68.530  18.4380  0.00  0.00     0.000 C
ATOM     17   O  A00 X   1      64.339  68.716  17.2410  0.00  0.00     0.000 OA
ATOM     18   O  A00 X   1      64.822  67.571  18.9240  0.00  0.00     0.000 OA
ENDBRANCH 5 16
BRANCH 1 19
ATOM     19  O4  A00 X   2      61.283  68.295  17.1030  0.00  0.00     0.000 O
BRANCH 19 23
ATOM     20  C1  A00 X   2      58.205  71.038  15.9370  0.00  0.00     0.000 C
ATOM     21  C2  A00 X   2      57.790  69.572  16.2090  0.00  0.00     0.000 C
ATOM     22  C3  A00 X   2      58.877  68.834  17.0170  0.00  0.00     0.000 C
ATOM     23  C4  A00 X   2      60.249  68.949  16.3140  0.00  0.00     0.000 C
ATOM     24  C5  A00 X   2      60.539  70.457  16.0830  0.00  0.00     0.000 C
ATOM     25  O5  A00 X   2      59.486  71.013  15.2530  0.00  0.00     0.000 O
ATOM     26   O  A00 X   2      58.416  67.503  17.3020  0.00  0.00     0.000 O
ATOM     28  HD  A00 X   2      58.202  67.346  16.4780  0.00  0.00     0.000 HD
BRANCH 21 30
ATOM     28   N  A00 X   2      56.789  69.698  15.1450  0.00  0.00     0.000 N
ATOM     30  HD  A00 X   2      56.581  68.993  15.6020  0.00  0.00     0.000 HD
ATOM     30   O  A00 X   2      54.968  68.341  15.6950  0.00  0.00     0.000 OA
ATOM     31   S  A00 X   2      55.984  68.411  14.7050  0.00  0.00     0.000 S
ATOM     32   O  A00 X   2      55.523  68.733  13.3890  0.00  0.00     0.000 OA
ATOM     33   O  A00 X   2      56.917  67.325  14.6530  0.00  0.00     0.000 OA
ENDBRANCH 21 30
BRANCH 24 34
ATOM     34   C  A00 X   2      61.953  70.858  15.6020  0.00  0.00     0.000 C
ATOM     35   O  A00 X   2      62.642  72.475  12.4120  0.00  0.00     0.000 OA
ATOM     36   O  A00 X   2      61.964  71.143  14.1880  0.00  0.00     0.000 O
ATOM     37   O  A00 X   2      61.139  73.326  14.0280  0.00  0.00     0.000 OA
ATOM     38   S  A00 X   2      62.361  72.615  13.8030  0.00  0.00     0.000 S
ATOM     39   O  A00 X   2      63.487  72.957  14.6190  0.00  0.00     0.000 OA
ENDBRANCH 24 34
BRANCH 20 40
ATOM     40  O4  A00 X   3      58.363  71.643  17.2290  0.00  0.00     0.000 O
BRANCH 40 44
ATOM     41  C1  A00 X   3      60.358  73.755  19.3920  0.00  0.00     0.000 C
ATOM     42  C2  A00 X   3      59.059  73.039  19.8170  0.00  0.00     0.000 C
ATOM     43  C3  A00 X   3      57.914  73.322  18.8100  0.00  0.00     0.000 C
ATOM     44  C4  A00 X   3      58.280  73.079  17.3510  0.00  0.00     0.000 C
ATOM     45  C5  A00 X   3      59.592  73.835  16.9990  0.00  0.00     0.000 C
ATOM     46  O5  A00 X   3      60.640  73.547  17.9800  0.00  0.00     0.000 O
ATOM     47   O  A00 X   3      56.639  72.780  19.1480  0.00  0.00     0.000 O
ATOM     49  HD  A00 X   3      56.603  72.627  18.2960  0.00  0.00     0.000 HD
BRANCH 42 49
ATOM     49   O  A00 X   3      59.358  71.628  19.8930  0.00  0.00     0.000 O
ATOM     50   O  A00 X   3      58.147  69.623  20.3890  0.00  0.00     0.000 OA
ATOM     51   O  A00 X   3      57.752  71.550  21.7010  0.00  0.00     0.000 OA
ATOM     52   O  A00 X   3      59.850  70.476  21.8790  0.00  0.00     0.000 OA
ATOM     53   S  A00 X   3      58.746  70.754  21.0260  0.00  0.00     0.000 S
ENDBRANCH 42 49
BRANCH 45 54
ATOM     54   C  A00 X   3      59.347  75.335  16.8000  0.00  0.00     0.000 C
ATOM     55   O  A00 X   3      58.313  75.849  17.1750  0.00  0.00     0.000 OA
ATOM     56   O  A00 X   3      60.186  76.040  16.2610  0.00  0.00     0.000 OA
ENDBRANCH 45 54
BRANCH 41 57
ATOM     57  O4  A00 X   4      60.358  75.144  19.7910  0.00  0.00     0.000 O
BRANCH 57 61
ATOM     58  C1  A00 X   4      63.505  77.876  20.9190  0.00  0.00     0.000 C
ATOM     59  C2  A00 X   4      63.539  77.251  19.5020  0.00  0.00     0.000 C
ATOM     60  C3  A00 X   4      62.206  76.594  19.0880  0.00  0.00     0.000 C
ATOM     61  C4  A00 X   4      61.653  75.672  20.1960  0.00  0.00     0.000 C
ATOM     62  C5  A00 X   4      61.502  76.552  21.4610  0.00  0.00     0.000 C
ATOM     63  O5  A00 X   4      62.809  77.034  21.8660  0.00  0.00     0.000 O
BRANCH 59 66
ATOM     64   N  A00 X   4      64.501  76.183  19.1740  0.00  0.00     0.000 N
ATOM     66  HD  A00 X   4      64.696  75.615  19.7980  0.00  0.00     0.000 HD
ATOM     66   O  A00 X   4      66.210  77.878  19.1150  0.00  0.00     0.000 OA
ATOM     67   S  A00 X   4      65.912  76.601  18.5470  0.00  0.00     0.000 S
ATOM     68   O  A00 X   4      66.730  75.516  19.0050  0.00  0.00     0.000 OA
ATOM     69   O  A00 X   4      65.593  76.548  17.1490  0.00  0.00     0.000 OA
ENDBRANCH 59 66
BRANCH 62 70
ATOM     70   C  A00 X   4      60.852  75.826  22.6630  0.00  0.00     0.000 C
ATOM     71   O  A00 X   4      62.188  73.119  24.6620  0.00  0.00     0.000 OA
ATOM     72   O  A00 X   4      60.090  73.368  23.6210  0.00  0.00     0.000 OA
ATOM     73   O  A00 X   4      61.833  74.994  23.3020  0.00  0.00     0.000 O
ATOM     74   O  A00 X   4      62.046  72.826  22.2730  0.00  0.00     0.000 OA
ATOM     75   S  A00 X   4      61.521  73.463  23.4370  0.00  0.00     0.000 S
ENDBRANCH 62 70
ENDBRANCH 57 61
ENDBRANCH 41 57
ENDBRANCH 40 44
ENDBRANCH 20 40
ENDBRANCH 19 23
ENDBRANCH 1 19
TORSDOF 14
ENDMDL
MODEL 56
REMARK VINA RESULT:       0.0    112.152    116.679
ROOT
ATOM      1  C1  A00 X   1     108.775  47.130 114.6900  0.00  0.00     0.000 C
ATOM      2  C2  A00 X   1     107.409  47.385 113.9990  0.00  0.00     0.000 C
ATOM      3  C3  A00 X   1     107.435  48.324 112.7490  0.00  0.00     0.000 C
ATOM      4  C4  A00 X   1     108.725  49.167 112.5730  0.00  0.00     0.000 C
ATOM      5  C5  A00 X   1     109.482  49.345 113.8890  0.00  0.00     0.000 C
ATOM      6  O5  A00 X   1     109.856  48.005 114.2810  0.00  0.00     0.000 O
ATOM      7   O  A00 X   1     106.357  49.252 112.8510  0.00  0.00     0.000 O
ATOM      9  HD  A00 X   1     107.045  49.691 112.5620  0.00  0.00     0.000 HD
ATOM      9   O  A00 X   1     109.590  48.596 111.5910  0.00  0.00     0.000 O
ATOM     11  HD  A00 X   1     110.279  49.036 111.3030  0.00  0.00     0.000 HD
ENDROOT
BRANCH 2 11
ATOM     11   O  A00 X   1     106.867  46.106 113.6140  0.00  0.00     0.000 O
ATOM     12   O  A00 X   1     104.879  45.920 112.2790  0.00  0.00     0.000 OA
ATOM     13   O  A00 X   1     104.735  46.907 114.4970  0.00  0.00     0.000 OA
ATOM     14   O  A00 X   1     105.205  44.590 114.2380  0.00  0.00     0.000 OA
ATOM     15   S  A00 X   1     105.314  45.899 113.6530  0.00  0.00     0.000 S
ENDBRANCH 2 11
BRANCH 5 16
ATOM     16   C  A00 X   1     108.722  50.112 114.9750  0.00  0.00     0.000 C
ATOM     17   O  A00 X   1     109.173  50.124 116.1020  0.00  0.00     0.000 OA
ATOM     18   O  A00 X   1     107.691  50.714 114.7480  0.00  0.00     0.000 OA
ENDBRANCH 5 16
BRANCH 1 19
ATOM     19  O4  A00 X   2     108.670  47.058 116.1330  0.00  0.00     0.000 O
BRANCH 19 23
ATOM     20  C1  A00 X   2     111.488  43.847 116.4810  0.00  0.00     0.000 C
ATOM     21  C2  A00 X   2     109.984  43.483 116.5040  0.00  0.00     0.000 C
ATOM     22  C3  A00 X   2     109.130  44.641 115.9460  0.00  0.00     0.000 C
ATOM     23  C4  A00 X   2     109.440  45.956 116.6940  0.00  0.00     0.000 C
ATOM     24  C5  A00 X   2     110.973  46.198 116.6140  0.00  0.00     0.000 C
ATOM     25  O5  A00 X   2     111.655  45.077 117.2350  0.00  0.00     0.000 O
ATOM     26   O  A00 X   2     107.752  44.229 115.9240  0.00  0.00     0.000 O
ATOM     28  HD  A00 X   2     107.767  43.961 116.7470  0.00  0.00     0.000 HD
BRANCH 21 30
ATOM     28   N  A00 X   2     110.298  42.407 117.4480  0.00  0.00     0.000 N
ATOM     30  HD  A00 X   2     109.504  42.247 117.1420  0.00  0.00     0.000 HD
ATOM     30   O  A00 X   2     108.790  40.659 117.0870  0.00  0.00     0.000 OA
ATOM     31   S  A00 X   2     109.107  41.600 118.1030  0.00  0.00     0.000 S
ATOM     32   O  A00 X   2     109.686  41.040 119.2850  0.00  0.00     0.000 OA
ATOM     33   O  A00 X   2     108.091  42.550 118.4480  0.00  0.00     0.000 OA
ENDBRANCH 21 30
BRANCH 24 34
ATOM     34   C  A00 X   2     111.518  47.566 117.0880  0.00  0.00     0.000 C
ATOM     35   O  A00 X   2     113.788  47.994 119.9020  0.00  0.00     0.000 OA
ATOM     36   O  A00 X   2     112.091  47.471 118.4080  0.00  0.00     0.000 O
ATOM     37   O  A00 X   2     114.227  46.588 118.0520  0.00  0.00     0.000 OA
ATOM     38   S  A00 X   2     113.624  47.807 118.4980  0.00  0.00     0.000 S
ATOM     39   O  A00 X   2     113.830  48.979 117.7020  0.00  0.00     0.000 OA
ENDBRANCH 24 34
BRANCH 20 40
ATOM     40  O4  A00 X   3     111.809  44.083 115.1020  0.00  0.00     0.000 O
BRANCH 40 44
ATOM     41  C1  A00 X   3     113.500  46.159 112.6620  0.00  0.00     0.000 C
ATOM     42  C2  A00 X   3     112.648  44.917 112.3220  0.00  0.00     0.000 C
ATOM     43  C3  A00 X   3     113.085  43.694 113.1680  0.00  0.00     0.000 C
ATOM     44  C4  A00 X   3     113.179  43.962 114.6650  0.00  0.00     0.000 C
ATOM     45  C5  A00 X   3     114.055  45.219 114.9270  0.00  0.00     0.000 C
ATOM     46  O5  A00 X   3     113.614  46.345 114.1000  0.00  0.00     0.000 O
ATOM     47   O  A00 X   3     112.422  42.465 112.8760  0.00  0.00     0.000 O
ATOM     49  HD  A00 X   3     112.455  42.373 113.7370  0.00  0.00     0.000 HD
BRANCH 42 49
ATOM     49   O  A00 X   3     111.270  45.268 112.5740  0.00  0.00     0.000 O
ATOM     50   O  A00 X   3     109.151  44.160 112.4620  0.00  0.00     0.000 OA
ATOM     51   O  A00 X   3     110.726  43.785 110.7400  0.00  0.00     0.000 OA
ATOM     52   O  A00 X   3     109.739  45.925 110.9180  0.00  0.00     0.000 OA
ATOM     53   S  A00 X   3     110.143  44.760 111.6270  0.00  0.00     0.000 S
ENDBRANCH 42 49
BRANCH 45 54
ATOM     54   C  A00 X   3     115.550  44.911 114.7780  0.00  0.00     0.000 C
ATOM     55   O  A00 X   3     115.921  43.827 114.3780  0.00  0.00     0.000 OA
ATOM     56   O  A00 X   3     116.392  45.749 115.0610  0.00  0.00     0.000 OA
ENDBRANCH 45 54
BRANCH 41 57
ATOM     57  O4  A00 X   4     114.769  46.141 111.9700  0.00  0.00     0.000 O
BRANCH 57 61
ATOM     58  C1  A00 X   4     117.273  49.258 110.3420  0.00  0.00     0.000 C
ATOM     59  C2  A00 X   4     116.990  49.255 111.8650  0.00  0.00     0.000 C
ATOM     60  C3  A00 X   4     116.401  47.924 112.3770  0.00  0.00     0.000 C
ATOM     61  C4  A00 X   4     115.232  47.436 111.4950  0.00  0.00     0.000 C
ATOM     62  C5  A00 X   4     115.795  47.310 110.0570  0.00  0.00     0.000 C
ATOM     63  O5  A00 X   4     116.214  48.619 109.5920  0.00  0.00     0.000 O
BRANCH 59 66
ATOM     64   N  A00 X   4     115.974  50.299 112.0860  0.00  0.00     0.000 N
ATOM     66  HD  A00 X   4     115.458  50.503 111.4200  0.00  0.00     0.000 HD
ATOM     66   O  A00 X   4     117.777  51.893 112.1770  0.00  0.00     0.000 OA
ATOM     67   S  A00 X   4     116.451  51.707 112.6780  0.00  0.00     0.000 S
ATOM     68   O  A00 X   4     115.454  52.573 112.1200  0.00  0.00     0.000 OA
ATOM     69   O  A00 X   4     116.294  51.457 114.0830  0.00  0.00     0.000 OA
ENDBRANCH 59 66
BRANCH 62 70
ATOM     70   C  A00 X   4     114.792  46.723 109.0350  0.00  0.00     0.000 C
ATOM     71   O  A00 X   4     111.785  48.231 107.6970  0.00  0.00     0.000 OA
ATOM     72   O  A00 X   4     112.148  46.100 108.6290  0.00  0.00     0.000 OA
ATOM     73   O  A00 X   4     113.891  47.757 108.6070  0.00  0.00     0.000 O
ATOM     74   O  A00 X   4     112.014  48.045 110.0900  0.00  0.00     0.000 OA
ATOM     75   S  A00 X   4     112.354  47.520 108.8070  0.00  0.00     0.000 S
ENDBRANCH 62 70
ENDBRANCH 57 61
ENDBRANCH 41 57
ENDBRANCH 40 44
ENDBRANCH 20 40
ENDBRANCH 19 23
ENDBRANCH 1 19
TORSDOF 14
ENDMDL
MODEL 57
REMARK VINA RESULT:       0.0     97.237    102.270
ROOT
ATOM      1  C1  A00 X   1      20.106  58.573 122.8860  0.00  0.00     0.000 C
ATOM      2  C2  A00 X   1      20.110  60.077 123.2660  0.00  0.00     0.000 C
ATOM      3  C3  A00 X   1      20.751  60.436 124.6470  0.00  0.00     0.000 C
ATOM      4  C4  A00 X   1      20.964  59.243 125.6150  0.00  0.00     0.000 C
ATOM      5  C5  A00 X   1      20.043  58.067 125.2920  0.00  0.00     0.000 C
ATOM      6  O5  A00 X   1      20.428  57.655 123.9610  0.00  0.00     0.000 O
ATOM      7   O  A00 X   1      19.898  61.358 125.3220  0.00  0.00     0.000 O
ATOM      9  HD  A00 X   1      20.178  60.790 125.9120  0.00  0.00     0.000 HD
ATOM      9   O  A00 X   1      22.323  58.807 125.6150  0.00  0.00     0.000 O
ATOM     11  HD  A00 X   1      22.603  58.239 126.2060  0.00  0.00     0.000 HD
ENDROOT
BRANCH 2 11
ATOM     11   O  A00 X   1      20.808  60.790 122.2260  0.00  0.00     0.000 O
ATOM     12   O  A00 X   1      20.998  63.184 122.2340  0.00  0.00     0.000 OA
ATOM     13   O  A00 X   1      18.799  62.165 122.0200  0.00  0.00     0.000 OA
ATOM     14   O  A00 X   1      20.390  61.980 120.2610  0.00  0.00     0.000 OA
ATOM     15   S  A00 X   1      20.195  62.124 121.6780  0.00  0.00     0.000 S
ENDBRANCH 2 11
BRANCH 5 16
ATOM     16   C  A00 X   1      18.546  58.357 125.4360  0.00  0.00     0.000 C
ATOM     17   O  A00 X   1      17.753  57.539 125.0160  0.00  0.00     0.000 OA
ATOM     18   O  A00 X   1      18.126  59.369 125.9590  0.00  0.00     0.000 OA
ENDBRANCH 5 16
BRANCH 1 19
ATOM     19  O4  A00 X   2      18.899  58.172 122.1930  0.00  0.00     0.000 O
BRANCH 19 23
ATOM     20  C1  A00 X   2      20.936  55.452 119.5820  0.00  0.00     0.000 C
ATOM     21  C2  A00 X   2      20.613  56.862 119.0330  0.00  0.00     0.000 C
ATOM     22  C3  A00 X   2      20.291  57.839 120.1830  0.00  0.00     0.000 C
ATOM     23  C4  A00 X   2      19.167  57.272 121.0790  0.00  0.00     0.000 C
ATOM     24  C5  A00 X   2      19.601  55.856 121.5470  0.00  0.00     0.000 C
ATOM     25  O5  A00 X   2      19.801  55.019 120.3790  0.00  0.00     0.000 O
ATOM     26   O  A00 X   2      20.066  59.147 119.6290  0.00  0.00     0.000 O
ATOM     28  HD  A00 X   2      19.504  58.855 119.0380  0.00  0.00     0.000 HD
BRANCH 21 30
ATOM     28   N  A00 X   2      20.407  56.260 117.7120  0.00  0.00     0.000 N
ATOM     30  HD  A00 X   2      20.489  57.113 117.5880  0.00  0.00     0.000 HD
ATOM     30   O  A00 X   2      21.031  57.825 116.0940  0.00  0.00     0.000 OA
ATOM     31   S  A00 X   2      19.855  57.167 116.5420  0.00  0.00     0.000 S
ATOM     32   O  A00 X   2      19.299  56.227 115.6180  0.00  0.00     0.000 OA
ATOM     33   O  A00 X   2      18.821  57.990 117.0960  0.00  0.00     0.000 OA
ENDBRANCH 21 30
BRANCH 24 34
ATOM     34   C  A00 X   2      18.756  55.163 122.6420  0.00  0.00     0.000 C
ATOM     35   O  A00 X   2      16.926  52.055 122.1430  0.00  0.00     0.000 OA
ATOM     36   O  A00 X   2      17.878  54.170 122.0730  0.00  0.00     0.000 O
ATOM     37   O  A00 X   2      19.245  52.300 121.7500  0.00  0.00     0.000 OA
ATOM     38   S  A00 X   2      18.131  52.695 122.5560  0.00  0.00     0.000 S
ATOM     39   O  A00 X   2      18.329  52.761 123.9730  0.00  0.00     0.000 OA
ENDBRANCH 24 34
BRANCH 20 40
ATOM     40  O4  A00 X   3      22.081  55.618 120.4300  0.00  0.00     0.000 O
BRANCH 40 44
ATOM     41  C1  A00 X   3      23.750  54.827 123.5460  0.00  0.00     0.000 C
ATOM     42  C2  A00 X   3      24.311  55.773 122.4630  0.00  0.00     0.000 C
ATOM     43  C3  A00 X   3      24.282  55.098 121.0670  0.00  0.00     0.000 C
ATOM     44  C4  A00 X   3      22.939  54.486 120.6880  0.00  0.00     0.000 C
ATOM     45  C5  A00 X   3      22.443  53.546 121.8230  0.00  0.00     0.000 C
ATOM     46  O5  A00 X   3      22.498  54.219 123.1220  0.00  0.00     0.000 O
ATOM     47   O  A00 X   3      24.858  55.848 120.0000  0.00  0.00     0.000 O
ATOM     49  HD  A00 X   3      24.188  55.522 119.5590  0.00  0.00     0.000 HD
BRANCH 42 49
ATOM     49   O  A00 X   3      23.505  56.971 122.4870  0.00  0.00     0.000 O
ATOM     50   O  A00 X   3      23.409  59.020 121.2540  0.00  0.00     0.000 OA
ATOM     51   O  A00 X   3      25.523  58.147 121.8530  0.00  0.00     0.000 OA
ATOM     52   O  A00 X   3      24.115  58.965 123.5660  0.00  0.00     0.000 OA
ATOM     53   S  A00 X   3      24.162  58.366 122.2770  0.00  0.00     0.000 S
ENDBRANCH 42 49
BRANCH 45 54
ATOM     54   C  A00 X   3      23.181  52.202 121.8090  0.00  0.00     0.000 C
ATOM     55   O  A00 X   3      22.821  51.290 122.5260  0.00  0.00     0.000 OA
ATOM     56   O  A00 X   3      24.144  52.024 121.0780  0.00  0.00     0.000 OA
ENDBRANCH 45 54
BRANCH 41 57
ATOM     57  O4  A00 X   4      24.742  53.876 123.9920  0.00  0.00     0.000 O
BRANCH 57 61
ATOM     58  C1  A00 X   4      25.524  52.012 127.8070  0.00  0.00     0.000 C
ATOM     59  C2  A00 X   4      24.162  51.749 127.1180  0.00  0.00     0.000 C
ATOM     60  C3  A00 X   4      24.135  52.157 125.6320  0.00  0.00     0.000 C
ATOM     61  C4  A00 X   4      24.713  53.573 125.4160  0.00  0.00     0.000 C
ATOM     62  C5  A00 X   4      26.152  53.548 125.9880  0.00  0.00     0.000 C
ATOM     63  O5  A00 X   4      26.094  53.282 127.4130  0.00  0.00     0.000 O
BRANCH 59 66
ATOM     64   N  A00 X   4      23.088  52.535 127.7530  0.00  0.00     0.000 N
ATOM     66  HD  A00 X   4      23.309  53.285 128.1260  0.00  0.00     0.000 HD
ATOM     66   O  A00 X   4      22.981  50.832 129.4510  0.00  0.00     0.000 OA
ATOM     67   S  A00 X   4      22.147  51.808 128.8220  0.00  0.00     0.000 S
ATOM     68   O  A00 X   4      21.778  52.925 129.6430  0.00  0.00     0.000 OA
ATOM     69   O  A00 X   4      21.100  51.339 127.9600  0.00  0.00     0.000 OA
ENDBRANCH 59 66
BRANCH 62 70
ATOM     70   C  A00 X   4      26.944  54.858 125.7650  0.00  0.00     0.000 C
ATOM     71   O  A00 X   4      26.424  58.102 127.2870  0.00  0.00     0.000 OA
ATOM     72   O  A00 X   4      26.709  57.494 125.0300  0.00  0.00     0.000 OA
ATOM     73   O  A00 X   4      26.552  55.824 126.7540  0.00  0.00     0.000 O
ATOM     74   O  A00 X   4      24.579  57.061 126.1340  0.00  0.00     0.000 OA
ATOM     75   S  A00 X   4      25.995  57.202 126.2540  0.00  0.00     0.000 S
ENDBRANCH 62 70
ENDBRANCH 57 61
ENDBRANCH 41 57
ENDBRANCH 40 44
ENDBRANCH 20 40
ENDBRANCH 19 23
ENDBRANCH 1 19
TORSDOF 14
ENDMDL
MODEL 58
REMARK VINA RESULT:       0.0     50.298     54.093
ROOT
ATOM      1  C1  A00 X   1      63.963 124.379  90.7060  0.00  0.00     0.000 C
ATOM      2  C2  A00 X   1      62.669 124.926  90.0460  0.00  0.00     0.000 C
ATOM      3  C3  A00 X   1      61.557 123.871  89.7340  0.00  0.00     0.000 C
ATOM      4  C4  A00 X   1      62.012 122.389  89.7760  0.00  0.00     0.000 C
ATOM      5  C5  A00 X   1      63.520 122.242  89.5730  0.00  0.00     0.000 C
ATOM      6  O5  A00 X   1      64.110 122.938  90.6940  0.00  0.00     0.000 O
ATOM      7   O  A00 X   1      61.060 124.105  88.4190  0.00  0.00     0.000 O
ATOM      9  HD  A00 X   1      61.135 123.248  88.5140  0.00  0.00     0.000 HD
ATOM      9   O  A00 X   1      61.625 121.759  90.9970  0.00  0.00     0.000 O
ATOM     11  HD  A00 X   1      61.700 120.901  91.0920  0.00  0.00     0.000 HD
ENDROOT
BRANCH 2 11
ATOM     11   O  A00 X   1      62.125 125.937  90.9180  0.00  0.00     0.000 O
ATOM     12   O  A00 X   1      59.973 126.928  90.5270  0.00  0.00     0.000 OA
ATOM     13   O  A00 X   1      61.754 127.269  88.9040  0.00  0.00     0.000 OA
ATOM     14   O  A00 X   1      61.888 128.255  91.0650  0.00  0.00     0.000 OA
ATOM     15   S  A00 X   1      61.375 127.160  90.2860  0.00  0.00     0.000 S
ENDBRANCH 2 11
BRANCH 5 16
ATOM     16   C  A00 X   1      64.040 122.718  88.2130  0.00  0.00     0.000 C
ATOM     17   O  A00 X   1      65.238 122.831  88.0560  0.00  0.00     0.000 OA
ATOM     18   O  A00 X   1      63.298 122.980  87.2860  0.00  0.00     0.000 OA
ENDBRANCH 5 16
BRANCH 1 19
ATOM     19  O4  A00 X   2      65.160 125.037  90.2230  0.00  0.00     0.000 O
BRANCH 19 23
ATOM     20  C1  A00 X   2      67.022 125.145  94.0820  0.00  0.00     0.000 C
ATOM     21  C2  A00 X   2      66.302 126.428  93.5990  0.00  0.00     0.000 C
ATOM     22  C3  A00 X   2      65.338 126.113  92.4360  0.00  0.00     0.000 C
ATOM     23  C4  A00 X   2      66.082 125.378  91.2980  0.00  0.00     0.000 C
ATOM     24  C5  A00 X   2      66.772 124.129  91.9110  0.00  0.00     0.000 C
ATOM     25  O5  A00 X   2      67.701 124.565  92.9370  0.00  0.00     0.000 O
ATOM     26   O  A00 X   2      64.646 127.319  92.0710  0.00  0.00     0.000 O
ATOM     28  HD  A00 X   2      65.377 127.781  92.0140  0.00  0.00     0.000 HD
BRANCH 21 30
ATOM     28   N  A00 X   2      67.325 127.217  94.2930  0.00  0.00     0.000 N
ATOM     30  HD  A00 X   2      66.667 127.754  94.1210  0.00  0.00     0.000 HD
ATOM     30   O  A00 X   2      66.334 129.198  95.0370  0.00  0.00     0.000 OA
ATOM     31   S  A00 X   2      67.326 128.787  94.1080  0.00  0.00     0.000 S
ATOM     32   O  A00 X   2      68.663 129.167  94.4450  0.00  0.00     0.000 OA
ATOM     33   O  A00 X   2      67.068 129.051  92.7240  0.00  0.00     0.000 OA
ENDBRANCH 21 30
BRANCH 24 34
ATOM     34   C  A00 X   2      67.393 123.094  90.9430  0.00  0.00     0.000 C
ATOM     35   O  A00 X   2      69.976 123.879  88.5010  0.00  0.00     0.000 OA
ATOM     36   O  A00 X   2      68.111 123.743  89.8750  0.00  0.00     0.000 O
ATOM     37   O  A00 X   2      70.176 124.305  90.8190  0.00  0.00     0.000 OA
ATOM     38   S  A00 X   2      69.651 123.431  89.8150  0.00  0.00     0.000 S
ATOM     39   O  A00 X   2      69.786 122.021  90.0260  0.00  0.00     0.000 OA
ENDBRANCH 24 34
BRANCH 20 40
ATOM     40  O4  A00 X   3      65.982 124.260  94.5220  0.00  0.00     0.000 O
BRANCH 40 44
ATOM     41  C1  A00 X   3      64.613 120.906  94.5690  0.00  0.00     0.000 C
ATOM     42  C2  A00 X   3      63.958 122.133  95.2390  0.00  0.00     0.000 C
ATOM     43  C3  A00 X   3      64.974 122.884  96.1380  0.00  0.00     0.000 C
ATOM     44  C4  A00 X   3      66.299 123.209  95.4610  0.00  0.00     0.000 C
ATOM     45  C5  A00 X   3      66.897 121.926  94.8170  0.00  0.00     0.000 C
ATOM     46  O5  A00 X   3      65.901 121.246  93.9860  0.00  0.00     0.000 O
ATOM     47   O  A00 X   3      64.455 123.988  96.8770  0.00  0.00     0.000 O
ATOM     49  HD  A00 X   3      65.219 124.340  96.6710  0.00  0.00     0.000 HD
BRANCH 42 49
ATOM     49   O  A00 X   3      63.465 122.981  94.1780  0.00  0.00     0.000 O
ATOM     50   O  A00 X   3      62.365 125.102  94.0240  0.00  0.00     0.000 OA
ATOM     51   O  A00 X   3      61.688 123.585  95.7070  0.00  0.00     0.000 OA
ATOM     52   O  A00 X   3      61.232 123.043  93.4520  0.00  0.00     0.000 OA
ATOM     53   S  A00 X   3      62.110 123.730  94.3360  0.00  0.00     0.000 S
ENDBRANCH 42 49
BRANCH 45 54
ATOM     54   C  A00 X   3      67.535 121.009  95.8670  0.00  0.00     0.000 C
ATOM     55   O  A00 X   3      68.156 120.022  95.5300  0.00  0.00     0.000 OA
ATOM     56   O  A00 X   3      67.430 121.255  97.0590  0.00  0.00     0.000 OA
ENDBRANCH 45 54
BRANCH 41 57
ATOM     57  O4  A00 X   4      64.653 119.770  95.4620  0.00  0.00     0.000 O
BRANCH 57 61
ATOM     58  C1  A00 X   4      64.351 115.512  94.8130  0.00  0.00     0.000 C
ATOM     59  C2  A00 X   4      65.522 116.281  94.1520  0.00  0.00     0.000 C
ATOM     60  C3  A00 X   4      65.735 117.694  94.7330  0.00  0.00     0.000 C
ATOM     61  C4  A00 X   4      64.410 118.480  94.8310  0.00  0.00     0.000 C
ATOM     62  C5  A00 X   4      63.461 117.626  95.7070  0.00  0.00     0.000 C
ATOM     63  O5  A00 X   4      63.204 116.363  95.0410  0.00  0.00     0.000 O
BRANCH 59 66
ATOM     64   N  A00 X   4      65.123 116.430  92.7400  0.00  0.00     0.000 N
ATOM     66  HD  A00 X   4      64.276 116.406  92.5600  0.00  0.00     0.000 HD
ATOM     66   O  A00 X   4      66.053 114.243  92.3520  0.00  0.00     0.000 OA
ATOM     67   S  A00 X   4      65.798 115.466  91.6570  0.00  0.00     0.000 S
ATOM     68   O  A00 X   4      64.756 115.411  90.6740  0.00  0.00     0.000 OA
ATOM     69   O  A00 X   4      66.926 116.267  91.2750  0.00  0.00     0.000 OA
ENDBRANCH 59 66
BRANCH 62 70
ATOM     70   C  A00 X   4      62.104 118.304  96.0150  0.00  0.00     0.000 C
ATOM     71   O  A00 X   4      59.362 119.004  93.7580  0.00  0.00     0.000 OA
ATOM     72   O  A00 X   4      60.456 120.387  95.3170  0.00  0.00     0.000 OA
ATOM     73   O  A00 X   4      61.230 118.151  94.8860  0.00  0.00     0.000 O
ATOM     74   O  A00 X   4      61.552 119.850  93.2080  0.00  0.00     0.000 OA
ATOM     75   S  A00 X   4      60.642 119.449  94.2320  0.00  0.00     0.000 S
ENDBRANCH 62 70
ENDBRANCH 57 61
ENDBRANCH 41 57
ENDBRANCH 40 44
ENDBRANCH 20 40
ENDBRANCH 19 23
ENDBRANCH 1 19
TORSDOF 14
ENDMDL
MODEL 59
REMARK VINA RESULT:       0.0     91.435     96.039
ROOT
ATOM      1  C1  A00 X   1     132.714  81.794  70.8350  0.00  0.00     0.000 C
ATOM      2  C2  A00 X   1     131.551  82.817  70.7390  0.00  0.00     0.000 C
ATOM      3  C3  A00 X   1     130.955  83.049  69.3110  0.00  0.00     0.000 C
ATOM      4  C4  A00 X   1     131.818  82.526  68.1340  0.00  0.00     0.000 C
ATOM      5  C5  A00 X   1     133.291  82.381  68.5170  0.00  0.00     0.000 C
ATOM      6  O5  A00 X   1     133.300  81.393  69.5710  0.00  0.00     0.000 O
ATOM      7   O  A00 X   1     130.796  84.451  69.1040  0.00  0.00     0.000 O
ATOM      9  HD  A00 X   1     131.104  84.117  68.3670  0.00  0.00     0.000 HD
ATOM      9   O  A00 X   1     131.324  81.282  67.6370  0.00  0.00     0.000 O
ATOM     11  HD  A00 X   1     131.633  80.949  66.9000  0.00  0.00     0.000 HD
ENDROOT
BRANCH 2 11
ATOM     11   O  A00 X   1     130.500  82.371  71.6180  0.00  0.00     0.000 O
ATOM     12   O  A00 X   1     128.356  83.451  71.6870  0.00  0.00     0.000 OA
ATOM     13   O  A00 X   1     130.336  84.691  72.3640  0.00  0.00     0.000 OA
ATOM     14   O  A00 X   1     129.539  82.880  73.6840  0.00  0.00     0.000 OA
ATOM     15   S  A00 X   1     129.629  83.440  72.3630  0.00  0.00     0.000 S
ENDBRANCH 2 11
BRANCH 5 16
ATOM     16   C  A00 X   1     133.993  83.689  68.8970  0.00  0.00     0.000 C
ATOM     17   O  A00 X   1     133.479  84.740  68.5720  0.00  0.00     0.000 OA
ATOM     18   O  A00 X   1     135.038  83.712  69.5160  0.00  0.00     0.000 OA
ENDBRANCH 5 16
BRANCH 1 19
ATOM     19  O4  A00 X   2     133.731  82.189  71.7870  0.00  0.00     0.000 O
BRANCH 19 23
ATOM     20  C1  A00 X   2     134.359  78.203  73.2310  0.00  0.00     0.000 C
ATOM     21  C2  A00 X   2     133.428  79.124  74.0570  0.00  0.00     0.000 C
ATOM     22  C3  A00 X   2     132.962  80.330  73.2160  0.00  0.00     0.000 C
ATOM     23  C4  A00 X   2     134.175  81.080  72.6220  0.00  0.00     0.000 C
ATOM     24  C5  A00 X   2     135.033  80.050  71.8380  0.00  0.00     0.000 C
ATOM     25  O5  A00 X   2     135.467  79.011  72.7530  0.00  0.00     0.000 O
ATOM     26   O  A00 X   2     132.049  81.115  74.0030  0.00  0.00     0.000 O
ATOM     28  HD  A00 X   2     132.584  81.147  74.6830  0.00  0.00     0.000 HD
BRANCH 21 30
ATOM     28   N  A00 X   2     133.925  78.471  75.2730  0.00  0.00     0.000 N
ATOM     30  HD  A00 X   2     133.203  78.896  75.4930  0.00  0.00     0.000 HD
ATOM     30   O  A00 X   2     132.199  78.459  76.8480  0.00  0.00     0.000 OA
ATOM     31   S  A00 X   2     133.481  79.046  76.6770  0.00  0.00     0.000 S
ATOM     32   O  A00 X   2     134.488  78.568  77.5720  0.00  0.00     0.000 OA
ATOM     33   O  A00 X   2     133.533  80.475  76.5860  0.00  0.00     0.000 OA
ENDBRANCH 21 30
BRANCH 24 34
ATOM     34   C  A00 X   2     136.183  80.586  70.9540  0.00  0.00     0.000 C
ATOM     35   O  A00 X   2     138.937  82.616  72.1990  0.00  0.00     0.000 OA
ATOM     36   O  A00 X   2     136.916  81.630  71.6260  0.00  0.00     0.000 O
ATOM     37   O  A00 X   2     138.367  80.490  73.0640  0.00  0.00     0.000 OA
ATOM     38   S  A00 X   2     138.433  81.317  71.8980  0.00  0.00     0.000 S
ATOM     39   O  A00 X   2     138.947  80.730  70.6970  0.00  0.00     0.000 OA
ENDBRANCH 24 34
BRANCH 20 40
ATOM     40  O4  A00 X   3     133.573  77.758  72.1150  0.00  0.00     0.000 O
BRANCH 40 44
ATOM     41  C1  A00 X   3     133.410  77.150  68.5480  0.00  0.00     0.000 C
ATOM     42  C2  A00 X   3     132.236  76.948  69.5290  0.00  0.00     0.000 C
ATOM     43  C3  A00 X   3     132.667  76.082  70.7410  0.00  0.00     0.000 C
ATOM     44  C4  A00 X   3     133.946  76.545  71.4270  0.00  0.00     0.000 C
ATOM     45  C5  A00 X   3     135.080  76.721  70.3770  0.00  0.00     0.000 C
ATOM     46  O5  A00 X   3     134.626  77.535  69.2480  0.00  0.00     0.000 O
ATOM     47   O  A00 X   3     131.638  75.757  71.6720  0.00  0.00     0.000 O
ATOM     49  HD  A00 X   3     132.271  75.889  72.2470  0.00  0.00     0.000 HD
BRANCH 42 49
ATOM     49   O  A00 X   3     131.803  78.261  69.9470  0.00  0.00     0.000 O
ATOM     50   O  A00 X   3     130.178  79.149  71.4650  0.00  0.00     0.000 OA
ATOM     51   O  A00 X   3     129.589  77.299  70.1160  0.00  0.00     0.000 OA
ATOM     52   O  A00 X   3     129.939  79.389  69.0700  0.00  0.00     0.000 OA
ATOM     53   S  A00 X   3     130.291  78.557  70.1690  0.00  0.00     0.000 S
ENDBRANCH 42 49
BRANCH 45 54
ATOM     54   C  A00 X   3     135.670  75.372  69.9490  0.00  0.00     0.000 C
ATOM     55   O  A00 X   3     136.672  75.324  69.2650  0.00  0.00     0.000 OA
ATOM     56   O  A00 X   3     135.144  74.323  70.2880  0.00  0.00     0.000 OA
ENDBRANCH 45 54
BRANCH 41 57
ATOM     57  O4  A00 X   4     133.574  76.014  67.6700  0.00  0.00     0.000 O
BRANCH 57 61
ATOM     58  C1  A00 X   4     134.868  75.631  63.5690  0.00  0.00     0.000 C
ATOM     59  C2  A00 X   4     135.859  76.214  64.6070  0.00  0.00     0.000 C
ATOM     60  C3  A00 X   4     135.430  75.971  66.0690  0.00  0.00     0.000 C
ATOM     61  C4  A00 X   4     133.949  76.339  66.3010  0.00  0.00     0.000 C
ATOM     62  C5  A00 X   4     133.127  75.486  65.3030  0.00  0.00     0.000 C
ATOM     63  O5  A00 X   4     133.491  75.855  63.9480  0.00  0.00     0.000 O
BRANCH 59 66
ATOM     64   N  A00 X   4     135.937  77.678  64.4540  0.00  0.00     0.000 N
ATOM     66  HD  A00 X   4     135.242  78.084  64.1350  0.00  0.00     0.000 HD
ATOM     66   O  A00 X   4     137.502  77.307  62.6620  0.00  0.00     0.000 OA
ATOM     67   S  A00 X   4     137.174  78.290  63.6460  0.00  0.00     0.000 S
ATOM     68   O  A00 X   4     136.583  79.495  63.1420  0.00  0.00     0.000 OA
ATOM     69   O  A00 X   4     138.102  78.496  64.7220  0.00  0.00     0.000 OA
ENDBRANCH 59 66
BRANCH 62 70
ATOM     70   C  A00 X   4     131.594  75.635  65.4570  0.00  0.00     0.000 C
ATOM     71   O  A00 X   4     129.512  78.499  64.7060  0.00  0.00     0.000 OA
ATOM     72   O  A00 X   4     129.618  77.142  66.6270  0.00  0.00     0.000 OA
ATOM     73   O  A00 X   4     131.166  76.844  64.8100  0.00  0.00     0.000 O
ATOM     74   O  A00 X   4     131.367  78.788  66.2180  0.00  0.00     0.000 OA
ATOM     75   S  A00 X   4     130.392  77.902  65.6700  0.00  0.00     0.000 S
ENDBRANCH 62 70
ENDBRANCH 57 61
ENDBRANCH 41 57
ENDBRANCH 40 44
ENDBRANCH 20 40
ENDBRANCH 19 23
ENDBRANCH 1 19
TORSDOF 14
ENDMDL
MODEL 60
REMARK VINA RESULT:       0.0     96.351    100.725
ROOT
ATOM      1  C1  A00 X   1     134.057  82.763  78.3780  0.00  0.00     0.000 C
ATOM      2  C2  A00 X   1     133.014  81.802  77.7480  0.00  0.00     0.000 C
ATOM      3  C3  A00 X   1     133.415  80.290  77.6980  0.00  0.00     0.000 C
ATOM      4  C4  A00 X   1     134.917  79.988  77.9350  0.00  0.00     0.000 C
ATOM      5  C5  A00 X   1     135.803  81.198  77.6350  0.00  0.00     0.000 C
ATOM      6  O5  A00 X   1     135.380  82.206  78.5810  0.00  0.00     0.000 O
ATOM      7   O  A00 X   1     133.097  79.775  76.4070  0.00  0.00     0.000 O
ATOM      9  HD  A00 X   1     133.867  79.448  76.6300  0.00  0.00     0.000 HD
ATOM      9   O  A00 X   1     135.154  79.535  79.2670  0.00  0.00     0.000 O
ATOM     11  HD  A00 X   1     135.924  79.207  79.4900  0.00  0.00     0.000 HD
ENDROOT
BRANCH 2 11
ATOM     11   O  A00 X   1     131.787  81.937  78.4910  0.00  0.00     0.000 O
ATOM     12   O  A00 X   1     129.907  80.493  78.1140  0.00  0.00     0.000 OA
ATOM     13   O  A00 X   1     130.650  81.970  76.3300  0.00  0.00     0.000 OA
ATOM     14   O  A00 X   1     129.653  82.863  78.2960  0.00  0.00     0.000 OA
ATOM     15   S  A00 X   1     130.422  81.785  77.7360  0.00  0.00     0.000 S
ENDBRANCH 2 11
BRANCH 5 16
ATOM     16   C  A00 X   1     135.778  81.674  76.1790  0.00  0.00     0.000 C
ATOM     17   O  A00 X   1     135.353  80.920  75.3280  0.00  0.00     0.000 OA
ATOM     18   O  A00 X   1     136.162  82.778  75.8480  0.00  0.00     0.000 OA
ENDBRANCH 5 16
BRANCH 1 19
ATOM     19  O4  A00 X   2     134.121  84.042  77.7020  0.00  0.00     0.000 O
BRANCH 19 23
ATOM     20  C1  A00 X   2     134.597  86.280  81.3260  0.00  0.00     0.000 C
ATOM     21  C2  A00 X   2     133.173  86.185  80.7270  0.00  0.00     0.000 C
ATOM     22  C3  A00 X   2     133.081  85.028  79.7100  0.00  0.00     0.000 C
ATOM     23  C4  A00 X   2     134.178  85.163  78.6310  0.00  0.00     0.000 C
ATOM     24  C5  A00 X   2     135.548  85.266  79.3570  0.00  0.00     0.000 C
ATOM     25  O5  A00 X   2     135.530  86.431  80.2230  0.00  0.00     0.000 O
ATOM     26   O  A00 X   2     131.727  84.939  79.2350  0.00  0.00     0.000 O
ATOM     28  HD  A00 X   2     131.684  85.783  79.0480  0.00  0.00     0.000 HD
BRANCH 21 30
ATOM     28   N  A00 X   2     132.922  87.548  81.2070  0.00  0.00     0.000 N
ATOM     30  HD  A00 X   2     132.151  87.203  81.0160  0.00  0.00     0.000 HD
ATOM     30   O  A00 X   2     130.654  87.725  81.7370  0.00  0.00     0.000 OA
ATOM     31   S  A00 X   2     131.572  88.260  80.7960  0.00  0.00     0.000 S
ATOM     32   O  A00 X   2     131.861  89.651  80.9570  0.00  0.00     0.000 OA
ATOM     33   O  A00 X   2     131.337  87.957  79.4150  0.00  0.00     0.000 OA
ENDBRANCH 21 30
BRANCH 24 34
ATOM     34   C  A00 X   2     136.832  85.179  78.5000  0.00  0.00     0.000 C
ATOM     35   O  A00 X   2     139.274  87.863  78.2030  0.00  0.00     0.000 OA
ATOM     36   O  A00 X   2     137.410  86.483  78.2900  0.00  0.00     0.000 O
ATOM     37   O  A00 X   2     138.590  86.920  80.2620  0.00  0.00     0.000 OA
ATOM     38   S  A00 X   2     138.856  86.678  78.8770  0.00  0.00     0.000 S
ATOM     39   O  A00 X   2     139.593  85.496  78.5390  0.00  0.00     0.000 OA
ENDBRANCH 24 34
BRANCH 20 40
ATOM     40  O4  A00 X   3     134.827  85.023  81.9800  0.00  0.00     0.000 O
BRANCH 40 44
ATOM     41  C1  A00 X   3     137.089  82.269  82.6300  0.00  0.00     0.000 C
ATOM     42  C2  A00 X   3     135.644  82.366  83.1660  0.00  0.00     0.000 C
ATOM     43  C3  A00 X   3     135.399  83.732  83.8570  0.00  0.00     0.000 C
ATOM     44  C4  A00 X   3     135.813  84.943  83.0320  0.00  0.00     0.000 C
ATOM     45  C5  A00 X   3     137.276  84.774  82.5340  0.00  0.00     0.000 C
ATOM     46  O5  A00 X   3     137.464  83.468  81.8980  0.00  0.00     0.000 O
ATOM     47   O  A00 X   3     134.121  83.901  84.4680  0.00  0.00     0.000 O
ATOM     49  HD  A00 X   3     134.200  84.702  84.1500  0.00  0.00     0.000 HD
BRANCH 42 49
ATOM     49   O  A00 X   3     134.761  82.180  82.0380  0.00  0.00     0.000 O
ATOM     50   O  A00 X   3     132.396  82.190  81.6680  0.00  0.00     0.000 OA
ATOM     51   O  A00 X   3     133.244  81.133  83.6060  0.00  0.00     0.000 OA
ATOM     52   O  A00 X   3     133.695  80.158  81.5010  0.00  0.00     0.000 OA
ATOM     53   S  A00 X   3     133.441  81.371  82.1980  0.00  0.00     0.000 S
ENDBRANCH 42 49
BRANCH 45 54
ATOM     54   C  A00 X   3     138.290  85.053  83.6500  0.00  0.00     0.000 C
ATOM     55   O  A00 X   3     139.471  85.181  83.3950  0.00  0.00     0.000 OA
ATOM     56   O  A00 X   3     137.930  85.151  84.8120  0.00  0.00     0.000 OA
ENDBRANCH 45 54
BRANCH 41 57
ATOM     57  O4  A00 X   4     138.021  81.902  83.6720  0.00  0.00     0.000 O
BRANCH 57 61
ATOM     58  C1  A00 X   4     141.676  79.604  83.6700  0.00  0.00     0.000 C
ATOM     59  C2  A00 X   4     141.619  80.907  82.8340  0.00  0.00     0.000 C
ATOM     60  C3  A00 X   4     140.423  81.814  83.1900  0.00  0.00     0.000 C
ATOM     61  C4  A00 X   4     139.101  81.020  83.2520  0.00  0.00     0.000 C
ATOM     62  C5  A00 X   4     139.314  79.899  84.3000  0.00  0.00     0.000 C
ATOM     63  O5  A00 X   4     140.368  79.012  83.8420  0.00  0.00     0.000 O
BRANCH 59 66
ATOM     64   N  A00 X   4     141.463  80.613  81.3980  0.00  0.00     0.000 N
ATOM     66  HD  A00 X   4     141.054  79.881  81.1820  0.00  0.00     0.000 HD
ATOM     66   O  A00 X   4     143.837  80.221  81.3220  0.00  0.00     0.000 OA
ATOM     67   S  A00 X   4     142.767  80.641  80.4730  0.00  0.00     0.000 S
ATOM     68   O  A00 X   4     142.383  79.707  79.4560  0.00  0.00     0.000 OA
ATOM     69   O  A00 X   4     142.748  82.013  80.0500  0.00  0.00     0.000 OA
ENDBRANCH 59 66
BRANCH 62 70
ATOM     70   C  A00 X   4     138.051  79.053  84.5870  0.00  0.00     0.000 C
ATOM     71   O  A00 X   4     136.361  76.700  82.4150  0.00  0.00     0.000 OA
ATOM     72   O  A00 X   4     135.515  78.482  83.7010  0.00  0.00     0.000 OA
ATOM     73   O  A00 X   4     137.881  78.082  83.5420  0.00  0.00     0.000 O
ATOM     74   O  A00 X   4     136.705  78.954  81.6280  0.00  0.00     0.000 OA
ATOM     75   S  A00 X   4     136.529  78.087  82.7490  0.00  0.00     0.000 S
ENDBRANCH 62 70
ENDBRANCH 57 61
ENDBRANCH 41 57
ENDBRANCH 40 44
ENDBRANCH 20 40
ENDBRANCH 19 23
ENDBRANCH 1 19
TORSDOF 14
ENDMDL
MODEL 61
REMARK VINA RESULT:       0.0     99.748    103.923
ROOT
ATOM      1  C1  A00 X   1     135.936  84.939  87.4860  0.00  0.00     0.000 C
ATOM      2  C2  A00 X   1     135.990  83.566  86.7640  0.00  0.00     0.000 C
ATOM      3  C3  A00 X   1     136.984  82.515  87.3600  0.00  0.00     0.000 C
ATOM      4  C4  A00 X   1     138.041  83.077  88.3450  0.00  0.00     0.000 C
ATOM      5  C5  A00 X   1     138.277  84.574  88.1450  0.00  0.00     0.000 C
ATOM      6  O5  A00 X   1     137.002  85.189  88.4360  0.00  0.00     0.000 O
ATOM      7   O  A00 X   1     137.708  81.912  86.2900  0.00  0.00     0.000 O
ATOM      9  HD  A00 X   1     138.272  82.055  86.9310  0.00  0.00     0.000 HD
ATOM      9   O  A00 X   1     137.677  82.823  89.7020  0.00  0.00     0.000 O
ATOM     11  HD  A00 X   1     138.242  82.967  90.3430  0.00  0.00     0.000 HD
ENDROOT
BRANCH 2 11
ATOM     11   O  A00 X   1     134.660  83.012  86.7740  0.00  0.00     0.000 O
ATOM     12   O  A00 X   1     134.209  80.776  86.0230  0.00  0.00     0.000 OA
ATOM     13   O  A00 X   1     135.046  82.419  84.4360  0.00  0.00     0.000 OA
ATOM     14   O  A00 X   1     132.857  82.626  85.3430  0.00  0.00     0.000 OA
ATOM     15   S  A00 X   1     134.193  82.140  85.5580  0.00  0.00     0.000 S
ENDBRANCH 2 11
BRANCH 5 16
ATOM     16   C  A00 X   1     138.848  84.963  86.7770  0.00  0.00     0.000 C
ATOM     17   O  A00 X   1     139.365  84.101  86.0970  0.00  0.00     0.000 OA
ATOM     18   O  A00 X   1     138.794  86.099  86.3480  0.00  0.00     0.000 OA
ENDBRANCH 5 16
BRANCH 1 19
ATOM     19  O4  A00 X   2     135.773  86.049  86.5700  0.00  0.00     0.000 O
BRANCH 19 23
ATOM     20  C1  A00 X   2     133.092  88.181  89.1460  0.00  0.00     0.000 C
ATOM     21  C2  A00 X   2     132.469  87.329  88.0130  0.00  0.00     0.000 C
ATOM     22  C3  A00 X   2     133.490  86.308  87.4680  0.00  0.00     0.000 C
ATOM     23  C4  A00 X   2     134.792  87.019  87.0370  0.00  0.00     0.000 C
ATOM     24  C5  A00 X   2     135.303  87.849  88.2470  0.00  0.00     0.000 C
ATOM     25  O5  A00 X   2     134.285  88.816  88.6130  0.00  0.00     0.000 O
ATOM     26   O  A00 X   2     132.845  85.499  86.4710  0.00  0.00     0.000 O
ATOM     28  HD  A00 X   2     132.535  86.185  86.0420  0.00  0.00     0.000 HD
BRANCH 21 30
ATOM     28   N  A00 X   2     131.410  88.336  87.8900  0.00  0.00     0.000 N
ATOM     30  HD  A00 X   2     131.132  87.628  87.4770  0.00  0.00     0.000 HD
ATOM     30   O  A00 X   2     129.450  87.252  87.2280  0.00  0.00     0.000 OA
ATOM     31   S  A00 X   2     130.369  88.201  86.7090  0.00  0.00     0.000 S
ATOM     32   O  A00 X   2     129.851  89.526  86.5610  0.00  0.00     0.000 OA
ATOM     33   O  A00 X   2     131.104  87.821  85.5390  0.00  0.00     0.000 OA
ENDBRANCH 21 30
BRANCH 24 34
ATOM     34   C  A00 X   2     136.715  88.475  88.1530  0.00  0.00     0.000 C
ATOM     35   O  A00 X   2     137.368  92.056  88.2120  0.00  0.00     0.000 OA
ATOM     36   O  A00 X   2     136.644  89.881  87.8460  0.00  0.00     0.000 O
ATOM     37   O  A00 X   2     136.177  90.902  89.8980  0.00  0.00     0.000 OA
ATOM     38   S  A00 X   2     137.240  90.838  88.9430  0.00  0.00     0.000 S
ATOM     39   O  A00 X   2     138.476  90.251  89.3640  0.00  0.00     0.000 OA
ENDBRANCH 24 34
BRANCH 20 40
ATOM     40  O4  A00 X   3     133.462  87.250  90.1730  0.00  0.00     0.000 O
BRANCH 40 44
ATOM     41  C1  A00 X   3     135.928  86.163  92.5950  0.00  0.00     0.000 C
ATOM     42  C2  A00 X   3     134.578  85.460  92.3370  0.00  0.00     0.000 C
ATOM     43  C3  A00 X   3     133.405  86.473  92.3890  0.00  0.00     0.000 C
ATOM     44  C4  A00 X   3     133.604  87.716  91.5320  0.00  0.00     0.000 C
ATOM     45  C5  A00 X   3     134.978  88.369  91.8510  0.00  0.00     0.000 C
ATOM     46  O5  A00 X   3     136.053  87.376  91.8010  0.00  0.00     0.000 O
ATOM     47   O  A00 X   3     132.098  85.920  92.2510  0.00  0.00     0.000 O
ATOM     49  HD  A00 X   3     131.967  86.637  91.7830  0.00  0.00     0.000 HD
BRANCH 42 49
ATOM     49   O  A00 X   3     134.671  84.826  91.0420  0.00  0.00     0.000 O
ATOM     50   O  A00 X   3     133.217  83.556  89.6260  0.00  0.00     0.000 OA
ATOM     51   O  A00 X   3     133.209  83.125  91.9510  0.00  0.00     0.000 OA
ATOM     52   O  A00 X   3     135.133  82.549  90.7050  0.00  0.00     0.000 OA
ATOM     53   S  A00 X   3     134.022  83.432  90.8010  0.00  0.00     0.000 S
ENDBRANCH 42 49
BRANCH 45 54
ATOM     54   C  A00 X   3     134.942  89.152  93.1690  0.00  0.00     0.000 C
ATOM     55   O  A00 X   3     133.967  89.104  93.8910  0.00  0.00     0.000 OA
ATOM     56   O  A00 X   3     135.891  89.839  93.5140  0.00  0.00     0.000 OA
ENDBRANCH 45 54
BRANCH 41 57
ATOM     57  O4  A00 X   4     136.167  86.359  94.0060  0.00  0.00     0.000 O
BRANCH 57 61
ATOM     58  C1  A00 X   4     139.753  86.335  96.4110  0.00  0.00     0.000 C
ATOM     59  C2  A00 X   4     139.617  87.398  95.2930  0.00  0.00     0.000 C
ATOM     60  C3  A00 X   4     138.179  87.543  94.7540  0.00  0.00     0.000 C
ATOM     61  C4  A00 X   4     137.547  86.172  94.4310  0.00  0.00     0.000 C
ATOM     62  C5  A00 X   4     137.598  85.349  95.7420  0.00  0.00     0.000 C
ATOM     63  O5  A00 X   4     138.983  85.145  96.1240  0.00  0.00     0.000 O
BRANCH 59 66
ATOM     64   N  A00 X   4     140.416  87.121  94.0860  0.00  0.00     0.000 N
ATOM     66  HD  A00 X   4     140.560  86.291  93.8830  0.00  0.00     0.000 HD
ATOM     66   O  A00 X   4     142.330  87.962  95.2820  0.00  0.00     0.000 OA
ATOM     67   S  A00 X   4     141.844  87.828  93.9440  0.00  0.00     0.000 S
ATOM     68   O  A00 X   4     142.529  86.866  93.1320  0.00  0.00     0.000 OA
ATOM     69   O  A00 X   4     141.466  89.024  93.2470  0.00  0.00     0.000 OA
ENDBRANCH 59 66
BRANCH 62 70
ATOM     70   C  A00 X   4     136.905  83.969  95.6490  0.00  0.00     0.000 C
ATOM     71   O  A00 X   4     137.949  81.034  93.8050  0.00  0.00     0.000 OA
ATOM     72   O  A00 X   4     135.863  82.123  93.9030  0.00  0.00     0.000 OA
ATOM     73   O  A00 X   4     137.792  83.034  95.0140  0.00  0.00     0.000 O
ATOM     74   O  A00 X   4     137.677  83.110  92.6090  0.00  0.00     0.000 OA
ATOM     75   S  A00 X   4     137.286  82.305  93.7210  0.00  0.00     0.000 S
ENDBRANCH 62 70
ENDBRANCH 57 61
ENDBRANCH 41 57
ENDBRANCH 40 44
ENDBRANCH 20 40
ENDBRANCH 19 23
ENDBRANCH 1 19
TORSDOF 14
ENDMDL
MODEL 62
REMARK VINA RESULT:       0.0     96.105     99.960
ROOT
ATOM      1  C1  A00 X   1      20.454  61.187 124.1760  0.00  0.00     0.000 C
ATOM      2  C2  A00 X   1      19.474  62.277 124.6860  0.00  0.00     0.000 C
ATOM      3  C3  A00 X   1      19.961  63.118 125.9130  0.00  0.00     0.000 C
ATOM      4  C4  A00 X   1      21.168  62.532 126.6880  0.00  0.00     0.000 C
ATOM      5  C5  A00 X   1      21.317  61.026 126.4730  0.00  0.00     0.000 C
ATOM      6  O5  A00 X   1      21.563  60.880 125.0560  0.00  0.00     0.000 O
ATOM      7   O  A00 X   1      18.890  63.222 126.8490  0.00  0.00     0.000 O
ATOM      9  HD  A00 X   1      19.614  63.083 127.3030  0.00  0.00     0.000 HD
ATOM      9   O  A00 X   1      22.384  63.192 126.3360  0.00  0.00     0.000 O
ATOM     11  HD  A00 X   1      23.108  63.052 126.7900  0.00  0.00     0.000 HD
ENDROOT
BRANCH 2 11
ATOM     11   O  A00 X   1      19.198  63.167 123.5870  0.00  0.00     0.000 O
ATOM     12   O  A00 X   1      17.948  65.197 123.8800  0.00  0.00     0.000 OA
ATOM     13   O  A00 X   1      16.857  63.059 124.2780  0.00  0.00     0.000 OA
ATOM     14   O  A00 X   1      17.497  63.694 122.0770  0.00  0.00     0.000 OA
ATOM     15   S  A00 X   1      17.778  63.823 123.4810  0.00  0.00     0.000 S
ENDBRANCH 2 11
BRANCH 5 16
ATOM     16   C  A00 X   1      20.145  60.180 126.9810  0.00  0.00     0.000 C
ATOM     17   O  A00 X   1      20.084  59.014 126.6510  0.00  0.00     0.000 OA
ATOM     18   O  A00 X   1      19.282  60.632 127.7070  0.00  0.00     0.000 OA
ENDBRANCH 5 16
BRANCH 1 19
ATOM     19  O4  A00 X   2      19.776  59.983 123.7410  0.00  0.00     0.000 O
BRANCH 19 23
ATOM     20  C1  A00 X   2      22.345  59.387 120.3630  0.00  0.00     0.000 C
ATOM     21  C2  A00 X   2      20.984  60.081 120.1120  0.00  0.00     0.000 C
ATOM     22  C3  A00 X   2      20.384  60.607 121.4330  0.00  0.00     0.000 C
ATOM     23  C4  A00 X   2      20.295  59.473 122.4800  0.00  0.00     0.000 C
ATOM     24  C5  A00 X   2      21.711  58.850 122.6250  0.00  0.00     0.000 C
ATOM     25  O5  A00 X   2      22.127  58.330 121.3360  0.00  0.00     0.000 O
ATOM     26   O  A00 X   2      19.160  61.300 121.1390  0.00  0.00     0.000 O
ATOM     28  HD  A00 X   2      18.846  60.649 120.6630  0.00  0.00     0.000 HD
BRANCH 21 30
ATOM     28   N  A00 X   2      20.928  59.416 118.8070  0.00  0.00     0.000 N
ATOM     30  HD  A00 X   2      20.342  60.054 118.7890  0.00  0.00     0.000 HD
ATOM     30   O  A00 X   2      19.791  60.820 117.3250  0.00  0.00     0.000 OA
ATOM     31   S  A00 X   2      19.612  59.554 117.9420  0.00  0.00     0.000 S
ATOM     32   O  A00 X   2      19.672  58.435 117.0530  0.00  0.00     0.000 OA
ATOM     33   O  A00 X   2      18.501  59.419 118.8370  0.00  0.00     0.000 OA
ENDBRANCH 21 30
BRANCH 24 34
ATOM     34   C  A00 X   2      21.946  57.846 123.7780  0.00  0.00     0.000 C
ATOM     35   O  A00 X   2      20.057  54.766 124.2200  0.00  0.00     0.000 OA
ATOM     36   O  A00 X   2      20.844  56.926 123.9040  0.00  0.00     0.000 O
ATOM     37   O  A00 X   2      21.232  55.323 122.2450  0.00  0.00     0.000 OA
ATOM     38   S  A00 X   2      21.204  55.413 123.6730  0.00  0.00     0.000 S
ATOM     39   O  A00 X   2      22.428  55.176 124.3770  0.00  0.00     0.000 OA
ENDBRANCH 24 34
BRANCH 20 40
ATOM     40  O4  A00 X   3      23.195  60.394 120.9310  0.00  0.00     0.000 O
BRANCH 40 44
ATOM     41  C1  A00 X   3      25.639  61.269 123.4580  0.00  0.00     0.000 C
ATOM     42  C2  A00 X   3      25.067  62.248 122.4100  0.00  0.00     0.000 C
ATOM     43  C3  A00 X   3      25.175  61.657 120.9810  0.00  0.00     0.000 C
ATOM     44  C4  A00 X   3      24.628  60.243 120.8380  0.00  0.00     0.000 C
ATOM     45  C5  A00 X   3      25.253  59.318 121.9210  0.00  0.00     0.000 C
ATOM     46  O5  A00 X   3      25.137  59.920 123.2510  0.00  0.00     0.000 O
ATOM     47   O  A00 X   3      24.755  62.513 119.9200  0.00  0.00     0.000 O
ATOM     49  HD  A00 X   3      24.434  61.774 119.6020  0.00  0.00     0.000 HD
BRANCH 42 49
ATOM     49   O  A00 X   3      23.692  62.502 122.7740  0.00  0.00     0.000 O
ATOM     50   O  A00 X   3      21.865  63.758 121.8720  0.00  0.00     0.000 OA
ATOM     51   O  A00 X   3      24.027  64.714 121.8510  0.00  0.00     0.000 OA
ATOM     52   O  A00 X   3      22.951  64.405 123.9330  0.00  0.00     0.000 OA
ATOM     53   S  A00 X   3      23.082  63.924 122.6010  0.00  0.00     0.000 S
ENDBRANCH 42 49
BRANCH 45 54
ATOM     54   C  A00 X   3      26.688  58.915 121.5630  0.00  0.00     0.000 C
ATOM     55   O  A00 X   3      27.262  59.434 120.6280  0.00  0.00     0.000 OA
ATOM     56   O  A00 X   3      27.278  58.064 122.2110  0.00  0.00     0.000 OA
ENDBRANCH 45 54
BRANCH 41 57
ATOM     57  O4  A00 X   4      27.079  61.355 123.5390  0.00  0.00     0.000 O
BRANCH 57 61
ATOM     58  C1  A00 X   4      29.873  60.885 126.7970  0.00  0.00     0.000 C
ATOM     59  C2  A00 X   4      28.982  59.680 126.4050  0.00  0.00     0.000 C
ATOM     60  C3  A00 X   4      28.301  59.840 125.0300  0.00  0.00     0.000 C
ATOM     61  C4  A00 X   4      27.632  61.223 124.8790  0.00  0.00     0.000 C
ATOM     62  C5  A00 X   4      28.748  62.274 125.1040  0.00  0.00     0.000 C
ATOM     63  O5  A00 X   4      29.256  62.148 126.4570  0.00  0.00     0.000 O
BRANCH 59 66
ATOM     64   N  A00 X   4      27.866  58.999 127.0860  0.00  0.00     0.000 N
ATOM     66  HD  A00 X   4      27.253  59.495 127.4420  0.00  0.00     0.000 HD
ATOM     66   O  A00 X   4      29.434  58.365 128.8010  0.00  0.00     0.000 OA
ATOM     67   S  A00 X   4      28.214  57.912 128.2070  0.00  0.00     0.000 S
ATOM     68   O  A00 X   4      27.049  58.014 129.0370  0.00  0.00     0.000 OA
ATOM     69   O  A00 X   4      28.262  56.724 127.4030  0.00  0.00     0.000 OA
ENDBRANCH 59 66
BRANCH 62 70
ATOM     70   C  A00 X   4      28.292  63.736 124.8840  0.00  0.00     0.000 C
ATOM     71   O  A00 X   4      26.037  65.730 126.8960  0.00  0.00     0.000 OA
ATOM     72   O  A00 X   4      26.093  65.352 124.5720  0.00  0.00     0.000 OA
ATOM     73   O  A00 X   4      27.597  64.198 126.0530  0.00  0.00     0.000 O
ATOM     74   O  A00 X   4      25.261  63.607 126.0560  0.00  0.00     0.000 OA
ATOM     75   S  A00 X   4      26.131  64.725 125.8740  0.00  0.00     0.000 S
ENDBRANCH 62 70
ENDBRANCH 57 61
ENDBRANCH 41 57
ENDBRANCH 40 44
ENDBRANCH 20 40
ENDBRANCH 19 23
ENDBRANCH 1 19
TORSDOF 14
ENDMDL
MODEL 63
REMARK VINA RESULT:       0.0     51.390     55.260
ROOT
ATOM      1  C1  A00 X   1      71.186 130.939  91.7510  0.00  0.00     0.000 C
ATOM      2  C2  A00 X   1      71.119 130.002  92.9870  0.00  0.00     0.000 C
ATOM      3  C3  A00 X   1      69.687 129.581  93.4540  0.00  0.00     0.000 C
ATOM      4  C4  A00 X   1      68.521 130.423  92.8760  0.00  0.00     0.000 C
ATOM      5  C5  A00 X   1      68.981 131.805  92.4130  0.00  0.00     0.000 C
ATOM      6  O5  A00 X   1      69.929 131.541  91.3540  0.00  0.00     0.000 O
ATOM      7   O  A00 X   1      69.613 129.707  94.8720  0.00  0.00     0.000 O
ATOM      9  HD  A00 X   1      68.867 130.006  94.5500  0.00  0.00     0.000 HD
ATOM      9   O  A00 X   1      67.871 129.746  91.8010  0.00  0.00     0.000 O
ATOM     11  HD  A00 X   1      67.125 130.045  91.4790  0.00  0.00     0.000 HD
ENDROOT
BRANCH 2 11
ATOM     11   O  A00 X   1      71.880 128.818  92.6810  0.00  0.00     0.000 O
ATOM     12   O  A00 X   1      72.364 127.154  94.3430  0.00  0.00     0.000 OA
ATOM     13   O  A00 X   1      73.276 129.394  94.6010  0.00  0.00     0.000 OA
ATOM     14   O  A00 X   1      74.049 127.971  92.8580  0.00  0.00     0.000 OA
ATOM     15   S  A00 X   1      72.945 128.312  93.7140  0.00  0.00     0.000 S
ENDBRANCH 2 11
BRANCH 5 16
ATOM     16   C  A00 X   1      69.535 132.708  93.5190  0.00  0.00     0.000 C
ATOM     17   O  A00 X   1      70.075 133.749  93.2040  0.00  0.00     0.000 OA
ATOM     18   O  A00 X   1      69.446 132.425  94.6970  0.00  0.00     0.000 OA
ENDBRANCH 5 16
BRANCH 1 19
ATOM     19  O4  A00 X   2      72.236 131.931  91.8550  0.00  0.00     0.000 O
BRANCH 19 23
ATOM     20  C1  A00 X   2      73.159 131.834  87.6710  0.00  0.00     0.000 C
ATOM     21  C2  A00 X   2      74.051 130.996  88.6190  0.00  0.00     0.000 C
ATOM     22  C3  A00 X   2      73.358 130.783  89.9800  0.00  0.00     0.000 C
ATOM     23  C4  A00 X   2      72.936 132.137  90.5940  0.00  0.00     0.000 C
ATOM     24  C5  A00 X   2      72.066 132.883  89.5450  0.00  0.00     0.000 C
ATOM     25  O5  A00 X   2      72.855 133.085  88.3430  0.00  0.00     0.000 O
ATOM     26   O  A00 X   2      74.193 129.946  90.7980  0.00  0.00     0.000 O
ATOM     28  HD  A00 X   2      74.899 130.427  90.6580  0.00  0.00     0.000 HD
BRANCH 21 30
ATOM     28   N  A00 X   2      75.190 131.294  87.7450  0.00  0.00     0.000 N
ATOM     30  HD  A00 X   2      75.429 130.634  88.2520  0.00  0.00     0.000 HD
ATOM     30   O  A00 X   2      76.657 129.477  87.8170  0.00  0.00     0.000 OA
ATOM     31   S  A00 X   2      76.635 130.843  88.2020  0.00  0.00     0.000 S
ATOM     32   O  A00 X   2      77.508 131.695  87.4550  0.00  0.00     0.000 OA
ATOM     33   O  A00 X   2      76.744 131.125  89.6020  0.00  0.00     0.000 OA
ENDBRANCH 21 30
BRANCH 24 34
ATOM     34   C  A00 X   2      71.326 134.165  89.9950  0.00  0.00     0.000 C
ATOM     35   O  A00 X   2      71.919 137.467  88.5810  0.00  0.00     0.000 OA
ATOM     36   O  A00 X   2      72.001 135.350  89.5280  0.00  0.00     0.000 O
ATOM     37   O  A00 X   2      71.318 135.571  87.3020  0.00  0.00     0.000 OA
ATOM     38   S  A00 X   2      71.168 136.256  88.5500  0.00  0.00     0.000 S
ATOM     39   O  A00 X   2      69.850 136.344  89.1040  0.00  0.00     0.000 OA
ENDBRANCH 24 34
BRANCH 20 40
ATOM     40  O4  A00 X   3      71.953 131.074  87.5020  0.00  0.00     0.000 O
BRANCH 40 44
ATOM     41  C1  A00 X   3      68.340 130.975  87.2630  0.00  0.00     0.000 C
ATOM     42  C2  A00 X   3      69.261 129.739  87.1820  0.00  0.00     0.000 C
ATOM     43  C3  A00 X   3      70.394 129.958  86.1450  0.00  0.00     0.000 C
ATOM     44  C4  A00 X   3      71.160 131.264  86.3110  0.00  0.00     0.000 C
ATOM     45  C5  A00 X   3      70.167 132.459  86.3790  0.00  0.00     0.000 C
ATOM     46  O5  A00 X   3      69.111 132.205  87.3610  0.00  0.00     0.000 O
ATOM     47   O  A00 X   3      71.257 128.845  85.9220  0.00  0.00     0.000 O
ATOM     49  HD  A00 X   3      71.861 129.465  85.8880  0.00  0.00     0.000 HD
BRANCH 42 49
ATOM     49   O  A00 X   3      69.793 129.520  88.5070  0.00  0.00     0.000 O
ATOM     50   O  A00 X   3      71.302 127.971  89.5330  0.00  0.00     0.000 OA
ATOM     51   O  A00 X   3      69.728 127.162  87.9660  0.00  0.00     0.000 OA
ATOM     52   O  A00 X   3      68.939 127.965  90.0440  0.00  0.00     0.000 OA
ATOM     53   S  A00 X   3      69.958 128.074  89.0590  0.00  0.00     0.000 S
ENDBRANCH 42 49
BRANCH 45 54
ATOM     54   C  A00 X   3      69.626 132.827  84.9930  0.00  0.00     0.000 C
ATOM     55   O  A00 X   3      69.112 133.909  84.7960  0.00  0.00     0.000 OA
ATOM     56   O  A00 X   3      69.700 132.039  84.0630  0.00  0.00     0.000 OA
ENDBRANCH 45 54
BRANCH 41 57
ATOM     57  O4  A00 X   4      67.359 130.981  86.2020  0.00  0.00     0.000 O
BRANCH 57 61
ATOM     58  C1  A00 X   4      63.310 132.457  85.9440  0.00  0.00     0.000 C
ATOM     59  C2  A00 X   4      64.454 133.470  86.1980  0.00  0.00     0.000 C
ATOM     60  C3  A00 X   4      65.857 132.897  85.9140  0.00  0.00     0.000 C
ATOM     61  C4  A00 X   4      66.054 131.513  86.5680  0.00  0.00     0.000 C
ATOM     62  C5  A00 X   4      64.929 130.604  86.0130  0.00  0.00     0.000 C
ATOM     63  O5  A00 X   4      63.643 131.133  86.4230  0.00  0.00     0.000 O
BRANCH 59 66
ATOM     64   N  A00 X   4      64.477 133.876  87.6150  0.00  0.00     0.000 N
ATOM     66  HD  A00 X   4      64.178 133.310  88.1980  0.00  0.00     0.000 HD
ATOM     66   O  A00 X   4      62.723 135.440  87.0930  0.00  0.00     0.000 OA
ATOM     67   S  A00 X   4      63.801 135.269  88.0160  0.00  0.00     0.000 S
ATOM     68   O  A00 X   4      63.417 134.990  89.3690  0.00  0.00     0.000 OA
ATOM     69   O  A00 X   4      64.932 136.144  87.8940  0.00  0.00     0.000 OA
ENDBRANCH 59 66
BRANCH 62 70
ATOM     70   C  A00 X   4      65.024 129.130  86.4720  0.00  0.00     0.000 C
ATOM     71   O  A00 X   4      64.445 127.746  89.7670  0.00  0.00     0.000 OA
ATOM     72   O  A00 X   4      66.233 127.437  88.2660  0.00  0.00     0.000 OA
ATOM     73   O  A00 X   4      64.473 129.008  87.7930  0.00  0.00     0.000 O
ATOM     74   O  A00 X   4      66.066 129.515  89.5280  0.00  0.00     0.000 OA
ATOM     75   S  A00 X   4      65.391 128.415  88.9180  0.00  0.00     0.000 S
ENDBRANCH 62 70
ENDBRANCH 57 61
ENDBRANCH 41 57
ENDBRANCH 40 44
ENDBRANCH 20 40
ENDBRANCH 19 23
ENDBRANCH 1 19
TORSDOF 14
ENDMDL
MODEL 64
REMARK VINA RESULT:       0.0    103.507    107.982
ROOT
ATOM      1  C1  A00 X   1     105.671  51.229 113.7410  0.00  0.00     0.000 C
ATOM      2  C2  A00 X   1     105.810  50.252 114.9400  0.00  0.00     0.000 C
ATOM      3  C3  A00 X   1     104.488  49.902 115.6990  0.00  0.00     0.000 C
ATOM      4  C4  A00 X   1     103.284  50.835 115.4100  0.00  0.00     0.000 C
ATOM      5  C5  A00 X   1     103.726  52.203 114.8880  0.00  0.00     0.000 C
ATOM      6  O5  A00 X   1     104.401  51.920 113.6420  0.00  0.00     0.000 O
ATOM      7   O  A00 X   1     104.732  49.980 117.1020  0.00  0.00     0.000 O
ATOM      9  HD  A00 X   1     103.956  50.336 116.9570  0.00  0.00     0.000 HD
ATOM      9   O  A00 X   1     102.372  50.239 114.4870  0.00  0.00     0.000 O
ATOM     11  HD  A00 X   1     101.596  50.595 114.3430  0.00  0.00     0.000 HD
ENDROOT
BRANCH 2 11
ATOM     11   O  A00 X   1     106.405  49.036 114.4470  0.00  0.00     0.000 O
ATOM     12   O  A00 X   1     106.971  47.216 115.9090  0.00  0.00     0.000 OA
ATOM     13   O  A00 X   1     108.115  49.347 116.1630  0.00  0.00     0.000 OA
ATOM     14   O  A00 X   1     108.488  48.002 114.2370  0.00  0.00     0.000 OA
ATOM     15   S  A00 X   1     107.558  48.368 115.2720  0.00  0.00     0.000 S
ENDBRANCH 2 11
BRANCH 5 16
ATOM     16   C  A00 X   1     104.566  53.029 115.8680  0.00  0.00     0.000 C
ATOM     17   O  A00 X   1     104.559  52.722 117.0420  0.00  0.00     0.000 OA
ATOM     18   O  A00 X   1     105.243  53.972 115.5100  0.00  0.00     0.000 OA
ENDBRANCH 5 16
BRANCH 1 19
ATOM     19  O4  A00 X   2     106.783  52.150 113.6350  0.00  0.00     0.000 O
BRANCH 19 23
ATOM     20  C1  A00 X   2     106.808  52.105 109.3500  0.00  0.00     0.000 C
ATOM     21  C2  A00 X   2     107.818  51.187 110.0790  0.00  0.00     0.000 C
ATOM     22  C3  A00 X   2     107.409  50.982 111.5530  0.00  0.00     0.000 C
ATOM     23  C4  A00 X   2     107.218  52.344 112.2580  0.00  0.00     0.000 C
ATOM     24  C5  A00 X   2     106.204  53.173 111.4230  0.00  0.00     0.000 C
ATOM     25  O5  A00 X   2     106.737  53.355 110.0860  0.00  0.00     0.000 O
ATOM     26   O  A00 X   2     108.336  50.071 112.1670  0.00  0.00     0.000 O
ATOM     28  HD  A00 X   2     109.029  50.509 111.8890  0.00  0.00     0.000 HD
BRANCH 21 30
ATOM     28   N  A00 X   2     108.767  51.432 108.9890  0.00  0.00     0.000 N
ATOM     30  HD  A00 X   2     109.060  50.745 109.4270  0.00  0.00     0.000 HD
ATOM     30   O  A00 X   2     110.089  49.523 108.7310  0.00  0.00     0.000 OA
ATOM     31   S  A00 X   2     110.241  50.878 109.1270  0.00  0.00     0.000 S
ATOM     32   O  A00 X   2     110.994  51.691 108.2220  0.00  0.00     0.000 OA
ATOM     33   O  A00 X   2     110.658  51.118 110.4760  0.00  0.00     0.000 OA
ENDBRANCH 21 30
BRANCH 24 34
ATOM     34   C  A00 X   2     105.663  54.487 112.0350  0.00  0.00     0.000 C
ATOM     35   O  A00 X   2     106.164  57.779 110.5630  0.00  0.00     0.000 OA
ATOM     36   O  A00 X   2     106.302  55.638 111.4480  0.00  0.00     0.000 O
ATOM     37   O  A00 X   2     105.180  55.957 109.4210  0.00  0.00     0.000 OA
ATOM     38   S  A00 X   2     105.343  56.619 110.6790  0.00  0.00     0.000 S
ATOM     39   O  A00 X   2     104.182  56.777 111.5020  0.00  0.00     0.000 OA
ENDBRANCH 24 34
BRANCH 20 40
ATOM     40  O4  A00 X   3     105.544  51.430 109.4270  0.00  0.00     0.000 O
BRANCH 40 44
ATOM     41  C1  A00 X   3     101.970  51.615 109.9890  0.00  0.00     0.000 C
ATOM     42  C2  A00 X   3     102.747  50.315 109.6880  0.00  0.00     0.000 C
ATOM     43  C3  A00 X   3     103.640  50.481 108.4310  0.00  0.00     0.000 C
ATOM     44  C4  A00 X   3     104.528  51.719 108.4430  0.00  0.00     0.000 C
ATOM     45  C5  A00 X   3     103.674  52.983 108.7470  0.00  0.00     0.000 C
ATOM     46  O5  A00 X   3     102.841  52.778 109.9340  0.00  0.00     0.000 O
ATOM     47   O  A00 X   3     104.340  49.314 108.0050  0.00  0.00     0.000 O
ATOM     49  HD  A00 X   3     104.970  49.887 107.8480  0.00  0.00     0.000 HD
BRANCH 42 49
ATOM     49   O  A00 X   3     103.536  50.013 110.8590  0.00  0.00     0.000 O
ATOM     50   O  A00 X   3     105.125  48.338 111.4930  0.00  0.00     0.000 OA
ATOM     51   O  A00 X   3     103.200  47.686 110.2850  0.00  0.00     0.000 OA
ATOM     52   O  A00 X   3     102.931  48.451 112.5050  0.00  0.00     0.000 OA
ATOM     53   S  A00 X   3     103.720  48.539 111.3240  0.00  0.00     0.000 S
ENDBRANCH 42 49
BRANCH 45 54
ATOM     54   C  A00 X   3     102.875  53.437 107.5200  0.00  0.00     0.000 C
ATOM     55   O  A00 X   3     102.353  54.533 107.4920  0.00  0.00     0.000 OA
ATOM     56   O  A00 X   3     102.748  52.705 106.5510  0.00  0.00     0.000 OA
ENDBRANCH 45 54
BRANCH 41 57
ATOM     57  O4  A00 X   4     100.785  51.730 109.1700  0.00  0.00     0.000 O
BRANCH 57 61
ATOM     58  C1  A00 X   4      96.911  53.517 109.8380  0.00  0.00     0.000 C
ATOM     59  C2  A00 X   4      98.162  54.430 109.8590  0.00  0.00     0.000 C
ATOM     60  C3  A00 X   4      99.419  53.764 109.2630  0.00  0.00     0.000 C
ATOM     61  C4  A00 X   4      99.638  52.343 109.8250  0.00  0.00     0.000 C
ATOM     62  C5  A00 X   4      98.349  51.546 109.5070  0.00  0.00     0.000 C
ATOM     63  O5  A00 X   4      97.229  52.153 110.2010  0.00  0.00     0.000 O
BRANCH 59 66
ATOM     64   N  A00 X   4      98.519  54.769 111.2490  0.00  0.00     0.000 N
ATOM     66  HD  A00 X   4      98.303  54.202 111.8670  0.00  0.00     0.000 HD
ATOM     66   O  A00 X   4      96.834  56.486 111.1560  0.00  0.00     0.000 OA
ATOM     67   S  A00 X   4      98.064  56.191 111.8220  0.00  0.00     0.000 S
ATOM     68   O  A00 X   4      97.951  55.883 113.2180  0.00  0.00     0.000 OA
ATOM     69   O  A00 X   4      99.214  56.980 111.4840  0.00  0.00     0.000 OA
ENDBRANCH 59 66
BRANCH 62 70
ATOM     70   C  A00 X   4      98.418  50.051 109.9000  0.00  0.00     0.000 C
ATOM     71   O  A00 X   4      98.507  48.584 113.2090  0.00  0.00     0.000 OA
ATOM     72   O  A00 X   4      99.859  48.195 111.3210  0.00  0.00     0.000 OA
ATOM     73   O  A00 X   4      98.183  49.919 111.3110  0.00  0.00     0.000 O
ATOM     74   O  A00 X   4     100.176  50.225 112.6310  0.00  0.00     0.000 OA
ATOM     75   S  A00 X   4      99.283  49.209 112.1750  0.00  0.00     0.000 S
ENDBRANCH 62 70
ENDBRANCH 57 61
ENDBRANCH 41 57
ENDBRANCH 40 44
ENDBRANCH 20 40
ENDBRANCH 19 23
ENDBRANCH 1 19
TORSDOF 14
ENDMDL
MODEL 65
REMARK VINA RESULT:       0.0     61.805     66.066
ROOT
ATOM      1  C1  A00 X   1      81.956  59.488  40.6080  0.00  0.00     0.000 C
ATOM      2  C2  A00 X   1      80.936  60.326  41.4240  0.00  0.00     0.000 C
ATOM      3  C3  A00 X   1      80.279  59.608  42.6480  0.00  0.00     0.000 C
ATOM      4  C4  A00 X   1      80.436  58.066  42.6820  0.00  0.00     0.000 C
ATOM      5  C5  A00 X   1      80.708  57.483  41.2950  0.00  0.00     0.000 C
ATOM      6  O5  A00 X   1      81.968  58.067  40.8920  0.00  0.00     0.000 O
ATOM      7   O  A00 X   1      78.878  59.872  42.6360  0.00  0.00     0.000 O
ATOM      9  HD  A00 X   1      78.979  59.038  42.8480  0.00  0.00     0.000 HD
ATOM      9   O  A00 X   1      81.468  57.666  43.5840  0.00  0.00     0.000 O
ATOM     11  HD  A00 X   1      81.569  56.833  43.7960  0.00  0.00     0.000 HD
ENDROOT
BRANCH 2 11
ATOM     11   O  A00 X   1      81.612  61.513  41.8830  0.00  0.00     0.000 O
ATOM     12   O  A00 X   1      80.579  63.053  43.4090  0.00  0.00     0.000 OA
ATOM     13   O  A00 X   1      79.615  62.741  41.1970  0.00  0.00     0.000 OA
ATOM     14   O  A00 X   1      81.727  63.805  41.4520  0.00  0.00     0.000 OA
ATOM     15   S  A00 X   1      80.802  62.850  42.0000  0.00  0.00     0.000 S
ENDBRANCH 2 11
BRANCH 5 16
ATOM     16   C  A00 X   1      79.584  57.687  40.2750  0.00  0.00     0.000 C
ATOM     17   O  A00 X   1      78.477  57.977  40.6800  0.00  0.00     0.000 OA
ATOM     18   O  A00 X   1      79.761  57.574  39.0780  0.00  0.00     0.000 OA
ENDBRANCH 5 16
BRANCH 1 19
ATOM     19  O4  A00 X   2      81.878  59.741  39.1830  0.00  0.00     0.000 O
BRANCH 19 23
ATOM     20  C1  A00 X   2      86.123  59.597  38.6130  0.00  0.00     0.000 C
ATOM     21  C2  A00 X   2      85.469  60.992  38.7670  0.00  0.00     0.000 C
ATOM     22  C3  A00 X   2      84.061  60.873  39.3850  0.00  0.00     0.000 C
ATOM     23  C4  A00 X   2      83.191  59.890  38.5700  0.00  0.00     0.000 C
ATOM     24  C5  A00 X   2      83.960  58.544  38.4730  0.00  0.00     0.000 C
ATOM     25  O5  A00 X   2      85.230  58.779  37.8110  0.00  0.00     0.000 O
ATOM     26   O  A00 X   2      83.526  62.195  39.5700  0.00  0.00     0.000 O
ATOM     28  HD  A00 X   2      83.705  62.436  38.7580  0.00  0.00     0.000 HD
BRANCH 21 30
ATOM     28   N  A00 X   2      86.460  61.518  37.8230  0.00  0.00     0.000 N
ATOM     30  HD  A00 X   2      86.106  62.201  38.2210  0.00  0.00     0.000 HD
ATOM     30   O  A00 X   2      86.904  63.739  38.3980  0.00  0.00     0.000 OA
ATOM     31   S  A00 X   2      86.317  63.013  37.3280  0.00  0.00     0.000 S
ATOM     32   O  A00 X   2      87.056  63.036  36.1040  0.00  0.00     0.000 OA
ATOM     33   O  A00 X   2      84.926  63.243  37.0730  0.00  0.00     0.000 OA
ENDBRANCH 21 30
BRANCH 24 34
ATOM     34   C  A00 X   2      83.208  57.317  37.9040  0.00  0.00     0.000 C
ATOM     35   O  A00 X   2      81.678  57.213  34.6020  0.00  0.00     0.000 OA
ATOM     36   O  A00 X   2      82.419  57.676  36.7520  0.00  0.00     0.000 O
ATOM     37   O  A00 X   2      83.954  57.727  34.9880  0.00  0.00     0.000 OA
ATOM     38   S  A00 X   2      82.823  56.959  35.4120  0.00  0.00     0.000 S
ATOM     39   O  A00 X   2      83.041  55.582  35.7400  0.00  0.00     0.000 OA
ENDBRANCH 24 34
BRANCH 20 40
ATOM     40  O4  A00 X   3      86.205  59.058  39.9400  0.00  0.00     0.000 O
BRANCH 40 44
ATOM     41  C1  A00 X   3      85.737  56.189  42.1020  0.00  0.00     0.000 C
ATOM     42  C2  A00 X   3      86.194  57.585  42.5780  0.00  0.00     0.000 C
ATOM     43  C3  A00 X   3      87.385  58.099  41.7300  0.00  0.00     0.000 C
ATOM     44  C4  A00 X   3      87.170  58.023  40.2240  0.00  0.00     0.000 C
ATOM     45  C5  A00 X   3      86.719  56.591  39.8230  0.00  0.00     0.000 C
ATOM     46  O5  A00 X   3      85.600  56.143  40.6550  0.00  0.00     0.000 O
ATOM     47   O  A00 X   3      87.948  59.345  42.1370  0.00  0.00     0.000 O
ATOM     49  HD  A00 X   3      88.003  59.471  41.2820  0.00  0.00     0.000 HD
BRANCH 42 49
ATOM     49   O  A00 X   3      85.052  58.463  42.4710  0.00  0.00     0.000 O
ATOM     50   O  A00 X   3      84.615  60.789  42.8320  0.00  0.00     0.000 OA
ATOM     51   O  A00 X   3      85.975  59.630  44.3800  0.00  0.00     0.000 OA
ATOM     52   O  A00 X   3      83.678  59.086  44.2710  0.00  0.00     0.000 OA
ATOM     53   S  A00 X   3      84.803  59.563  43.5440  0.00  0.00     0.000 S
ENDBRANCH 42 49
BRANCH 45 54
ATOM     54   C  A00 X   3      87.895  55.607  39.8120  0.00  0.00     0.000 C
ATOM     55   O  A00 X   3      88.987  55.944  40.2200  0.00  0.00     0.000 OA
ATOM     56   O  A00 X   3      87.754  54.468  39.3930  0.00  0.00     0.000 OA
ENDBRANCH 45 54
BRANCH 41 57
ATOM     57  O4  A00 X   4      86.569  55.140  42.6470  0.00  0.00     0.000 O
BRANCH 57 61
ATOM     58  C1  A00 X   4      85.758  51.085  43.8830  0.00  0.00     0.000 C
ATOM     59  C2  A00 X   4      85.537  51.465  42.3980  0.00  0.00     0.000 C
ATOM     60  C3  A00 X   4      86.189  52.805  42.0030  0.00  0.00     0.000 C
ATOM     61  C4  A00 X   4      85.864  53.922  43.0180  0.00  0.00     0.000 C
ATOM     62  C5  A00 X   4      86.359  53.416  44.3960  0.00  0.00     0.000 C
ATOM     63  O5  A00 X   4      85.616  52.225  44.7620  0.00  0.00     0.000 O
BRANCH 59 66
ATOM     64   N  A00 X   4      84.147  51.639  41.9390  0.00  0.00     0.000 N
ATOM     66  HD  A00 X   4      83.574  51.950  42.5090  0.00  0.00     0.000 HD
ATOM     66   O  A00 X   4      83.965  49.239  41.8980  0.00  0.00     0.000 OA
ATOM     67   S  A00 X   4      83.411  50.392  41.2600  0.00  0.00     0.000 S
ATOM     68   O  A00 X   4      82.047  50.685  41.5910  0.00  0.00     0.000 OA
ATOM     69   O  A00 X   4      83.744  50.621  39.8830  0.00  0.00     0.000 OA
ENDBRANCH 59 66
BRANCH 62 70
ATOM     70   C  A00 X   4      86.219  54.451  45.5370  0.00  0.00     0.000 C
ATOM     71   O  A00 X   4      83.202  55.712  47.0910  0.00  0.00     0.000 OA
ATOM     72   O  A00 X   4      85.074  56.850  46.2280  0.00  0.00     0.000 OA
ATOM     73   O  A00 X   4      84.860  54.465  46.0030  0.00  0.00     0.000 O
ATOM     74   O  A00 X   4      83.432  55.902  44.6980  0.00  0.00     0.000 OA
ATOM     75   S  A00 X   4      84.086  55.828  45.9650  0.00  0.00     0.000 S
ENDBRANCH 62 70
ENDBRANCH 57 61
ENDBRANCH 41 57
ENDBRANCH 40 44
ENDBRANCH 20 40
ENDBRANCH 19 23
ENDBRANCH 1 19
TORSDOF 14
ENDMDL
MODEL 66
REMARK VINA RESULT:       0.1    115.749    120.094
ROOT
ATOM      1  C1  A00 X   1     106.230  45.137 118.9880  0.00  0.00     0.000 C
ATOM      2  C2  A00 X   1     106.769  46.221 118.0170  0.00  0.00     0.000 C
ATOM      3  C3  A00 X   1     106.798  47.684 118.5680  0.00  0.00     0.000 C
ATOM      4  C4  A00 X   1     105.961  47.933 119.8500  0.00  0.00     0.000 C
ATOM      5  C5  A00 X   1     104.857  46.891 120.0280  0.00  0.00     0.000 C
ATOM      6  O5  A00 X   1     105.556  45.635 120.1710  0.00  0.00     0.000 O
ATOM      7   O  A00 X   1     106.279  48.560 117.5700  0.00  0.00     0.000 O
ATOM      9  HD  A00 X   1     105.958  48.821 118.3300  0.00  0.00     0.000 HD
ATOM      9   O  A00 X   1     106.786  47.966 121.0140  0.00  0.00     0.000 O
ATOM     11  HD  A00 X   1     106.464  48.227 121.7740  0.00  0.00     0.000 HD
ENDROOT
BRANCH 2 11
ATOM     11   O  A00 X   1     108.103  45.838 117.6300  0.00  0.00     0.000 O
ATOM     12   O  A00 X   1     109.357  47.078 115.9990  0.00  0.00     0.000 OA
ATOM     13   O  A00 X   1     107.310  45.951 115.3220  0.00  0.00     0.000 OA
ATOM     14   O  A00 X   1     109.232  44.692 115.9380  0.00  0.00     0.000 OA
ATOM     15   S  A00 X   1     108.507  45.921 116.1170  0.00  0.00     0.000 S
ENDBRANCH 2 11
BRANCH 5 16
ATOM     16   C  A00 X   1     103.793  46.879 118.9260  0.00  0.00     0.000 C
ATOM     17   O  A00 X   1     103.703  47.843 118.1940  0.00  0.00     0.000 OA
ATOM     18   O  A00 X   1     103.043  45.939 118.7540  0.00  0.00     0.000 OA
ENDBRANCH 5 16
BRANCH 1 19
ATOM     19  O4  A00 X   2     105.441  44.124 118.3170  0.00  0.00     0.000 O
BRANCH 19 23
ATOM     20  C1  A00 X   2     106.873  40.934 120.7940  0.00  0.00     0.000 C
ATOM     21  C2  A00 X   2     107.537  41.115 119.4070  0.00  0.00     0.000 C
ATOM     22  C3  A00 X   2     107.239  42.516 118.8350  0.00  0.00     0.000 C
ATOM     23  C4  A00 X   2     105.717  42.782 118.8110  0.00  0.00     0.000 C
ATOM     24  C5  A00 X   2     105.172  42.551 120.2470  0.00  0.00     0.000 C
ATOM     25  O5  A00 X   2     105.451  41.181 120.6370  0.00  0.00     0.000 O
ATOM     26   O  A00 X   2     107.931  42.660 117.5830  0.00  0.00     0.000 O
ATOM     28  HD  A00 X   2     107.629  41.910 117.2720  0.00  0.00     0.000 HD
BRANCH 21 30
ATOM     28   N  A00 X   2     107.685  39.658 119.3310  0.00  0.00     0.000 N
ATOM     30  HD  A00 X   2     108.205  39.995 118.7250  0.00  0.00     0.000 HD
ATOM     30   O  A00 X   2     109.618  39.188 118.1060  0.00  0.00     0.000 OA
ATOM     31   S  A00 X   2     108.213  39.020 117.9850  0.00  0.00     0.000 S
ATOM     32   O  A00 X   2     107.759  37.665 118.0520  0.00  0.00     0.000 OA
ATOM     33   O  A00 X   2     107.567  39.708 116.9070  0.00  0.00     0.000 OA
ENDBRANCH 21 30
BRANCH 24 34
ATOM     34   C  A00 X   2     103.715  42.972 120.5470  0.00  0.00     0.000 C
ATOM     35   O  A00 X   2     101.094  40.665 121.5780  0.00  0.00     0.000 OA
ATOM     36   O  A00 X   2     102.836  41.830 120.5810  0.00  0.00     0.000 O
ATOM     37   O  A00 X   2     103.155  40.914 122.7100  0.00  0.00     0.000 OA
ATOM     38   S  A00 X   2     102.127  41.570 121.9610  0.00  0.00     0.000 S
ATOM     39   O  A00 X   2     101.675  42.845 122.4300  0.00  0.00     0.000 OA
ENDBRANCH 24 34
BRANCH 20 40
ATOM     40  O4  A00 X   3     107.446  41.947 121.6330  0.00  0.00     0.000 O
BRANCH 40 44
ATOM     41  C1  A00 X   3     106.963  44.485 124.1730  0.00  0.00     0.000 C
ATOM     42  C2  A00 X   3     108.316  44.154 123.5050  0.00  0.00     0.000 C
ATOM     43  C3  A00 X   3     108.604  42.632 123.5590  0.00  0.00     0.000 C
ATOM     44  C4  A00 X   3     107.463  41.753 123.0640  0.00  0.00     0.000 C
ATOM     45  C5  A00 X   3     106.141  42.142 123.7840  0.00  0.00     0.000 C
ATOM     46  O5  A00 X   3     105.914  43.587 123.7170  0.00  0.00     0.000 O
ATOM     47   O  A00 X   3     109.870  42.219 123.0480  0.00  0.00     0.000 O
ATOM     49  HD  A00 X   3     109.403  41.558 122.7400  0.00  0.00     0.000 HD
BRANCH 42 49
ATOM     49   O  A00 X   3     108.242  44.630 122.1430  0.00  0.00     0.000 O
ATOM     50   O  A00 X   3     109.667  44.602 120.2190  0.00  0.00     0.000 OA
ATOM     51   O  A00 X   3     110.617  45.056 122.3360  0.00  0.00     0.000 OA
ATOM     52   O  A00 X   3     109.158  46.656 121.3890  0.00  0.00     0.000 OA
ATOM     53   S  A00 X   3     109.487  45.275 121.4670  0.00  0.00     0.000 S
ENDBRANCH 42 49
BRANCH 45 54
ATOM     54   C  A00 X   3     106.089  41.589 125.2130  0.00  0.00     0.000 C
ATOM     55   O  A00 X   3     105.066  41.647 125.8630  0.00  0.00     0.000 OA
ATOM     56   O  A00 X   3     107.076  41.081 125.7230  0.00  0.00     0.000 OA
ENDBRANCH 45 54
BRANCH 41 57
ATOM     57  O4  A00 X   4     107.083  44.565 125.6110  0.00  0.00     0.000 O
BRANCH 57 61
ATOM     58  C1  A00 X   4     105.104  46.975 128.5970  0.00  0.00     0.000 C
ATOM     59  C2  A00 X   4     104.252  46.001 127.7450  0.00  0.00     0.000 C
ATOM     60  C3  A00 X   4     105.090  44.954 126.9840  0.00  0.00     0.000 C
ATOM     61  C4  A00 X   4     106.279  45.602 126.2420  0.00  0.00     0.000 C
ATOM     62  C5  A00 X   4     107.110  46.346 127.3160  0.00  0.00     0.000 C
ATOM     63  O5  A00 X   4     106.300  47.397 127.9020  0.00  0.00     0.000 O
BRANCH 59 66
ATOM     64   N  A00 X   4     103.633  46.929 126.7810  0.00  0.00     0.000 N
ATOM     66  HD  A00 X   4     104.032  47.686 126.6420  0.00  0.00     0.000 HD
ATOM     66   O  A00 X   4     101.874  47.270 128.3890  0.00  0.00     0.000 OA
ATOM     67   S  A00 X   4     102.092  47.310 126.9770  0.00  0.00     0.000 S
ATOM     68   O  A00 X   4     102.071  48.616 126.3860  0.00  0.00     0.000 OA
ATOM     69   O  A00 X   4     101.476  46.291 126.1760  0.00  0.00     0.000 OA
ENDBRANCH 59 66
BRANCH 62 70
ATOM     70   C  A00 X   4     108.418  46.975 126.7790  0.00  0.00     0.000 C
ATOM     71   O  A00 X   4     108.820  49.791 124.5390  0.00  0.00     0.000 OA
ATOM     72   O  A00 X   4     109.782  47.643 124.4910  0.00  0.00     0.000 OA
ATOM     73   O  A00 X   4     108.114  48.218 126.1250  0.00  0.00     0.000 O
ATOM     74   O  A00 X   4     107.457  47.935 123.8240  0.00  0.00     0.000 OA
ATOM     75   S  A00 X   4     108.548  48.384 124.6270  0.00  0.00     0.000 S
ENDBRANCH 62 70
ENDBRANCH 57 61
ENDBRANCH 41 57
ENDBRANCH 40 44
ENDBRANCH 20 40
ENDBRANCH 19 23
ENDBRANCH 1 19
TORSDOF 14
ENDMDL
MODEL 67
REMARK VINA RESULT:       0.1     91.606     96.410
ROOT
ATOM      1  C1  A00 X   1     144.438 117.324  47.9520  0.00  0.00     0.000 C
ATOM      2  C2  A00 X   1     145.558 117.475  49.0160  0.00  0.00     0.000 C
ATOM      3  C3  A00 X   1     146.523 116.254  49.1760  0.00  0.00     0.000 C
ATOM      4  C4  A00 X   1     146.035 114.928  48.5360  0.00  0.00     0.000 C
ATOM      5  C5  A00 X   1     144.518 114.899  48.3540  0.00  0.00     0.000 C
ATOM      6  O5  A00 X   1     144.237 115.983  47.4400  0.00  0.00     0.000 O
ATOM      7   O  A00 X   1     146.702 115.991  50.5650  0.00  0.00     0.000 O
ATOM      9  HD  A00 X   1     146.620 115.225  50.1690  0.00  0.00     0.000 HD
ATOM      9   O  A00 X   1     146.676 114.686  47.2840  0.00  0.00     0.000 O
ATOM     11  HD  A00 X   1     146.593 113.920  46.8880  0.00  0.00     0.000 HD
ENDROOT
BRANCH 2 11
ATOM     11   O  A00 X   1     146.331 118.642  48.6760  0.00  0.00     0.000 O
ATOM     12   O  A00 X   1     148.373 119.189  49.8150  0.00  0.00     0.000 OA
ATOM     13   O  A00 X   1     146.281 119.190  51.0560  0.00  0.00     0.000 OA
ATOM     14   O  A00 X   1     146.694 120.836  49.3890  0.00  0.00     0.000 OA
ATOM     15   S  A00 X   1     146.965 119.494  49.8290  0.00  0.00     0.000 S
ENDBRANCH 2 11
BRANCH 5 16
ATOM     16   C  A00 X   1     143.708 114.967  49.6530  0.00  0.00     0.000 C
ATOM     17   O  A00 X   1     142.513 115.165  49.5830  0.00  0.00     0.000 OA
ATOM     18   O  A00 X   1     144.217 114.824  50.7470  0.00  0.00     0.000 OA
ENDBRANCH 5 16
BRANCH 1 19
ATOM     19  O4  A00 X   2     143.187 117.925  48.3660  0.00  0.00     0.000 O
BRANCH 19 23
ATOM     20  C1  A00 X   2     142.312 119.511  44.4820  0.00  0.00     0.000 C
ATOM     21  C2  A00 X   2     142.945 120.469  45.5190  0.00  0.00     0.000 C
ATOM     22  C3  A00 X   2     143.588 119.678  46.6780  0.00  0.00     0.000 C
ATOM     23  C4  A00 X   2     142.564 118.706  47.3060  0.00  0.00     0.000 C
ATOM     24  C5  A00 X   2     141.992 117.818  46.1670  0.00  0.00     0.000 C
ATOM     25  O5  A00 X   2     141.354 118.673  45.1830  0.00  0.00     0.000 O
ATOM     26   O  A00 X   2     144.220 120.607  47.5750  0.00  0.00     0.000 O
ATOM     28  HD  A00 X   2     143.516 121.109  47.6320  0.00  0.00     0.000 HD
BRANCH 21 30
ATOM     28   N  A00 X   2     142.152 121.558  44.9410  0.00  0.00     0.000 N
ATOM     30  HD  A00 X   2     142.770 121.927  45.4230  0.00  0.00     0.000 HD
ATOM     30   O  A00 X   2     143.371 123.540  45.1560  0.00  0.00     0.000 OA
ATOM     31   S  A00 X   2     142.169 122.970  45.6530  0.00  0.00     0.000 S
ATOM     32   O  A00 X   2     140.968 123.596  45.1930  0.00  0.00     0.000 OA
ATOM     33   O  A00 X   2     142.098 122.733  47.0640  0.00  0.00     0.000 OA
ENDBRANCH 21 30
BRANCH 24 34
ATOM     34   C  A00 X   2     141.116 116.606  46.5630  0.00  0.00     0.000 C
ATOM     35   O  A00 X   2     138.064 116.851  48.5330  0.00  0.00     0.000 OA
ATOM     36   O  A00 X   2     140.195 116.949  47.6170  0.00  0.00     0.000 O
ATOM     37   O  A00 X   2     138.437 118.038  46.5220  0.00  0.00     0.000 OA
ATOM     38   S  A00 X   2     138.672 116.825  47.2440  0.00  0.00     0.000 S
ATOM     39   O  A00 X   2     138.530 115.591  46.5310  0.00  0.00     0.000 OA
ENDBRANCH 24 34
BRANCH 20 40
ATOM     40  O4  A00 X   3     143.391 118.700  43.9940  0.00  0.00     0.000 O
BRANCH 40 44
ATOM     41  C1  A00 X   3     144.516 115.350  43.1960  0.00  0.00     0.000 C
ATOM     42  C2  A00 X   3     145.390 116.619  43.0970  0.00  0.00     0.000 C
ATOM     43  C3  A00 X   3     144.672 117.725  42.2820  0.00  0.00     0.000 C
ATOM     44  C4  A00 X   3     143.245 118.017  42.7300  0.00  0.00     0.000 C
ATOM     45  C5  A00 X   3     142.429 116.695  42.8010  0.00  0.00     0.000 C
ATOM     46  O5  A00 X   3     143.149 115.677  43.5700  0.00  0.00     0.000 O
ATOM     47   O  A00 X   3     145.423 118.916  42.0510  0.00  0.00     0.000 O
ATOM     49  HD  A00 X   3     144.655 119.292  42.1900  0.00  0.00     0.000 HD
BRANCH 42 49
ATOM     49   O  A00 X   3     145.663 117.051  44.4480  0.00  0.00     0.000 O
ATOM     50   O  A00 X   3     146.840 118.860  45.4830  0.00  0.00     0.000 OA
ATOM     51   O  A00 X   3     147.803 117.802  43.6010  0.00  0.00     0.000 OA
ATOM     52   O  A00 X   3     147.644 116.584  45.6200  0.00  0.00     0.000 OA
ATOM     53   S  A00 X   3     147.066 117.612  44.8250  0.00  0.00     0.000 S
ENDBRANCH 42 49
BRANCH 45 54
ATOM     54   C  A00 X   3     142.008 116.213  41.4080  0.00  0.00     0.000 C
ATOM     55   O  A00 X   3     142.482 116.716  40.4090  0.00  0.00     0.000 OA
ATOM     56   O  A00 X   3     141.188 115.317  41.2770  0.00  0.00     0.000 OA
ENDBRANCH 45 54
BRANCH 41 57
ATOM     57  O4  A00 X   4     144.621 114.535  42.0080  0.00  0.00     0.000 O
BRANCH 57 61
ATOM     58  C1  A00 X   4     144.515 110.270  41.3480  0.00  0.00     0.000 C
ATOM     59  C2  A00 X   4     143.259 110.960  41.9360  0.00  0.00     0.000 C
ATOM     60  C3  A00 X   4     143.277 112.495  41.7910  0.00  0.00     0.000 C
ATOM     61  C4  A00 X   4     144.626 113.098  42.2420  0.00  0.00     0.000 C
ATOM     62  C5  A00 X   4     145.717 112.417  41.3790  0.00  0.00     0.000 C
ATOM     63  O5  A00 X   4     145.727 110.994  41.6580  0.00  0.00     0.000 O
BRANCH 59 66
ATOM     64   N  A00 X   4     143.145 110.714  43.3850  0.00  0.00     0.000 N
ATOM     66  HD  A00 X   4     143.878 110.582  43.8270  0.00  0.00     0.000 HD
ATOM     66   O  A00 X   4     142.179 108.575  42.8440  0.00  0.00     0.000 OA
ATOM     67   S  A00 X   4     142.157 109.559  43.8810  0.00  0.00     0.000 S
ATOM     68   O  A00 X   4     142.798 109.178  45.1060  0.00  0.00     0.000 OA
ATOM     69   O  A00 X   4     140.951 110.317  44.0600  0.00  0.00     0.000 OA
ENDBRANCH 59 66
BRANCH 62 70
ATOM     70   C  A00 X   4     147.143 112.973  41.6090  0.00  0.00     0.000 C
ATOM     71   O  A00 X   4     149.377 112.384  44.3960  0.00  0.00     0.000 OA
ATOM     72   O  A00 X   4     148.715 114.392  43.3580  0.00  0.00     0.000 OA
ATOM     73   O  A00 X   4     147.748 112.285  42.7160  0.00  0.00     0.000 O
ATOM     74   O  A00 X   4     147.170 113.241  44.8500  0.00  0.00     0.000 OA
ATOM     75   S  A00 X   4     148.253 113.144  43.9260  0.00  0.00     0.000 S
ENDBRANCH 62 70
ENDBRANCH 57 61
ENDBRANCH 41 57
ENDBRANCH 40 44
ENDBRANCH 20 40
ENDBRANCH 19 23
ENDBRANCH 1 19
TORSDOF 14
ENDMDL
MODEL 68
REMARK VINA RESULT:       0.1     52.642     56.132
ROOT
ATOM      1  C1  A00 X   1      60.236  66.159  15.7180  0.00  0.00     0.000 C
ATOM      2  C2  A00 X   1      58.798  66.728  15.8550  0.00  0.00     0.000 C
ATOM      3  C3  A00 X   1      57.866  66.000  16.8780  0.00  0.00     0.000 C
ATOM      4  C4  A00 X   1      58.350  64.604  17.3480  0.00  0.00     0.000 C
ATOM      5  C5  A00 X   1      59.323  63.967  16.3560  0.00  0.00     0.000 C
ATOM      6  O5  A00 X   1      60.457  64.863  16.3260  0.00  0.00     0.000 O
ATOM      7   O  A00 X   1      56.589  65.803  16.2740  0.00  0.00     0.000 O
ATOM      9  HD  A00 X   1      56.781  65.078  16.7070  0.00  0.00     0.000 HD
ATOM      9   O  A00 X   1      58.952  64.668  18.6400  0.00  0.00     0.000 O
ATOM     11  HD  A00 X   1      59.144  63.943  19.0730  0.00  0.00     0.000 HD
ENDROOT
BRANCH 2 11
ATOM     11   O  A00 X   1      58.910  68.116  16.2280  0.00  0.00     0.000 O
ATOM     12   O  A00 X   1      56.991  69.426  16.8340  0.00  0.00     0.000 OA
ATOM     13   O  A00 X   1      57.168  68.550  14.5720  0.00  0.00     0.000 OA
ATOM     14   O  A00 X   1      58.649  70.253  15.3240  0.00  0.00     0.000 OA
ATOM     15   S  A00 X   1      57.835  69.130  15.7040  0.00  0.00     0.000 S
ENDBRANCH 2 11
BRANCH 5 16
ATOM     16   C  A00 X   1      58.737  63.674  14.9710  0.00  0.00     0.000 C
ATOM     17   O  A00 X   1      59.494  63.370  14.0720  0.00  0.00     0.000 OA
ATOM     18   O  A00 X   1      57.545  63.728  14.7430  0.00  0.00     0.000 OA
ENDBRANCH 5 16
BRANCH 1 19
ATOM     19  O4  A00 X   2      60.724  66.193  14.3540  0.00  0.00     0.000 O
BRANCH 19 23
ATOM     20  C1  A00 X   2      64.707  67.303  15.4810  0.00  0.00     0.000 C
ATOM     21  C2  A00 X   2      63.750  68.434  15.0320  0.00  0.00     0.000 C
ATOM     22  C3  A00 X   2      62.282  67.963  15.0810  0.00  0.00     0.000 C
ATOM     23  C4  A00 X   2      62.100  66.663  14.2650  0.00  0.00     0.000 C
ATOM     24  C5  A00 X   2      63.122  65.622  14.7970  0.00  0.00     0.000 C
ATOM     25  O5  A00 X   2      64.462  66.154  14.6280  0.00  0.00     0.000 O
ATOM     26   O  A00 X   2      61.432  69.065  14.7230  0.00  0.00     0.000 O
ATOM     28  HD  A00 X   2      61.883  69.246  14.0060  0.00  0.00     0.000 HD
BRANCH 21 30
ATOM     28   N  A00 X   2      64.901  69.118  14.4340  0.00  0.00     0.000 N
ATOM     30  HD  A00 X   2      64.263  69.701  14.4890  0.00  0.00     0.000 HD
ATOM     30   O  A00 X   2      64.531  71.421  14.5730  0.00  0.00     0.000 OA
ATOM     31   S  A00 X   2      64.647  70.419  13.5730  0.00  0.00     0.000 S
ATOM     32   O  A00 X   2      65.815  70.516  12.7540  0.00  0.00     0.000 OA
ATOM     33   O  A00 X   2      63.490  70.172  12.7650  0.00  0.00     0.000 OA
ENDBRANCH 21 30
BRANCH 24 34
ATOM     34   C  A00 X   2      62.993  64.161  14.3040  0.00  0.00     0.000 C
ATOM     35   O  A00 X   2      65.518  62.446  12.3190  0.00  0.00     0.000 OA
ATOM     36   O  A00 X   2      63.951  63.873  13.2660  0.00  0.00     0.000 O
ATOM     37   O  A00 X   2      65.945  63.455  14.4150  0.00  0.00     0.000 OA
ATOM     38   S  A00 X   2      64.995  62.749  13.6110  0.00  0.00     0.000 S
ATOM     39   O  A00 X   2      64.259  61.688  14.2310  0.00  0.00     0.000 OA
ENDBRANCH 24 34
BRANCH 20 40
ATOM     40  O4  A00 X   3      64.330  66.988  16.8300  0.00  0.00     0.000 O
BRANCH 40 44
ATOM     41  C1  A00 X   3      63.637  64.405  19.2730  0.00  0.00     0.000 C
ATOM     42  C2  A00 X   3      63.516  65.921  19.5370  0.00  0.00     0.000 C
ATOM     43  C3  A00 X   3      64.806  66.665  19.1070  0.00  0.00     0.000 C
ATOM     44  C4  A00 X   3      65.284  66.340  17.6970  0.00  0.00     0.000 C
ATOM     45  C5  A00 X   3      65.386  64.800  17.5110  0.00  0.00     0.000 C
ATOM     46  O5  A00 X   3      64.151  64.139  17.9380  0.00  0.00     0.000 O
ATOM     47   O  A00 X   3      64.842  68.063  19.3850  0.00  0.00     0.000 O
ATOM     49  HD  A00 X   3      65.230  68.093  18.6120  0.00  0.00     0.000 HD
BRANCH 42 49
ATOM     49   O  A00 X   3      62.366  66.389  18.7980  0.00  0.00     0.000 O
ATOM     50   O  A00 X   3      61.310  68.498  18.3890  0.00  0.00     0.000 OA
ATOM     51   O  A00 X   3      62.095  68.018  20.5670  0.00  0.00     0.000 OA
ATOM     52   O  A00 X   3      60.253  66.792  19.7380  0.00  0.00     0.000 OA
ATOM     53   S  A00 X   3      61.443  67.491  19.3940  0.00  0.00     0.000 S
ENDBRANCH 42 49
BRANCH 45 54
ATOM     54   C  A00 X   3      66.640  64.229  18.1830  0.00  0.00     0.000 C
ATOM     55   O  A00 X   3      67.098  63.161  17.8320  0.00  0.00     0.000 OA
ATOM     56   O  A00 X   3      67.198  64.836  19.0840  0.00  0.00     0.000 OA
ENDBRANCH 45 54
BRANCH 41 57
ATOM     57  O4  A00 X   4      64.366  63.736  20.3260  0.00  0.00     0.000 O
BRANCH 57 61
ATOM     58  C1  A00 X   4      64.392  59.672  21.7840  0.00  0.00     0.000 C
ATOM     59  C2  A00 X   4      65.162  59.997  20.4800  0.00  0.00     0.000 C
ATOM     60  C3  A00 X   4      65.384  61.507  20.2560  0.00  0.00     0.000 C
ATOM     61  C4  A00 X   4      64.085  62.314  20.4660  0.00  0.00     0.000 C
ATOM     62  C5  A00 X   4      63.605  62.001  21.9050  0.00  0.00     0.000 C
ATOM     63  O5  A00 X   4      63.296  60.588  22.0080  0.00  0.00     0.000 O
BRANCH 59 66
ATOM     64   N  A00 X   4      64.404  59.537  19.3020  0.00  0.00     0.000 N
ATOM     66  HD  A00 X   4      63.542  59.502  19.3700  0.00  0.00     0.000 HD
ATOM     66   O  A00 X   4      65.297  57.338  19.7110  0.00  0.00     0.000 OA
ATOM     67   S  A00 X   4      64.817  58.144  18.6320  0.00  0.00     0.000 S
ATOM     68   O  A00 X   4      63.558  57.743  18.0750  0.00  0.00     0.000 OA
ATOM     69   O  A00 X   4      65.771  58.603  17.6620  0.00  0.00     0.000 OA
ENDBRANCH 59 66
BRANCH 62 70
ATOM     70   C  A00 X   4      62.362  62.810  22.3470  0.00  0.00     0.000 C
ATOM     71   O  A00 X   4      58.866  62.099  21.7310  0.00  0.00     0.000 OA
ATOM     72   O  A00 X   4      60.104  64.080  21.4360  0.00  0.00     0.000 OA
ATOM     73   O  A00 X   4      61.178  62.034  22.1000  0.00  0.00     0.000 O
ATOM     74   O  A00 X   4      60.360  62.252  19.8440  0.00  0.00     0.000 OA
ATOM     75   S  A00 X   4      60.070  62.657  21.1820  0.00  0.00     0.000 S
ENDBRANCH 62 70
ENDBRANCH 57 61
ENDBRANCH 41 57
ENDBRANCH 40 44
ENDBRANCH 20 40
ENDBRANCH 19 23
ENDBRANCH 1 19
TORSDOF 14
ENDMDL
MODEL 69
REMARK VINA RESULT:       0.1     66.346     70.072
ROOT
ATOM      1  C1  A00 X   1      80.018 144.696  93.6100  0.00  0.00     0.000 C
ATOM      2  C2  A00 X   1      79.994 143.144  93.6280  0.00  0.00     0.000 C
ATOM      3  C3  A00 X   1      79.664 142.478  95.0040  0.00  0.00     0.000 C
ATOM      4  C4  A00 X   1      79.765 143.410  96.2390  0.00  0.00     0.000 C
ATOM      5  C5  A00 X   1      80.668 144.616  95.9800  0.00  0.00     0.000 C
ATOM      6  O5  A00 X   1      80.018 145.337  94.9090  0.00  0.00     0.000 O
ATOM      7   O  A00 X   1      80.582 141.410  95.2270  0.00  0.00     0.000 O
ATOM      9  HD  A00 X   1      80.486 141.825  95.9810  0.00  0.00     0.000 HD
ATOM      9   O  A00 X   1      78.477 143.854  96.6650  0.00  0.00     0.000 O
ATOM     11  HD  A00 X   1      78.381 144.269  97.4180  0.00  0.00     0.000 HD
ENDROOT
BRANCH 2 11
ATOM     11   O  A00 X   1      79.027 142.709  92.6520  0.00  0.00     0.000 O
ATOM     12   O  A00 X   1      78.386 140.404  92.4400  0.00  0.00     0.000 OA
ATOM     13   O  A00 X   1      80.683 141.050  91.9650  0.00  0.00     0.000 OA
ATOM     14   O  A00 X   1      78.916 141.741  90.5310  0.00  0.00     0.000 OA
ATOM     15   S  A00 X   1      79.286 141.375  91.8710  0.00  0.00     0.000 S
ENDBRANCH 2 11
BRANCH 5 16
ATOM     16   C  A00 X   1      82.134 144.277  95.6910  0.00  0.00     0.000 C
ATOM     17   O  A00 X   1      82.860 145.154  95.2680  0.00  0.00     0.000 OA
ATOM     18   O  A00 X   1      82.595 143.169  95.8740  0.00  0.00     0.000 OA
ENDBRANCH 5 16
BRANCH 1 19
ATOM     19  O4  A00 X   2      81.059 145.231  92.7560  0.00  0.00     0.000 O
BRANCH 19 23
ATOM     20  C1  A00 X   2      78.628 148.436  91.2790  0.00  0.00     0.000 C
ATOM     21  C2  A00 X   2      78.740 147.163  90.4050  0.00  0.00     0.000 C
ATOM     22  C3  A00 X   2      79.264 145.972  91.2340  0.00  0.00     0.000 C
ATOM     23  C4  A00 X   2      80.592 146.339  91.9340  0.00  0.00     0.000 C
ATOM     24  C5  A00 X   2      80.353 147.634  92.7580  0.00  0.00     0.000 C
ATOM     25  O5  A00 X   2      79.936 148.692  91.8550  0.00  0.00     0.000 O
ATOM     26   O  A00 X   2      79.285 144.802  90.3990  0.00  0.00     0.000 O
ATOM     28  HD  A00 X   2      79.712 145.204  89.7610  0.00  0.00     0.000 HD
BRANCH 21 30
ATOM     28   N  A00 X   2      78.671 148.019  89.2160  0.00  0.00     0.000 N
ATOM     30  HD  A00 X   2      78.516 147.209  88.9520  0.00  0.00     0.000 HD
ATOM     30   O  A00 X   2      77.610 146.817  87.5170  0.00  0.00     0.000 OA
ATOM     31   S  A00 X   2      78.891 147.362  87.7960  0.00  0.00     0.000 S
ATOM     32   O  A00 X   2      79.271 148.465  86.9680  0.00  0.00     0.000 OA
ATOM     33   O  A00 X   2      79.977 146.437  87.9210  0.00  0.00     0.000 OA
ENDBRANCH 21 30
BRANCH 24 34
ATOM     34   C  A00 X   2      81.462 148.087  93.7370  0.00  0.00     0.000 C
ATOM     35   O  A00 X   2      83.318 151.203  93.4170  0.00  0.00     0.000 OA
ATOM     36   O  A00 X   2      82.248 149.157  93.1760  0.00  0.00     0.000 O
ATOM     37   O  A00 X   2      80.959 151.076  93.5320  0.00  0.00     0.000 OA
ATOM     38   S  A00 X   2      82.200 150.513  93.9710  0.00  0.00     0.000 S
ATOM     39   O  A00 X   2      82.321 150.174  95.3570  0.00  0.00     0.000 OA
ENDBRANCH 24 34
BRANCH 20 40
ATOM     40  O4  A00 X   3      77.699 148.109  92.3230  0.00  0.00     0.000 O
BRANCH 40 44
ATOM     41  C1  A00 X   3      76.904 148.251  95.8540  0.00  0.00     0.000 C
ATOM     42  C2  A00 X   3      76.032 147.561  94.7830  0.00  0.00     0.000 C
ATOM     43  C3  A00 X   3      75.762 148.513  93.5890  0.00  0.00     0.000 C
ATOM     44  C4  A00 X   3      77.007 149.173  93.0110  0.00  0.00     0.000 C
ATOM     45  C5  A00 X   3      77.827 149.848  94.1470  0.00  0.00     0.000 C
ATOM     46  O5  A00 X   3      78.049 148.918  95.2560  0.00  0.00     0.000 O
ATOM     47   O  A00 X   3      74.893 148.010  92.5760  0.00  0.00     0.000 O
ATOM     49  HD  A00 X   3      75.454 148.413  92.0530  0.00  0.00     0.000 HD
BRANCH 42 49
ATOM     49   O  A00 X   3      76.740 146.374  94.3620  0.00  0.00     0.000 O
ATOM     50   O  A00 X   3      76.410 144.644  92.7400  0.00  0.00     0.000 OA
ATOM     51   O  A00 X   3      74.555 145.399  93.9970  0.00  0.00     0.000 OA
ATOM     52   O  A00 X   3      76.260 144.201  95.1130  0.00  0.00     0.000 OA
ATOM     53   S  A00 X   3      75.958 145.070  94.0270  0.00  0.00     0.000 S
ENDBRANCH 42 49
BRANCH 45 54
ATOM     54   C  A00 X   3      77.198 151.175  94.5890  0.00  0.00     0.000 C
ATOM     55   O  A00 X   3      77.863 152.015  95.1600  0.00  0.00     0.000 OA
ATOM     56   O  A00 X   3      76.018 151.409  94.3770  0.00  0.00     0.000 OA
ENDBRANCH 45 54
BRANCH 41 57
ATOM     57  O4  A00 X   4      76.115 149.100  96.7180  0.00  0.00     0.000 O
BRANCH 57 61
ATOM     58  C1  A00 X   4      76.653 150.521 100.7590  0.00  0.00     0.000 C
ATOM     59  C2  A00 X   4      77.445 151.210  99.6190  0.00  0.00     0.000 C
ATOM     60  C3  A00 X   4      76.914 150.873  98.2110  0.00  0.00     0.000 C
ATOM     61  C4  A00 X   4      76.694 149.356  98.0290  0.00  0.00     0.000 C
ATOM     62  C5  A00 X   4      75.709 148.921  99.1430  0.00  0.00     0.000 C
ATOM     63  O5  A00 X   4      76.323 149.150 100.4380  0.00  0.00     0.000 O
BRANCH 59 66
ATOM     64   N  A00 X   4      78.851 150.766  99.6200  0.00  0.00     0.000 N
ATOM     66  HD  A00 X   4      79.020 149.975  99.9290  0.00  0.00     0.000 HD
ATOM     66   O  A00 X   4      79.253 152.375 101.3660  0.00  0.00     0.000 OA
ATOM     67   S  A00 X   4      79.944 151.713 100.3040  0.00  0.00     0.000 S
ATOM     68   O  A00 X   4      80.912 150.737 100.7110  0.00  0.00     0.000 OA
ATOM     69   O  A00 X   4      80.341 152.500  99.1710  0.00  0.00     0.000 OA
ENDBRANCH 59 66
BRANCH 62 70
ATOM     70   C  A00 X   4      75.276 147.439  99.0600  0.00  0.00     0.000 C
ATOM     71   O  A00 X   4      76.978 144.509 100.3360  0.00  0.00     0.000 OA
ATOM     72   O  A00 X   4      76.053 144.944  98.2150  0.00  0.00     0.000 OA
ATOM     73   O  A00 X   4      76.121 146.648  99.9110  0.00  0.00     0.000 O
ATOM     74   O  A00 X   4      78.171 145.974  98.8380  0.00  0.00     0.000 OA
ATOM     75   S  A00 X   4      76.909 145.458  99.2610  0.00  0.00     0.000 S
ENDBRANCH 62 70
ENDBRANCH 57 61
ENDBRANCH 41 57
ENDBRANCH 40 44
ENDBRANCH 20 40
ENDBRANCH 19 23
ENDBRANCH 1 19
TORSDOF 14
ENDMDL
MODEL 70
REMARK VINA RESULT:       0.1     66.211     69.946
ROOT
ATOM      1  C1  A00 X   1      78.954 146.286  93.0870  0.00  0.00     0.000 C
ATOM      2  C2  A00 X   1      79.232 144.786  92.7990  0.00  0.00     0.000 C
ATOM      3  C3  A00 X   1      79.149 143.823  94.0290  0.00  0.00     0.000 C
ATOM      4  C4  A00 X   1      79.167 144.511  95.4190  0.00  0.00     0.000 C
ATOM      5  C5  A00 X   1      79.796 145.903  95.3650  0.00  0.00     0.000 C
ATOM      6  O5  A00 X   1      78.935 146.661  94.4860  0.00  0.00     0.000 O
ATOM      7   O  A00 X   1      80.271 142.944  93.9980  0.00  0.00     0.000 O
ATOM      9  HD  A00 X   1      80.158 143.184  94.8220  0.00  0.00     0.000 HD
ATOM      9   O  A00 X   1      77.856 144.595  95.9760  0.00  0.00     0.000 O
ATOM     11  HD  A00 X   1      77.743 144.835  96.8010  0.00  0.00     0.000 HD
ENDROOT
BRANCH 2 11
ATOM     11   O  A00 X   1      78.292 144.350  91.7980  0.00  0.00     0.000 O
ATOM     12   O  A00 X   1      78.093 142.043  91.1610  0.00  0.00     0.000 OA
ATOM     13   O  A00 X   1      80.176 143.222  90.7270  0.00  0.00     0.000 OA
ATOM     14   O  A00 X   1      78.198 143.790  89.5330  0.00  0.00     0.000 OA
ATOM     15   S  A00 X   1      78.740 143.266  90.7580  0.00  0.00     0.000 S
ENDBRANCH 2 11
BRANCH 5 16
ATOM     16   C  A00 X   1      81.271 145.933  94.9530  0.00  0.00     0.000 C
ATOM     17   O  A00 X   1      81.778 147.002  94.6830  0.00  0.00     0.000 OA
ATOM     18   O  A00 X   1      81.952 144.928  94.8950  0.00  0.00     0.000 OA
ENDBRANCH 5 16
BRANCH 1 19
ATOM     19  O4  A00 X   2      79.799 147.172  92.3130  0.00  0.00     0.000 O
BRANCH 19 23
ATOM     20  C1  A00 X   2      76.683 150.027  91.6010  0.00  0.00     0.000 C
ATOM     21  C2  A00 X   2      76.969 148.988  90.4890  0.00  0.00     0.000 C
ATOM     22  C3  A00 X   2      77.778 147.797  91.0440  0.00  0.00     0.000 C
ATOM     23  C4  A00 X   2      79.062 148.293  91.7460  0.00  0.00     0.000 C
ATOM     24  C5  A00 X   2      78.644 149.336  92.8190  0.00  0.00     0.000 C
ATOM     25  O5  A00 X   2      77.960 150.434  92.1610  0.00  0.00     0.000 O
ATOM     26   O  A00 X   2      77.957 146.832  89.9940  0.00  0.00     0.000 O
ATOM     28  HD  A00 X   2      78.246 147.423  89.4310  0.00  0.00     0.000 HD
BRANCH 21 30
ATOM     28   N  A00 X   2      76.639 150.016  89.4970  0.00  0.00     0.000 N
ATOM     30  HD  A00 X   2      76.624 149.255  89.0840  0.00  0.00     0.000 HD
ATOM     30   O  A00 X   2      75.697 148.958  87.6390  0.00  0.00     0.000 OA
ATOM     31   S  A00 X   2      76.867 149.693  87.9660  0.00  0.00     0.000 S
ATOM     32   O  A00 X   2      76.959 150.984  87.3580  0.00  0.00     0.000 OA
ATOM     33   O  A00 X   2      78.118 149.003  87.8600  0.00  0.00     0.000 OA
ENDBRANCH 21 30
BRANCH 24 34
ATOM     34   C  A00 X   2      79.720 149.818  93.8200  0.00  0.00     0.000 C
ATOM     35   O  A00 X   2      80.907 153.252  94.0460  0.00  0.00     0.000 OA
ATOM     36   O  A00 X   2      80.238 151.111  93.4500  0.00  0.00     0.000 O
ATOM     37   O  A00 X   2      78.635 152.625  94.2320  0.00  0.00     0.000 OA
ATOM     38   S  A00 X   2      79.992 152.257  94.4980  0.00  0.00     0.000 S
ATOM     39   O  A00 X   2      80.288 151.700  95.7840  0.00  0.00     0.000 OA
ENDBRANCH 24 34
BRANCH 20 40
ATOM     40  O4  A00 X   3      75.923 149.329  92.5970  0.00  0.00     0.000 O
BRANCH 40 44
ATOM     41  C1  A00 X   3      75.402 148.648  96.1170  0.00  0.00     0.000 C
ATOM     42  C2  A00 X   3      74.597 148.004  94.9680  0.00  0.00     0.000 C
ATOM     43  C3  A00 X   3      74.053 149.085  93.9980  0.00  0.00     0.000 C
ATOM     44  C4  A00 X   3      75.096 150.082  93.5110  0.00  0.00     0.000 C
ATOM     45  C5  A00 X   3      75.859 150.689  94.7220  0.00  0.00     0.000 C
ATOM     46  O5  A00 X   3      76.345 149.635  95.6150  0.00  0.00     0.000 O
ATOM     47   O  A00 X   3      73.218 148.611  92.9430  0.00  0.00     0.000 O
ATOM     49  HD  A00 X   3      73.647 149.210  92.4870  0.00  0.00     0.000 HD
BRANCH 42 49
ATOM     49   O  A00 X   3      75.484 147.087  94.2920  0.00  0.00     0.000 O
ATOM     50   O  A00 X   3      75.366 145.657  92.3760  0.00  0.00     0.000 OA
ATOM     51   O  A00 X   3      73.507 145.769  93.8320  0.00  0.00     0.000 OA
ATOM     52   O  A00 X   3      75.496 144.761  94.6180  0.00  0.00     0.000 OA
ATOM     53   S  A00 X   3      74.945 145.735  93.7390  0.00  0.00     0.000 S
ENDBRANCH 42 49
BRANCH 45 54
ATOM     54   C  A00 X   3      75.023 151.753  95.4440  0.00  0.00     0.000 C
ATOM     55   O  A00 X   3      75.557 152.591  96.1410  0.00  0.00     0.000 OA
ATOM     56   O  A00 X   3      73.807 151.775  95.3310  0.00  0.00     0.000 OA
ENDBRANCH 45 54
BRANCH 41 57
ATOM     57  O4  A00 X   4      74.537 149.143  97.1640  0.00  0.00     0.000 O
BRANCH 57 61
ATOM     58  C1  A00 X   4      75.114 149.871 101.3800  0.00  0.00     0.000 C
ATOM     59  C2  A00 X   4      75.663 150.906 100.3670  0.00  0.00     0.000 C
ATOM     60  C3  A00 X   4      75.095 150.734  98.9430  0.00  0.00     0.000 C
ATOM     61  C4  A00 X   4      75.159 149.265  98.4740  0.00  0.00     0.000 C
ATOM     62  C5  A00 X   4      74.370 148.439  99.5210  0.00  0.00     0.000 C
ATOM     63  O5  A00 X   4      75.030 148.545 100.8080  0.00  0.00     0.000 O
BRANCH 59 66
ATOM     64   N  A00 X   4      77.123 150.768 100.2210  0.00  0.00     0.000 N
ATOM     66  HD  A00 X   4      77.467 149.985 100.3610  0.00  0.00     0.000 HD
ATOM     66   O  A00 X   4      77.347 152.074 102.2320  0.00  0.00     0.000 OA
ATOM     67   S  A00 X   4      78.064 151.776 101.0320  0.00  0.00     0.000 S
ATOM     68   O  A00 X   4      79.233 150.962 101.1980  0.00  0.00     0.000 OA
ATOM     69   O  A00 X   4      78.210 152.823 100.0610  0.00  0.00     0.000 OA
ENDBRANCH 59 66
BRANCH 62 70
ATOM     70   C  A00 X   4      74.226 146.940  99.1650  0.00  0.00     0.000 C
ATOM     71   O  A00 X   4      76.561 144.238  99.7640  0.00  0.00     0.000 OA
ATOM     72   O  A00 X   4      75.400 144.858  97.8120  0.00  0.00     0.000 OA
ATOM     73   O  A00 X   4      75.275 146.196  99.8060  0.00  0.00     0.000 O
ATOM     74   O  A00 X   4      77.323 146.169  98.5370  0.00  0.00     0.000 OA
ATOM     75   S  A00 X   4      76.223 145.335  98.9010  0.00  0.00     0.000 S
ENDBRANCH 62 70
ENDBRANCH 57 61
ENDBRANCH 41 57
ENDBRANCH 40 44
ENDBRANCH 20 40
ENDBRANCH 19 23
ENDBRANCH 1 19
TORSDOF 14
ENDMDL
MODEL 71
REMARK VINA RESULT:       0.1     92.465     97.162
ROOT
ATOM      1  C1  A00 X   1     133.991  82.750  71.3380  0.00  0.00     0.000 C
ATOM      2  C2  A00 X   1     132.962  83.898  71.1560  0.00  0.00     0.000 C
ATOM      3  C3  A00 X   1     132.647  84.310  69.6800  0.00  0.00     0.000 C
ATOM      4  C4  A00 X   1     133.647  83.795  68.6130  0.00  0.00     0.000 C
ATOM      5  C5  A00 X   1     135.011  83.460  69.2160  0.00  0.00     0.000 C
ATOM      6  O5  A00 X   1     134.746  82.393  70.1540  0.00  0.00     0.000 O
ATOM      7   O  A00 X   1     132.657  85.733  69.5900  0.00  0.00     0.000 O
ATOM      9  HD  A00 X   1     133.055  85.430  68.8840  0.00  0.00     0.000 HD
ATOM      9   O  A00 X   1     133.133  82.657  67.9220  0.00  0.00     0.000 O
ATOM     11  HD  A00 X   1     133.531  82.354  67.2150  0.00  0.00     0.000 HD
ENDROOT
BRANCH 2 11
ATOM     11   O  A00 X   1     131.739  83.498  71.8030  0.00  0.00     0.000 O
ATOM     12   O  A00 X   1     129.719  84.782  71.6080  0.00  0.00     0.000 OA
ATOM     13   O  A00 X   1     131.651  85.762  72.7160  0.00  0.00     0.000 OA
ATOM     14   O  A00 X   1     130.479  83.949  73.7160  0.00  0.00     0.000 OA
ATOM     15   S  A00 X   1     130.848  84.593  72.4840  0.00  0.00     0.000 S
ENDBRANCH 2 11
BRANCH 5 16
ATOM     16   C  A00 X   1     135.756  84.647  69.8330  0.00  0.00     0.000 C
ATOM     17   O  A00 X   1     136.738  84.428  70.5120  0.00  0.00     0.000 OA
ATOM     18   O  A00 X   1     135.405  85.798  69.6620  0.00  0.00     0.000 OA
ENDBRANCH 5 16
BRANCH 1 19
ATOM     19  O4  A00 X   2     134.861  82.952  72.4790  0.00  0.00     0.000 O
BRANCH 19 23
ATOM     20  C1  A00 X   2     134.854  78.818  73.6080  0.00  0.00     0.000 C
ATOM     21  C2  A00 X   2     133.874  79.762  74.3460  0.00  0.00     0.000 C
ATOM     22  C3  A00 X   2     133.680  81.075  73.5600  0.00  0.00     0.000 C
ATOM     23  C4  A00 X   2     135.043  81.739  73.2640  0.00  0.00     0.000 C
ATOM     24  C5  A00 X   2     135.935  80.690  72.5430  0.00  0.00     0.000 C
ATOM     25  O5  A00 X   2     136.099  79.540  73.4130  0.00  0.00     0.000 O
ATOM     26   O  A00 X   2     132.712  81.886  74.2490  0.00  0.00     0.000 O
ATOM     28  HD  A00 X   2     133.114  81.806  75.0120  0.00  0.00     0.000 HD
BRANCH 21 30
ATOM     28   N  A00 X   2     134.078  78.964  75.5590  0.00  0.00     0.000 N
ATOM     30  HD  A00 X   2     133.370  79.444  75.6910  0.00  0.00     0.000 HD
ATOM     30   O  A00 X   2     132.099  79.006  76.7990  0.00  0.00     0.000 OA
ATOM     31   S  A00 X   2     133.438  79.465  76.9140  0.00  0.00     0.000 S
ATOM     32   O  A00 X   2     134.217  78.811  77.9190  0.00  0.00     0.000 OA
ATOM     33   O  A00 X   2     133.635  80.883  76.9760  0.00  0.00     0.000 OA
ENDBRANCH 21 30
BRANCH 24 34
ATOM     34   C  A00 X   2     137.271  81.172  71.9310  0.00  0.00     0.000 C
ATOM     35   O  A00 X   2     140.548  80.028  73.0310  0.00  0.00     0.000 OA
ATOM     36   O  A00 X   2     138.386  80.835  72.7810  0.00  0.00     0.000 O
ATOM     37   O  A00 X   2     138.820  78.586  72.3060  0.00  0.00     0.000 OA
ATOM     38   S  A00 X   2     139.445  79.863  72.1430  0.00  0.00     0.000 S
ATOM     39   O  A00 X   2     139.667  80.326  70.8060  0.00  0.00     0.000 OA
ENDBRANCH 24 34
BRANCH 20 40
ATOM     40  O4  A00 X   3     134.250  78.551  72.3340  0.00  0.00     0.000 O
BRANCH 40 44
ATOM     41  C1  A00 X   3     134.689  78.254  68.7500  0.00  0.00     0.000 C
ATOM     42  C2  A00 X   3     133.341  78.099  69.4870  0.00  0.00     0.000 C
ATOM     43  C3  A00 X   3     133.465  77.097  70.6640  0.00  0.00     0.000 C
ATOM     44  C4  A00 X   3     134.633  77.365  71.6050  0.00  0.00     0.000 C
ATOM     45  C5  A00 X   3     135.950  77.504  70.7910  0.00  0.00     0.000 C
ATOM     46  O5  A00 X   3     135.785  78.451  69.6860  0.00  0.00     0.000 O
ATOM     47   O  A00 X   3     132.257  76.808  71.3650  0.00  0.00     0.000 O
ATOM     49  HD  A00 X   3     132.784  76.826  72.0520  0.00  0.00     0.000 HD
BRANCH 42 49
ATOM     49   O  A00 X   3     132.958  79.412  69.9500  0.00  0.00     0.000 O
ATOM     50   O  A00 X   3     131.174  80.340  71.2490  0.00  0.00     0.000 OA
ATOM     51   O  A00 X   3     130.673  78.675  69.6470  0.00  0.00     0.000 OA
ATOM     52   O  A00 X   3     131.388  80.795  68.8840  0.00  0.00     0.000 OA
ATOM     53   S  A00 X   3     131.463  79.845  69.9400  0.00  0.00     0.000 S
ENDBRANCH 42 49
BRANCH 45 54
ATOM     54   C  A00 X   3     136.486  76.140  70.3420  0.00  0.00     0.000 C
ATOM     55   O  A00 X   3     137.657  75.999  70.0520  0.00  0.00     0.000 OA
ATOM     56   O  A00 X   3     135.746  75.171  70.2650  0.00  0.00     0.000 OA
ENDBRANCH 45 54
BRANCH 41 57
ATOM     57  O4  A00 X   4     134.908  77.182  67.8060  0.00  0.00     0.000 O
BRANCH 57 61
ATOM     58  C1  A00 X   4     137.267  76.849  64.2060  0.00  0.00     0.000 C
ATOM     59  C2  A00 X   4     137.985  76.745  65.5750  0.00  0.00     0.000 C
ATOM     60  C3  A00 X   4     137.022  76.517  66.7580  0.00  0.00     0.000 C
ATOM     61  C4  A00 X   4     135.826  77.493  66.7200  0.00  0.00     0.000 C
ATOM     62  C5  A00 X   4     135.132  77.278  65.3520  0.00  0.00     0.000 C
ATOM     63  O5  A00 X   4     136.053  77.629  64.2880  0.00  0.00     0.000 O
BRANCH 59 66
ATOM     64   N  A00 X   4     138.694  77.998  65.8880  0.00  0.00     0.000 N
ATOM     66  HD  A00 X   4     138.378  78.731  65.5540  0.00  0.00     0.000 HD
ATOM     66   O  A00 X   4     140.485  77.220  64.4780  0.00  0.00     0.000 OA
ATOM     67   S  A00 X   4     140.268  78.068  65.6080  0.00  0.00     0.000 S
ATOM     68   O  A00 X   4     140.425  79.472  65.3650  0.00  0.00     0.000 OA
ATOM     69   O  A00 X   4     140.771  77.631  66.8800  0.00  0.00     0.000 OA
ENDBRANCH 59 66
BRANCH 62 70
ATOM     70   C  A00 X   4     133.832  78.097  65.1680  0.00  0.00     0.000 C
ATOM     71   O  A00 X   4     133.458  81.532  64.0850  0.00  0.00     0.000 OA
ATOM     72   O  A00 X   4     132.531  80.394  65.9260  0.00  0.00     0.000 OA
ATOM     73   O  A00 X   4     134.138  79.326  64.4900  0.00  0.00     0.000 O
ATOM     74   O  A00 X   4     134.872  81.069  65.9830  0.00  0.00     0.000 OA
ATOM     75   S  A00 X   4     133.749  80.671  65.1970  0.00  0.00     0.000 S
ENDBRANCH 62 70
ENDBRANCH 57 61
ENDBRANCH 41 57
ENDBRANCH 40 44
ENDBRANCH 20 40
ENDBRANCH 19 23
ENDBRANCH 1 19
TORSDOF 14
ENDMDL
MODEL 72
REMARK VINA RESULT:       0.1    107.469    112.149
ROOT
ATOM      1  C1  A00 X   1      67.637  46.728 128.3100  0.00  0.00     0.000 C
ATOM      2  C2  A00 X   1      68.607  47.779 128.9130  0.00  0.00     0.000 C
ATOM      3  C3  A00 X   1      68.651  47.857 130.4750  0.00  0.00     0.000 C
ATOM      4  C4  A00 X   1      67.481  47.156 131.2130  0.00  0.00     0.000 C
ATOM      5  C5  A00 X   1      66.249  46.998 130.3220  0.00  0.00     0.000 C
ATOM      6  O5  A00 X   1      66.687  46.148 129.2380  0.00  0.00     0.000 O
ATOM      7   O  A00 X   1      68.612  49.228 130.8660  0.00  0.00     0.000 O
ATOM      9  HD  A00 X   1      68.097  48.793 131.4090  0.00  0.00     0.000 HD
ATOM      9   O  A00 X   1      67.875  45.882 131.7220  0.00  0.00     0.000 O
ATOM     11  HD  A00 X   1      67.360  45.447 132.2660  0.00  0.00     0.000 HD
ENDROOT
BRANCH 2 11
ATOM     11   O  A00 X   1      69.929  47.490 128.4200  0.00  0.00     0.000 O
ATOM     12   O  A00 X   1      71.809  48.897 128.9250  0.00  0.00     0.000 OA
ATOM     13   O  A00 X   1      69.972  49.793 127.6060  0.00  0.00     0.000 OA
ATOM     14   O  A00 X   1      71.391  48.109 126.7080  0.00  0.00     0.000 OA
ATOM     15   S  A00 X   1      70.820  48.671 127.9020  0.00  0.00     0.000 S
ENDBRANCH 2 11
BRANCH 5 16
ATOM     16   C  A00 X   1      65.615  48.312 129.8540  0.00  0.00     0.000 C
ATOM     17   O  A00 X   1      64.761  48.270 128.9920  0.00  0.00     0.000 OA
ATOM     18   O  A00 X   1      65.931  49.389 130.3180  0.00  0.00     0.000 OA
ENDBRANCH 5 16
BRANCH 1 19
ATOM     19  O4  A00 X   2      66.983  47.194 127.1050  0.00  0.00     0.000 O
BRANCH 19 23
ATOM     20  C1  A00 X   2      67.075  43.353 125.2070  0.00  0.00     0.000 C
ATOM     21  C2  A00 X   2      68.173  44.371 124.8150  0.00  0.00     0.000 C
ATOM     22  C3  A00 X   2      68.274  45.501 125.8600  0.00  0.00     0.000 C
ATOM     23  C4  A00 X   2      66.895  46.162 126.0810  0.00  0.00     0.000 C
ATOM     24  C5  A00 X   2      65.885  45.041 126.4490  0.00  0.00     0.000 C
ATOM     25  O5  A00 X   2      65.830  44.086 125.3580  0.00  0.00     0.000 O
ATOM     26   O  A00 X   2      69.351  46.379 125.4880  0.00  0.00     0.000 O
ATOM     28  HD  A00 X   2      69.066  46.464 124.6740  0.00  0.00     0.000 HD
BRANCH 21 30
ATOM     28   N  A00 X   2      68.137  43.830 123.4520  0.00  0.00     0.000 N
ATOM     30  HD  A00 X   2      68.868  44.289 123.5200  0.00  0.00     0.000 HD
ATOM     30   O  A00 X   2      70.281  44.007 122.5410  0.00  0.00     0.000 OA
ATOM     31   S  A00 X   2      68.985  44.548 122.3280  0.00  0.00     0.000 S
ATOM     32   O  A00 X   2      68.352  44.139 121.1130  0.00  0.00     0.000 OA
ATOM     33   O  A00 X   2      68.832  45.960 122.5180  0.00  0.00     0.000 OA
ENDBRANCH 21 30
BRANCH 24 34
ATOM     34   C  A00 X   2      64.482  45.463 126.9450  0.00  0.00     0.000 C
ATOM     35   O  A00 X   2      61.387  44.735 125.1710  0.00  0.00     0.000 OA
ATOM     36   O  A00 X   2      63.503  45.360 125.8920  0.00  0.00     0.000 O
ATOM     37   O  A00 X   2      62.950  43.088 125.8310  0.00  0.00     0.000 OA
ATOM     38   S  A00 X   2      62.336  44.339 126.1580  0.00  0.00     0.000 S
ATOM     39   O  A00 X   2      61.923  44.541 127.5140  0.00  0.00     0.000 OA
ENDBRANCH 24 34
BRANCH 20 40
ATOM     40  O4  A00 X   3      67.475  42.821 126.4780  0.00  0.00     0.000 O
BRANCH 40 44
ATOM     41  C1  A00 X   3      66.470  41.899 129.8340  0.00  0.00     0.000 C
ATOM     42  C2  A00 X   3      67.913  41.811 129.2920  0.00  0.00     0.000 C
ATOM     43  C3  A00 X   3      67.954  41.048 127.9430  0.00  0.00     0.000 C
ATOM     44  C4  A00 X   3      66.955  41.544 126.9050  0.00  0.00     0.000 C
ATOM     45  C5  A00 X   3      65.529  41.600 127.5220  0.00  0.00     0.000 C
ATOM     46  O5  A00 X   3      65.540  42.319 128.7980  0.00  0.00     0.000 O
ATOM     47   O  A00 X   3      69.250  40.829 127.3900  0.00  0.00     0.000 O
ATOM     49  HD  A00 X   3      68.838  40.999 126.6470  0.00  0.00     0.000 HD
BRANCH 42 49
ATOM     49   O  A00 X   3      68.394  43.165 129.1480  0.00  0.00     0.000 O
ATOM     50   O  A00 X   3      70.386  44.219 128.3400  0.00  0.00     0.000 OA
ATOM     51   O  A00 X   3      70.583  42.269 129.6620  0.00  0.00     0.000 OA
ATOM     52   O  A00 X   3      69.799  44.250 130.6850  0.00  0.00     0.000 OA
ATOM     53   S  A00 X   3      69.877  43.511 129.4720  0.00  0.00     0.000 S
ENDBRANCH 42 49
BRANCH 45 54
ATOM     54   C  A00 X   3      64.898  40.206 127.6210  0.00  0.00     0.000 C
ATOM     55   O  A00 X   3      63.693  40.076 127.6860  0.00  0.00     0.000 OA
ATOM     56   O  A00 X   3      65.595  39.204 127.6370  0.00  0.00     0.000 OA
ENDBRANCH 45 54
BRANCH 41 57
ATOM     57  O4  A00 X   4      66.080  40.686 130.5150  0.00  0.00     0.000 O
BRANCH 57 61
ATOM     58  C1  A00 X   4      63.204  39.830 133.6190  0.00  0.00     0.000 C
ATOM     59  C2  A00 X   4      62.692  40.045 132.1730  0.00  0.00     0.000 C
ATOM     60  C3  A00 X   4      63.808  39.982 131.1100  0.00  0.00     0.000 C
ATOM     61  C4  A00 X   4      65.026  40.844 131.5070  0.00  0.00     0.000 C
ATOM     62  C5  A00 X   4      65.501  40.319 132.8840  0.00  0.00     0.000 C
ATOM     63  O5  A00 X   4      64.449  40.523 133.8620  0.00  0.00     0.000 O
BRANCH 59 66
ATOM     64   N  A00 X   4      62.104  41.392 132.0610  0.00  0.00     0.000 N
ATOM     66  HD  A00 X   4      62.402  42.004 132.5960  0.00  0.00     0.000 HD
ATOM     66   O  A00 X   4      60.080  40.476 132.9920  0.00  0.00     0.000 OA
ATOM     67   S  A00 X   4      60.512  41.531 132.1290  0.00  0.00     0.000 S
ATOM     68   O  A00 X   4      60.391  42.855 132.6650  0.00  0.00     0.000 OA
ATOM     69   O  A00 X   4      60.189  41.429 130.7340  0.00  0.00     0.000 OA
ENDBRANCH 59 66
BRANCH 62 70
ATOM     70   C  A00 X   4      66.794  40.992 133.4050  0.00  0.00     0.000 C
ATOM     71   O  A00 X   4      67.137  44.025 135.3520  0.00  0.00     0.000 OA
ATOM     72   O  A00 X   4      68.239  43.328 133.3920  0.00  0.00     0.000 OA
ATOM     73   O  A00 X   4      66.446  42.031 134.3350  0.00  0.00     0.000 O
ATOM     74   O  A00 X   4      65.941  44.128 133.2610  0.00  0.00     0.000 OA
ATOM     75   S  A00 X   4      66.953  43.484 134.0350  0.00  0.00     0.000 S
ENDBRANCH 62 70
ENDBRANCH 57 61
ENDBRANCH 41 57
ENDBRANCH 40 44
ENDBRANCH 20 40
ENDBRANCH 19 23
ENDBRANCH 1 19
TORSDOF 14
ENDMDL
MODEL 73
REMARK VINA RESULT:       0.1    104.708    109.439
ROOT
ATOM      1  C1  A00 X   1      70.003  46.388 124.9700  0.00  0.00     0.000 C
ATOM      2  C2  A00 X   1      71.184  47.003 125.7680  0.00  0.00     0.000 C
ATOM      3  C3  A00 X   1      71.359  46.494 127.2370  0.00  0.00     0.000 C
ATOM      4  C4  A00 X   1      70.144  45.736 127.8310  0.00  0.00     0.000 C
ATOM      5  C5  A00 X   1      68.840  46.085 127.1150  0.00  0.00     0.000 C
ATOM      6  O5  A00 X   1      69.039  45.643 125.7540  0.00  0.00     0.000 O
ATOM      7   O  A00 X   1      71.591  47.617 128.0850  0.00  0.00     0.000 O
ATOM      9  HD  A00 X   1      71.050  47.086 128.5050  0.00  0.00     0.000 HD
ATOM      9   O  A00 X   1      70.347  44.323 127.8040  0.00  0.00     0.000 O
ATOM     11  HD  A00 X   1      69.806  43.793 128.2240  0.00  0.00     0.000 HD
ENDROOT
BRANCH 2 11
ATOM     11   O  A00 X   1      72.395  46.739 125.0320  0.00  0.00     0.000 O
ATOM     12   O  A00 X   1      74.525  47.586 125.7470  0.00  0.00     0.000 OA
ATOM     13   O  A00 X   1      72.782  49.150 125.0880  0.00  0.00     0.000 OA
ATOM     14   O  A00 X   1      73.811  47.741 123.4710  0.00  0.00     0.000 OA
ATOM     15   S  A00 X   1      73.439  47.894 124.8510  0.00  0.00     0.000 S
ENDBRANCH 2 11
BRANCH 5 16
ATOM     16   C  A00 X   1      68.412  47.552 127.2270  0.00  0.00     0.000 C
ATOM     17   O  A00 X   1      67.502  47.947 126.5280  0.00  0.00     0.000 OA
ATOM     18   O  A00 X   1      68.944  48.330 127.9940  0.00  0.00     0.000 OA
ENDBRANCH 5 16
BRANCH 1 19
ATOM     19  O4  A00 X   2      69.351  47.349 124.1040  0.00  0.00     0.000 O
BRANCH 19 23
ATOM     20  C1  A00 X   2      68.646  44.508 120.9750  0.00  0.00     0.000 C
ATOM     21  C2  A00 X   2      69.875  45.438 120.8320  0.00  0.00     0.000 C
ATOM     22  C3  A00 X   2      70.241  46.077 122.1880  0.00  0.00     0.000 C
ATOM     23  C4  A00 X   2      69.016  46.791 122.8010  0.00  0.00     0.000 C
ATOM     24  C5  A00 X   2      67.854  45.763 122.8730  0.00  0.00     0.000 C
ATOM     25  O5  A00 X   2      67.560  45.296 121.5310  0.00  0.00     0.000 O
ATOM     26   O  A00 X   2      71.426  46.874 122.0170  0.00  0.00     0.000 O
ATOM     28  HD  A00 X   2      71.106  47.292 121.3300  0.00  0.00     0.000 HD
BRANCH 21 30
ATOM     28   N  A00 X   2      69.653  45.446 119.3830  0.00  0.00     0.000 N
ATOM     30  HD  A00 X   2      70.454  45.746 119.5150  0.00  0.00     0.000 HD
ATOM     30   O  A00 X   2      71.728  45.656 118.3300  0.00  0.00     0.000 OA
ATOM     31   S  A00 X   2      70.532  46.406 118.4860  0.00  0.00     0.000 S
ATOM     32   O  A00 X   2      69.756  46.560 117.2940  0.00  0.00     0.000 OA
ATOM     33   O  A00 X   2      70.635  47.656 119.1780  0.00  0.00     0.000 OA
ENDBRANCH 21 30
BRANCH 24 34
ATOM     34   C  A00 X   2      66.582  46.159 123.6600  0.00  0.00     0.000 C
ATOM     35   O  A00 X   2      63.290  46.549 122.1530  0.00  0.00     0.000 OA
ATOM     36   O  A00 X   2      65.528  46.579 122.7710  0.00  0.00     0.000 O
ATOM     37   O  A00 X   2      64.592  44.581 121.9940  0.00  0.00     0.000 OA
ATOM     38   S  A00 X   2      64.226  45.697 122.8110  0.00  0.00     0.000 S
ATOM     39   O  A00 X   2      63.950  45.445 124.1930  0.00  0.00     0.000 OA
ENDBRANCH 24 34
BRANCH 20 40
ATOM     40  O4  A00 X   3      69.034  43.495 121.9140  0.00  0.00     0.000 O
BRANCH 40 44
ATOM     41  C1  A00 X   3      68.119  41.529 124.8160  0.00  0.00     0.000 C
ATOM     42  C2  A00 X   3      69.486  41.460 124.1010  0.00  0.00     0.000 C
ATOM     43  C3  A00 X   3      69.305  41.257 122.5750  0.00  0.00     0.000 C
ATOM     44  C4  A00 X   3      68.336  42.231 121.9170  0.00  0.00     0.000 C
ATOM     45  C5  A00 X   3      66.985  42.240 122.6880  0.00  0.00     0.000 C
ATOM     46  O5  A00 X   3      67.204  42.424 124.1240  0.00  0.00     0.000 O
ATOM     47   O  A00 X   3      70.505  41.091 121.8220  0.00  0.00     0.000 O
ATOM     49  HD  A00 X   3      70.078  41.579 121.2470  0.00  0.00     0.000 HD
BRANCH 42 49
ATOM     49   O  A00 X   3      70.178  42.694 124.3920  0.00  0.00     0.000 O
ATOM     50   O  A00 X   3      72.257  43.703 123.7670  0.00  0.00     0.000 OA
ATOM     51   O  A00 X   3      72.214  41.392 124.2650  0.00  0.00     0.000 OA
ATOM     52   O  A00 X   3      71.851  42.931 126.0220  0.00  0.00     0.000 OA
ATOM     53   S  A00 X   3      71.716  42.697 124.6260  0.00  0.00     0.000 S
ENDBRANCH 42 49
BRANCH 45 54
ATOM     54   C  A00 X   3      66.136  41.006 122.3600  0.00  0.00     0.000 C
ATOM     55   O  A00 X   3      64.937  41.012 122.5520  0.00  0.00     0.000 OA
ATOM     56   O  A00 X   3      66.650  39.997 121.9020  0.00  0.00     0.000 OA
ENDBRANCH 45 54
BRANCH 41 57
ATOM     57  O4  A00 X   4      67.577  40.212 125.0610  0.00  0.00     0.000 O
BRANCH 57 61
ATOM     58  C1  A00 X   4      64.830  38.645 128.0000  0.00  0.00     0.000 C
ATOM     59  C2  A00 X   4      64.258  39.442 126.8010  0.00  0.00     0.000 C
ATOM     60  C3  A00 X   4      65.269  39.635 125.6520  0.00  0.00     0.000 C
ATOM     61  C4  A00 X   4      66.638  40.126 126.1700  0.00  0.00     0.000 C
ATOM     62  C5  A00 X   4      67.118  39.074 127.2000  0.00  0.00     0.000 C
ATOM     63  O5  A00 X   4      66.187  39.034 128.3120  0.00  0.00     0.000 O
BRANCH 59 66
ATOM     64   N  A00 X   4      63.878  40.804 127.2160  0.00  0.00     0.000 N
ATOM     66  HD  A00 X   4      64.309  41.155 127.8800  0.00  0.00     0.000 HD
ATOM     66   O  A00 X   4      61.819  39.869 128.0450  0.00  0.00     0.000 OA
ATOM     67   S  A00 X   4      62.337  41.098 127.5300  0.00  0.00     0.000 S
ATOM     68   O  A00 X   4      62.466  42.161 128.4830  0.00  0.00     0.000 OA
ATOM     69   O  A00 X   4      61.891  41.522 126.2330  0.00  0.00     0.000 OA
ENDBRANCH 59 66
BRANCH 62 70
ATOM     70   C  A00 X   4      68.537  39.336 127.7570  0.00  0.00     0.000 C
ATOM     71   O  A00 X   4      69.518  41.388 130.5740  0.00  0.00     0.000 OA
ATOM     72   O  A00 X   4      70.350  41.305 128.3720  0.00  0.00     0.000 OA
ATOM     73   O  A00 X   4      68.434  40.005 129.0240  0.00  0.00     0.000 O
ATOM     74   O  A00 X   4      68.215  42.395 128.8120  0.00  0.00     0.000 OA
ATOM     75   S  A00 X   4      69.156  41.388 129.1840  0.00  0.00     0.000 S
ENDBRANCH 62 70
ENDBRANCH 57 61
ENDBRANCH 41 57
ENDBRANCH 40 44
ENDBRANCH 20 40
ENDBRANCH 19 23
ENDBRANCH 1 19
TORSDOF 14
ENDMDL
MODEL 74
REMARK VINA RESULT:       0.1     91.951     95.618
ROOT
ATOM      1  C1  A00 X   1     133.201  83.888  71.8190  0.00  0.00     0.000 C
ATOM      2  C2  A00 X   1     132.747  85.306  71.3820  0.00  0.00     0.000 C
ATOM      3  C3  A00 X   1     132.854  85.622  69.8540  0.00  0.00     0.000 C
ATOM      4  C4  A00 X   1     133.726  84.642  69.0280  0.00  0.00     0.000 C
ATOM      5  C5  A00 X   1     134.737  83.896  69.8990  0.00  0.00     0.000 C
ATOM      6  O5  A00 X   1     133.932  83.130  70.8230  0.00  0.00     0.000 O
ATOM      7   O  A00 X   1     133.434  86.914  69.6930  0.00  0.00     0.000 O
ATOM      9  HD  A00 X   1     133.788  86.399  69.0930  0.00  0.00     0.000 HD
ATOM      9   O  A00 X   1     132.923  83.705  68.3110  0.00  0.00     0.000 O
ATOM     11  HD  A00 X   1     133.277  83.190  67.7120  0.00  0.00     0.000 HD
ENDROOT
BRANCH 2 11
ATOM     11   O  A00 X   1     131.379  85.477  71.8020  0.00  0.00     0.000 O
ATOM     12   O  A00 X   1     130.210  87.554  71.5070  0.00  0.00     0.000 OA
ATOM     13   O  A00 X   1     132.143  87.475  72.9810  0.00  0.00     0.000 OA
ATOM     14   O  A00 X   1     130.131  86.352  73.5710  0.00  0.00     0.000 OA
ATOM     15   S  A00 X   1     130.961  86.820  72.4940  0.00  0.00     0.000 S
ENDBRANCH 2 11
BRANCH 5 16
ATOM     16   C  A00 X   1     135.781  84.783  70.5850  0.00  0.00     0.000 C
ATOM     17   O  A00 X   1     136.486  84.293  71.4430  0.00  0.00     0.000 OA
ATOM     18   O  A00 X   1     135.932  85.953  70.2970  0.00  0.00     0.000 OA
ENDBRANCH 5 16
BRANCH 1 19
ATOM     19  O4  A00 X   2     133.889  83.887  73.0940  0.00  0.00     0.000 O
BRANCH 19 23
ATOM     20  C1  A00 X   2     132.204  80.151  74.3460  0.00  0.00     0.000 C
ATOM     21  C2  A00 X   2     131.540  81.446  74.8710  0.00  0.00     0.000 C
ATOM     22  C3  A00 X   2     131.957  82.663  74.0190  0.00  0.00     0.000 C
ATOM     23  C4  A00 X   2     133.497  82.768  73.9400  0.00  0.00     0.000 C
ATOM     24  C5  A00 X   2     134.039  81.408  73.4200  0.00  0.00     0.000 C
ATOM     25  O5  A00 X   2     133.641  80.363  74.3440  0.00  0.00     0.000 O
ATOM     26   O  A00 X   2     131.263  83.825  74.5030  0.00  0.00     0.000 O
ATOM     28  HD  A00 X   2     131.490  83.680  75.3260  0.00  0.00     0.000 HD
BRANCH 21 30
ATOM     28   N  A00 X   2     131.255  80.746  76.1270  0.00  0.00     0.000 N
ATOM     30  HD  A00 X   2     130.760  81.456  76.1190  0.00  0.00     0.000 HD
ATOM     30   O  A00 X   2     129.269  81.605  77.0060  0.00  0.00     0.000 OA
ATOM     31   S  A00 X   2     130.650  81.568  77.3340  0.00  0.00     0.000 S
ATOM     32   O  A00 X   2     130.977  80.777  78.4800  0.00  0.00     0.000 OA
ATOM     33   O  A00 X   2     131.340  82.822  77.3810  0.00  0.00     0.000 OA
ENDBRANCH 21 30
BRANCH 24 34
ATOM     34   C  A00 X   2     135.534  81.324  73.0320  0.00  0.00     0.000 C
ATOM     35   O  A00 X   2     137.965  79.202  74.7190  0.00  0.00     0.000 OA
ATOM     36   O  A00 X   2     136.310  80.696  74.0720  0.00  0.00     0.000 O
ATOM     37   O  A00 X   2     135.957  78.405  73.7570  0.00  0.00     0.000 OA
ATOM     38   S  A00 X   2     137.022  79.355  73.6600  0.00  0.00     0.000 S
ATOM     39   O  A00 X   2     137.594  79.581  72.3670  0.00  0.00     0.000 OA
ENDBRANCH 24 34
BRANCH 20 40
ATOM     40  O4  A00 X   3     131.740  79.997  72.9960  0.00  0.00     0.000 O
BRANCH 40 44
ATOM     41  C1  A00 X   3     132.581  79.223  69.5590  0.00  0.00     0.000 C
ATOM     42  C2  A00 X   3     131.175  79.630  70.0510  0.00  0.00     0.000 C
ATOM     43  C3  A00 X   3     130.740  78.767  71.2630  0.00  0.00     0.000 C
ATOM     44  C4  A00 X   3     131.766  78.689  72.3860  0.00  0.00     0.000 C
ATOM     45  C5  A00 X   3     133.150  78.270  71.8140  0.00  0.00     0.000 C
ATOM     46  O5  A00 X   3     133.515  79.103  70.6670  0.00  0.00     0.000 O
ATOM     47   O  A00 X   3     129.419  78.997  71.7480  0.00  0.00     0.000 O
ATOM     49  HD  A00 X   3     129.804  78.891  72.5170  0.00  0.00     0.000 HD
BRANCH 42 49
ATOM     49   O  A00 X   3     131.237  81.032  70.3960  0.00  0.00     0.000 O
ATOM     50   O  A00 X   3     129.744  82.654  71.3280  0.00  0.00     0.000 OA
ATOM     51   O  A00 X   3     128.916  81.134  69.7180  0.00  0.00     0.000 OA
ATOM     52   O  A00 X   3     130.468  82.776  69.0240  0.00  0.00     0.000 OA
ATOM     53   S  A00 X   3     130.027  81.967  70.1070  0.00  0.00     0.000 S
ENDBRANCH 42 49
BRANCH 45 54
ATOM     54   C  A00 X   3     133.207  76.768  71.5110  0.00  0.00     0.000 C
ATOM     55   O  A00 X   3     132.187  76.128  71.3590  0.00  0.00     0.000 OA
ATOM     56   O  A00 X   3     134.278  76.189  71.4200  0.00  0.00     0.000 OA
ENDBRANCH 45 54
BRANCH 41 57
ATOM     57  O4  A00 X   4     132.531  78.059  68.7040  0.00  0.00     0.000 O
BRANCH 57 61
ATOM     58  C1  A00 X   4     135.093  76.591  65.5540  0.00  0.00     0.000 C
ATOM     59  C2  A00 X   4     135.531  76.381  67.0250  0.00  0.00     0.000 C
ATOM     60  C3  A00 X   4     134.397  76.612  68.0440  0.00  0.00     0.000 C
ATOM     61  C4  A00 X   4     133.640  77.930  67.7700  0.00  0.00     0.000 C
ATOM     62  C5  A00 X   4     133.110  77.834  66.3180  0.00  0.00     0.000 C
ATOM     63  O5  A00 X   4     134.233  77.744  65.4040  0.00  0.00     0.000 O
BRANCH 59 66
ATOM     64   N  A00 X   4     136.588  77.338  67.4010  0.00  0.00     0.000 N
ATOM     66  HD  A00 X   4     136.601  78.100  66.9910  0.00  0.00     0.000 HD
ATOM     66   O  A00 X   4     138.164  75.863  66.3320  0.00  0.00     0.000 OA
ATOM     67   S  A00 X   4     138.107  76.836  67.3780  0.00  0.00     0.000 S
ATOM     68   O  A00 X   4     138.783  78.072  67.1090  0.00  0.00     0.000 OA
ATOM     69   O  A00 X   4     138.241  76.375  68.7300  0.00  0.00     0.000 OA
ENDBRANCH 59 66
BRANCH 62 70
ATOM     70   C  A00 X   4     132.222  79.026  65.8890  0.00  0.00     0.000 C
ATOM     71   O  A00 X   4     133.232  82.212  64.4970  0.00  0.00     0.000 OA
ATOM     72   O  A00 X   4     131.772  81.708  66.2740  0.00  0.00     0.000 OA
ATOM     73   O  A00 X   4     133.020  79.977  65.1650  0.00  0.00     0.000 O
ATOM     74   O  A00 X   4     134.180  81.523  66.6040  0.00  0.00     0.000 OA
ATOM     75   S  A00 X   4     133.075  81.449  65.7030  0.00  0.00     0.000 S
ENDBRANCH 62 70
ENDBRANCH 57 61
ENDBRANCH 41 57
ENDBRANCH 40 44
ENDBRANCH 20 40
ENDBRANCH 19 23
ENDBRANCH 1 19
TORSDOF 14
ENDMDL
MODEL 75
REMARK VINA RESULT:       0.1     79.038     84.800
ROOT
ATOM      1  C1  A00 X   1     130.480 124.164  44.5480  0.00  0.00     0.000 C
ATOM      2  C2  A00 X   1     129.844 125.340  45.3360  0.00  0.00     0.000 C
ATOM      3  C3  A00 X   1     130.519 126.739  45.1490  0.00  0.00     0.000 C
ATOM      4  C4  A00 X   1     131.931 126.719  44.5100  0.00  0.00     0.000 C
ATOM      5  C5  A00 X   1     132.622 125.366  44.6780  0.00  0.00     0.000 C
ATOM      6  O5  A00 X   1     131.780 124.432  43.9650  0.00  0.00     0.000 O
ATOM      7   O  A00 X   1     130.661 127.353  46.4270  0.00  0.00     0.000 O
ATOM      9  HD  A00 X   1     131.390 127.508  45.9870  0.00  0.00     0.000 HD
ATOM      9   O  A00 X   1     131.883 127.067  43.1260  0.00  0.00     0.000 O
ATOM     11  HD  A00 X   1     132.612 127.222  42.6860  0.00  0.00     0.000 HD
ENDROOT
BRANCH 2 11
ATOM     11   O  A00 X   1     128.460 125.431  44.9460  0.00  0.00     0.000 O
ATOM     12   O  A00 X   1     127.055 127.244  45.6600  0.00  0.00     0.000 OA
ATOM     13   O  A00 X   1     127.959 125.714  47.3210  0.00  0.00     0.000 OA
ATOM     14   O  A00 X   1     126.321 124.972  45.7640  0.00  0.00     0.000 OA
ATOM     15   S  A00 X   1     127.401 125.889  46.0080  0.00  0.00     0.000 S
ENDBRANCH 2 11
BRANCH 5 16
ATOM     16   C  A00 X   1     132.900 124.957  46.1280  0.00  0.00     0.000 C
ATOM     17   O  A00 X   1     133.247 123.816  46.3540  0.00  0.00     0.000 OA
ATOM     18   O  A00 X   1     132.793 125.733  47.0570  0.00  0.00     0.000 OA
ENDBRANCH 5 16
BRANCH 1 19
ATOM     19  O4  A00 X   2     130.482 122.923  45.2950  0.00  0.00     0.000 O
BRANCH 19 23
ATOM     20  C1  A00 X   2     129.553 120.506  41.8810  0.00  0.00     0.000 C
ATOM     21  C2  A00 X   2     128.382 120.915  42.8070  0.00  0.00     0.000 C
ATOM     22  C3  A00 X   2     128.782 122.102  43.7070  0.00  0.00     0.000 C
ATOM     23  C4  A00 X   2     130.078 121.783  44.4850  0.00  0.00     0.000 C
ATOM     24  C5  A00 X   2     131.163 121.371  43.4520  0.00  0.00     0.000 C
ATOM     25  O5  A00 X   2     130.696 120.205  42.7250  0.00  0.00     0.000 O
ATOM     26   O  A00 X   2     127.643 122.488  44.4960  0.00  0.00     0.000 O
ATOM     28  HD  A00 X   2     127.491 121.678  44.7630  0.00  0.00     0.000 HD
BRANCH 21 30
ATOM     28   N  A00 X   2     127.758 119.617  42.5290  0.00  0.00     0.000 N
ATOM     30  HD  A00 X   2     127.144 120.121  42.8750  0.00  0.00     0.000 HD
ATOM     30   O  A00 X   2     125.439 119.895  42.6010  0.00  0.00     0.000 OA
ATOM     31   S  A00 X   2     126.453 119.216  43.3260  0.00  0.00     0.000 S
ATOM     32   O  A00 X   2     126.419 117.790  43.2230  0.00  0.00     0.000 OA
ATOM     33   O  A00 X   2     126.652 119.611  44.6890  0.00  0.00     0.000 OA
ENDBRANCH 21 30
BRANCH 24 34
ATOM     34   C  A00 X   2     132.620 121.221  43.9490  0.00  0.00     0.000 C
ATOM     35   O  A00 X   2     134.473 118.088  43.9230  0.00  0.00     0.000 OA
ATOM     36   O  A00 X   2     132.964 119.836  44.1500  0.00  0.00     0.000 O
ATOM     37   O  A00 X   2     133.468 119.044  42.0080  0.00  0.00     0.000 OA
ATOM     38   S  A00 X   2     134.134 119.298  43.2490  0.00  0.00     0.000 S
ATOM     39   O  A00 X   2     135.152 120.305  43.2620  0.00  0.00     0.000 OA
ENDBRANCH 24 34
BRANCH 20 40
ATOM     40  O4  A00 X   3     129.837 121.663  41.0820  0.00  0.00     0.000 O
BRANCH 40 44
ATOM     41  C1  A00 X   3     132.356 123.854  39.6750  0.00  0.00     0.000 C
ATOM     42  C2  A00 X   3     130.832 124.048  39.5160  0.00  0.00     0.000 C
ATOM     43  C3  A00 X   3     130.156 122.744  39.0210  0.00  0.00     0.000 C
ATOM     44  C4  A00 X   3     130.519 121.499  39.8200  0.00  0.00     0.000 C
ATOM     45  C5  A00 X   3     132.064 121.371  39.9320  0.00  0.00     0.000 C
ATOM     46  O5  A00 X   3     132.661 122.626  40.3920  0.00  0.00     0.000 O
ATOM     47   O  A00 X   3     128.757 122.830  38.7540  0.00  0.00     0.000 O
ATOM     49  HD  A00 X   3     128.755 122.040  39.1090  0.00  0.00     0.000 HD
BRANCH 42 49
ATOM     49   O  A00 X   3     130.320 124.452  40.8050  0.00  0.00     0.000 O
ATOM     50   O  A00 X   3     128.169 124.921  41.7440  0.00  0.00     0.000 OA
ATOM     51   O  A00 X   3     128.660 125.707  39.5690  0.00  0.00     0.000 OA
ATOM     52   O  A00 X   3     129.808 126.665  41.4000  0.00  0.00     0.000 OA
ATOM     53   S  A00 X   3     129.170 125.496  40.9010  0.00  0.00     0.000 S
ENDBRANCH 42 49
BRANCH 45 54
ATOM     54   C  A00 X   3     132.686 120.848  38.6310  0.00  0.00     0.000 C
ATOM     55   O  A00 X   3     132.091 120.946  37.5780  0.00  0.00     0.000 OA
ATOM     56   O  A00 X   3     133.789 120.325  38.6320  0.00  0.00     0.000 OA
ENDBRANCH 45 54
BRANCH 41 57
ATOM     57  O4  A00 X   4     133.045 123.983  38.4120  0.00  0.00     0.000 O
BRANCH 57 61
ATOM     58  C1  A00 X   4     137.086 125.069  37.3470  0.00  0.00     0.000 C
ATOM     59  C2  A00 X   4     136.815 123.634  37.8620  0.00  0.00     0.000 C
ATOM     60  C3  A00 X   4     135.321 123.253  37.8650  0.00  0.00     0.000 C
ATOM     61  C4  A00 X   4     134.450 124.353  38.5090  0.00  0.00     0.000 C
ATOM     62  C5  A00 X   4     134.721 125.649  37.7060  0.00  0.00     0.000 C
ATOM     63  O5  A00 X   4     136.116 126.017  37.8490  0.00  0.00     0.000 O
BRANCH 59 66
ATOM     64   N  A00 X   4     137.255 123.494  39.2620  0.00  0.00     0.000 N
ATOM     66  HD  A00 X   4     137.248 124.205  39.7560  0.00  0.00     0.000 HD
ATOM     66   O  A00 X   4     139.487 123.162  38.4230  0.00  0.00     0.000 OA
ATOM     67   S  A00 X   4     138.674 122.814  39.5460  0.00  0.00     0.000 S
ATOM     68   O  A00 X   4     139.023 123.451  40.7820  0.00  0.00     0.000 OA
ATOM     69   O  A00 X   4     138.274 121.442  39.6840  0.00  0.00     0.000 OA
ENDBRANCH 59 66
BRANCH 62 70
ATOM     70   C  A00 X   4     133.848 126.853  38.1350  0.00  0.00     0.000 C
ATOM     71   O  A00 X   4     134.408 129.202  40.8320  0.00  0.00     0.000 OA
ATOM     72   O  A00 X   4     132.491 127.967  40.2470  0.00  0.00     0.000 OA
ATOM     73   O  A00 X   4     134.573 127.649  39.0870  0.00  0.00     0.000 O
ATOM     74   O  A00 X   4     134.354 126.848  41.3480  0.00  0.00     0.000 OA
ATOM     75   S  A00 X   4     133.915 127.898  40.4880  0.00  0.00     0.000 S
ENDBRANCH 62 70
ENDBRANCH 57 61
ENDBRANCH 41 57
ENDBRANCH 40 44
ENDBRANCH 20 40
ENDBRANCH 19 23
ENDBRANCH 1 19
TORSDOF 14
ENDMDL
MODEL 76
REMARK VINA RESULT:       0.1     60.085     64.060
ROOT
ATOM      1  C1  A00 X   1      71.075 142.181  95.8480  0.00  0.00     0.000 C
ATOM      2  C2  A00 X   1      72.208 142.758  96.7380  0.00  0.00     0.000 C
ATOM      3  C3  A00 X   1      72.539 144.273  96.5330  0.00  0.00     0.000 C
ATOM      4  C4  A00 X   1      71.970 144.913  95.2400  0.00  0.00     0.000 C
ATOM      5  C5  A00 X   1      71.672 143.870  94.1630  0.00  0.00     0.000 C
ATOM      6  O5  A00 X   1      70.657 143.022  94.7440  0.00  0.00     0.000 O
ATOM      7   O  A00 X   1      73.955 144.428  96.4720  0.00  0.00     0.000 O
ATOM      9  HD  A00 X   1      73.615 144.943  95.8640  0.00  0.00     0.000 HD
ATOM      9   O  A00 X   1      70.794 145.677  95.5100  0.00  0.00     0.000 O
ATOM     11  HD  A00 X   1      70.455 146.191  94.9020  0.00  0.00     0.000 HD
ENDROOT
BRANCH 2 11
ATOM     11   O  A00 X   1      71.839 142.540  98.1130  0.00  0.00     0.000 O
ATOM     12   O  A00 X   1      73.303 143.116  99.9280  0.00  0.00     0.000 OA
ATOM     13   O  A00 X   1      73.980 141.389  98.3540  0.00  0.00     0.000 OA
ATOM     14   O  A00 X   1      72.169 141.013  99.8490  0.00  0.00     0.000 OA
ATOM     15   S  A00 X   1      72.918 141.993  99.1100  0.00  0.00     0.000 S
ENDBRANCH 2 11
BRANCH 5 16
ATOM     16   C  A00 X   1      72.894 143.101  93.6510  0.00  0.00     0.000 C
ATOM     17   O  A00 X   1      72.716 142.129  92.9460  0.00  0.00     0.000 OA
ATOM     18   O  A00 X   1      74.032 143.433  93.9180  0.00  0.00     0.000 OA
ENDBRANCH 5 16
BRANCH 1 19
ATOM     19  O4  A00 X   2      71.341 140.826  95.4090  0.00  0.00     0.000 O
BRANCH 19 23
ATOM     20  C1  A00 X   2      67.246 139.600  95.7120  0.00  0.00     0.000 C
ATOM     21  C2  A00 X   2      68.188 139.244  96.8880  0.00  0.00     0.000 C
ATOM     22  C3  A00 X   2      69.470 140.101  96.8440  0.00  0.00     0.000 C
ATOM     23  C4  A00 X   2      70.159 139.978  95.4660  0.00  0.00     0.000 C
ATOM     24  C5  A00 X   2      69.111 140.340  94.3780  0.00  0.00     0.000 C
ATOM     25  O5  A00 X   2      67.994 139.419  94.4800  0.00  0.00     0.000 O
ATOM     26   O  A00 X   2      70.277 139.783  97.9910  0.00  0.00     0.000 O
ATOM     28  HD  A00 X   2      70.232 138.930  97.8490  0.00  0.00     0.000 HD
BRANCH 21 30
ATOM     28   N  A00 X   2      67.433 138.000  97.0660  0.00  0.00     0.000 N
ATOM     30  HD  A00 X   2      67.899 138.115  97.7860  0.00  0.00     0.000 HD
ATOM     30   O  A00 X   2      67.465 137.448  99.3360  0.00  0.00     0.000 OA
ATOM     31   S  A00 X   2      67.961 136.935  98.1080  0.00  0.00     0.000 S
ATOM     32   O  A00 X   2      67.359 135.711  97.6770  0.00  0.00     0.000 OA
ATOM     33   O  A00 X   2      69.385 136.867  97.9600  0.00  0.00     0.000 OA
ENDBRANCH 21 30
BRANCH 24 34
ATOM     34   C  A00 X   2      69.607 140.518  92.9230  0.00  0.00     0.000 C
ATOM     35   O  A00 X   2      68.597 138.389  90.1480  0.00  0.00     0.000 OA
ATOM     36   O  A00 X   2      69.333 139.346  92.1300  0.00  0.00     0.000 O
ATOM     37   O  A00 X   2      67.081 139.561  91.5350  0.00  0.00     0.000 OA
ATOM     38   S  A00 X   2      68.368 139.573  90.9090  0.00  0.00     0.000 S
ATOM     39   O  A00 X   2      68.789 140.789  90.2810  0.00  0.00     0.000 OA
ENDBRANCH 24 34
BRANCH 20 40
ATOM     40  O4  A00 X   3      66.924 140.988  95.8790  0.00  0.00     0.000 O
BRANCH 40 44
ATOM     41  C1  A00 X   3      66.536 144.228  94.3060  0.00  0.00     0.000 C
ATOM     42  C2  A00 X   3      66.369 143.958  95.8170  0.00  0.00     0.000 C
ATOM     43  C3  A00 X   3      65.405 142.770  96.0660  0.00  0.00     0.000 C
ATOM     44  C4  A00 X   3      65.727 141.514  95.2660  0.00  0.00     0.000 C
ATOM     45  C5  A00 X   3      65.874 141.866  93.7590  0.00  0.00     0.000 C
ATOM     46  O5  A00 X   3      66.784 142.997  93.5720  0.00  0.00     0.000 O
ATOM     47   O  A00 X   3      65.107 142.484  97.4310  0.00  0.00     0.000 O
ATOM     49  HD  A00 X   3      65.157 141.665  97.1530  0.00  0.00     0.000 HD
BRANCH 42 49
ATOM     49   O  A00 X   3      67.686 143.688  96.3460  0.00  0.00     0.000 O
ATOM     50   O  A00 X   3      68.608 143.068  98.4670  0.00  0.00     0.000 OA
ATOM     51   O  A00 X   3      66.888 144.689  98.4000  0.00  0.00     0.000 OA
ATOM     52   O  A00 X   3      69.002 145.251  97.5040  0.00  0.00     0.000 OA
ATOM     53   S  A00 X   3      68.084 144.196  97.7630  0.00  0.00     0.000 S
ENDBRANCH 42 49
BRANCH 45 54
ATOM     54   C  A00 X   3      64.510 142.072  93.0890  0.00  0.00     0.000 C
ATOM     55   O  A00 X   3      64.393 141.979  91.8840  0.00  0.00     0.000 OA
ATOM     56   O  A00 X   3      63.520 142.333  93.7540  0.00  0.00     0.000 OA
ENDBRANCH 45 54
BRANCH 41 57
ATOM     57  O4  A00 X   4      65.442 145.014  93.7810  0.00  0.00     0.000 O
BRANCH 57 61
ATOM     58  C1  A00 X   4      65.079 147.701  90.4220  0.00  0.00     0.000 C
ATOM     59  C2  A00 X   4      65.057 146.175  90.1560  0.00  0.00     0.000 C
ATOM     60  C3  A00 X   4      64.831 145.333  91.4280  0.00  0.00     0.000 C
ATOM     61  C4  A00 X   4      65.752 145.782  92.5830  0.00  0.00     0.000 C
ATOM     62  C5  A00 X   4      65.457 147.284  92.8180  0.00  0.00     0.000 C
ATOM     63  O5  A00 X   4      65.809 148.031  91.6260  0.00  0.00     0.000 O
BRANCH 59 66
ATOM     64   N  A00 X   4      66.350 145.718  89.6150  0.00  0.00     0.000 N
ATOM     66  HD  A00 X   4      67.057 146.167  89.8350  0.00  0.00     0.000 HD
ATOM     66   O  A00 X   4      65.600 146.477  87.4560  0.00  0.00     0.000 OA
ATOM     67   S  A00 X   4      66.477 145.508  88.0340  0.00  0.00     0.000 S
ATOM     68   O  A00 X   4      67.877 145.756  87.8520  0.00  0.00     0.000 OA
ATOM     69   O  A00 X   4      66.106 144.125  87.9320  0.00  0.00     0.000 OA
ENDBRANCH 59 66
BRANCH 62 70
ATOM     70   C  A00 X   4      66.212 147.896  94.0220  0.00  0.00     0.000 C
ATOM     71   O  A00 X   4      69.527 149.347  94.1120  0.00  0.00     0.000 OA
ATOM     72   O  A00 X   4      68.518 147.741  95.5060  0.00  0.00     0.000 OA
ATOM     73   O  A00 X   4      67.389 148.571  93.5510  0.00  0.00     0.000 O
ATOM     74   O  A00 X   4      69.277 147.098  93.2820  0.00  0.00     0.000 OA
ATOM     75   S  A00 X   4      68.774 148.125  94.1360  0.00  0.00     0.000 S
ENDBRANCH 62 70
ENDBRANCH 57 61
ENDBRANCH 41 57
ENDBRANCH 40 44
ENDBRANCH 20 40
ENDBRANCH 19 23
ENDBRANCH 1 19
TORSDOF 14
ENDMDL
MODEL 77
REMARK VINA RESULT:       0.1    105.431    110.139
ROOT
ATOM      1  C1  A00 X   1      71.023  47.415 126.5000  0.00  0.00     0.000 C
ATOM      2  C2  A00 X   1      72.204  48.029 127.2980  0.00  0.00     0.000 C
ATOM      3  C3  A00 X   1      72.379  47.521 128.7670  0.00  0.00     0.000 C
ATOM      4  C4  A00 X   1      71.164  46.763 129.3620  0.00  0.00     0.000 C
ATOM      5  C5  A00 X   1      69.859  47.112 128.6460  0.00  0.00     0.000 C
ATOM      6  O5  A00 X   1      70.058  46.670 127.2840  0.00  0.00     0.000 O
ATOM      7   O  A00 X   1      72.610  48.643 129.6150  0.00  0.00     0.000 O
ATOM      9  HD  A00 X   1      72.070  48.113 130.0360  0.00  0.00     0.000 HD
ATOM      9   O  A00 X   1      71.366  45.350 129.3350  0.00  0.00     0.000 O
ATOM     11  HD  A00 X   1      70.826  44.820 129.7550  0.00  0.00     0.000 HD
ENDROOT
BRANCH 2 11
ATOM     11   O  A00 X   1      73.414  47.765 126.5630  0.00  0.00     0.000 O
ATOM     12   O  A00 X   1      75.544  48.615 127.2760  0.00  0.00     0.000 OA
ATOM     13   O  A00 X   1      73.801  50.177 126.6160  0.00  0.00     0.000 OA
ATOM     14   O  A00 X   1      74.830  48.767 125.0000  0.00  0.00     0.000 OA
ATOM     15   S  A00 X   1      74.458  48.921 126.3800  0.00  0.00     0.000 S
ENDBRANCH 2 11
BRANCH 5 16
ATOM     16   C  A00 X   1      69.431  48.579 128.7580  0.00  0.00     0.000 C
ATOM     17   O  A00 X   1      68.523  48.974 128.0570  0.00  0.00     0.000 OA
ATOM     18   O  A00 X   1      69.963  49.356 129.5250  0.00  0.00     0.000 OA
ENDBRANCH 5 16
BRANCH 1 19
ATOM     19  O4  A00 X   2      70.370  48.376 125.6350  0.00  0.00     0.000 O
BRANCH 19 23
ATOM     20  C1  A00 X   2      69.654  45.534 122.5080  0.00  0.00     0.000 C
ATOM     21  C2  A00 X   2      70.890  46.454 122.3680  0.00  0.00     0.000 C
ATOM     22  C3  A00 X   2      71.257  47.093 123.7240  0.00  0.00     0.000 C
ATOM     23  C4  A00 X   2      70.036  47.817 124.3320  0.00  0.00     0.000 C
ATOM     24  C5  A00 X   2      68.866  46.798 124.4020  0.00  0.00     0.000 C
ATOM     25  O5  A00 X   2      68.572  46.331 123.0600  0.00  0.00     0.000 O
ATOM     26   O  A00 X   2      72.448  47.881 123.5550  0.00  0.00     0.000 O
ATOM     28  HD  A00 X   2      72.134  48.300 122.8660  0.00  0.00     0.000 HD
BRANCH 21 30
ATOM     28   N  A00 X   2      70.672  46.461 120.9180  0.00  0.00     0.000 N
ATOM     30  HD  A00 X   2      71.476  46.755 121.0520  0.00  0.00     0.000 HD
ATOM     30   O  A00 X   2      72.752  46.653 119.8710  0.00  0.00     0.000 OA
ATOM     31   S  A00 X   2      71.562  47.413 120.0220  0.00  0.00     0.000 S
ATOM     32   O  A00 X   2      70.791  47.571 118.8270  0.00  0.00     0.000 OA
ATOM     33   O  A00 X   2      71.672  48.663 120.7120  0.00  0.00     0.000 OA
ENDBRANCH 21 30
BRANCH 24 34
ATOM     34   C  A00 X   2      67.594  47.206 125.1840  0.00  0.00     0.000 C
ATOM     35   O  A00 X   2      64.305  47.594 123.6710  0.00  0.00     0.000 OA
ATOM     36   O  A00 X   2      66.542  47.621 124.2900  0.00  0.00     0.000 O
ATOM     37   O  A00 X   2      65.600  45.620 123.5300  0.00  0.00     0.000 OA
ATOM     38   S  A00 X   2      65.237  46.745 124.3370  0.00  0.00     0.000 S
ATOM     39   O  A00 X   2      64.959  46.506 125.7210  0.00  0.00     0.000 OA
ENDBRANCH 24 34
BRANCH 20 40
ATOM     40  O4  A00 X   3      70.031  44.519 123.4510  0.00  0.00     0.000 O
BRANCH 40 44
ATOM     41  C1  A00 X   3      69.107  42.541 126.3420  0.00  0.00     0.000 C
ATOM     42  C2  A00 X   3      70.475  42.474 125.6300  0.00  0.00     0.000 C
ATOM     43  C3  A00 X   3      70.298  42.278 124.1020  0.00  0.00     0.000 C
ATOM     44  C4  A00 X   3      69.331  43.256 123.4470  0.00  0.00     0.000 C
ATOM     45  C5  A00 X   3      67.979  43.264 124.2140  0.00  0.00     0.000 C
ATOM     46  O5  A00 X   3      68.195  43.441 125.6520  0.00  0.00     0.000 O
ATOM     47   O  A00 X   3      71.499  42.115 123.3510  0.00  0.00     0.000 O
ATOM     49  HD  A00 X   3      71.074  42.605 122.7780  0.00  0.00     0.000 HD
BRANCH 42 49
ATOM     49   O  A00 X   3      71.168  43.706 125.9270  0.00  0.00     0.000 O
ATOM     50   O  A00 X   3      73.247  44.718 125.3070  0.00  0.00     0.000 OA
ATOM     51   O  A00 X   3      73.204  42.404 125.7900  0.00  0.00     0.000 OA
ATOM     52   O  A00 X   3      72.843  43.931 127.5580  0.00  0.00     0.000 OA
ATOM     53   S  A00 X   3      72.707  43.706 126.1600  0.00  0.00     0.000 S
ENDBRANCH 42 49
BRANCH 45 54
ATOM     54   C  A00 X   3      67.129  42.033 123.8780  0.00  0.00     0.000 C
ATOM     55   O  A00 X   3      65.930  42.040 124.0640  0.00  0.00     0.000 OA
ATOM     56   O  A00 X   3      67.643  41.024 123.4200  0.00  0.00     0.000 OA
ENDBRANCH 45 54
BRANCH 41 57
ATOM     57  O4  A00 X   4      68.563  41.223 126.5790  0.00  0.00     0.000 O
BRANCH 57 61
ATOM     58  C1  A00 X   4      65.787  39.651 129.4880  0.00  0.00     0.000 C
ATOM     59  C2  A00 X   4      65.226  40.446 128.2820  0.00  0.00     0.000 C
ATOM     60  C3  A00 X   4      66.250  40.640 127.1450  0.00  0.00     0.000 C
ATOM     61  C4  A00 X   4      67.611  41.136 127.6780  0.00  0.00     0.000 C
ATOM     62  C5  A00 X   4      68.083  40.086 128.7140  0.00  0.00     0.000 C
ATOM     63  O5  A00 X   4      67.139  40.045 129.8150  0.00  0.00     0.000 O
BRANCH 59 66
ATOM     64   N  A00 X   4      64.836  41.808 128.6880  0.00  0.00     0.000 N
ATOM     66  HD  A00 X   4      65.259  42.163 129.3550  0.00  0.00     0.000 HD
ATOM     66   O  A00 X   4      62.773  40.868 129.4980  0.00  0.00     0.000 OA
ATOM     67   S  A00 X   4      63.291  42.097 128.9840  0.00  0.00     0.000 S
ATOM     68   O  A00 X   4      63.405  43.164 129.9350  0.00  0.00     0.000 OA
ATOM     69   O  A00 X   4      62.857  42.514 127.6810  0.00  0.00     0.000 OA
ENDBRANCH 59 66
BRANCH 62 70
ATOM     70   C  A00 X   4      69.495  40.353 129.2860  0.00  0.00     0.000 C
ATOM     71   O  A00 X   4      70.446  42.470 132.0650  0.00  0.00     0.000 OA
ATOM     72   O  A00 X   4      71.312  42.325 129.8800  0.00  0.00     0.000 OA
ATOM     73   O  A00 X   4      69.377  41.055 130.5340  0.00  0.00     0.000 O
ATOM     74   O  A00 X   4      69.179  43.441 130.2580  0.00  0.00     0.000 OA
ATOM     75   S  A00 X   4      70.106  42.437 130.6700  0.00  0.00     0.000 S
ENDBRANCH 62 70
ENDBRANCH 57 61
ENDBRANCH 41 57
ENDBRANCH 40 44
ENDBRANCH 20 40
ENDBRANCH 19 23
ENDBRANCH 1 19
TORSDOF 14
ENDMDL
MODEL 78
REMARK VINA RESULT:       0.1    104.708    109.150
ROOT
ATOM      1  C1  A00 X   1     110.331  52.603 112.7570  0.00  0.00     0.000 C
ATOM      2  C2  A00 X   1     110.675  52.000 114.1460  0.00  0.00     0.000 C
ATOM      3  C3  A00 X   1     109.564  52.118 115.2400  0.00  0.00     0.000 C
ATOM      4  C4  A00 X   1     108.426  53.125 114.9320  0.00  0.00     0.000 C
ATOM      5  C5  A00 X   1     108.855  54.188 113.9210  0.00  0.00     0.000 C
ATOM      6  O5  A00 X   1     109.155  53.448 112.7160  0.00  0.00     0.000 O
ATOM      7   O  A00 X   1     110.166  52.547 116.4590  0.00  0.00     0.000 O
ATOM      9  HD  A00 X   1     109.419  52.978 116.3780  0.00  0.00     0.000 HD
ATOM      9   O  A00 X   1     107.253  52.460 114.4650  0.00  0.00     0.000 O
ATOM     11  HD  A00 X   1     106.506  52.890 114.3840  0.00  0.00     0.000 HD
ENDROOT
BRANCH 2 11
ATOM     11   O  A00 X   1     110.997  50.609 113.9520  0.00  0.00     0.000 O
ATOM     12   O  A00 X   1     111.739  49.213 115.7600  0.00  0.00     0.000 OA
ATOM     13   O  A00 X   1     113.116  51.094 115.0660  0.00  0.00     0.000 OA
ATOM     14   O  A00 X   1     112.841  49.210 113.6390  0.00  0.00     0.000 OA
ATOM     15   S  A00 X   1     112.252  50.013 114.6770  0.00  0.00     0.000 S
ENDBRANCH 2 11
BRANCH 5 16
ATOM     16   C  A00 X   1     109.997  55.098 114.3830  0.00  0.00     0.000 C
ATOM     17   O  A00 X   1     110.524  55.829 113.5690  0.00  0.00     0.000 OA
ATOM     18   O  A00 X   1     110.389  55.120 115.5330  0.00  0.00     0.000 OA
ENDBRANCH 5 16
BRANCH 1 19
ATOM     19  O4  A00 X   2     111.467  53.246 112.1280  0.00  0.00     0.000 O
BRANCH 19 23
ATOM     20  C1  A00 X   2     110.388  51.976 108.1800  0.00  0.00     0.000 C
ATOM     21  C2  A00 X   2     111.453  51.142 108.9330  0.00  0.00     0.000 C
ATOM     22  C3  A00 X   2     111.417  51.442 110.4460  0.00  0.00     0.000 C
ATOM     23  C4  A00 X   2     111.551  52.960 110.7030  0.00  0.00     0.000 C
ATOM     24  C5  A00 X   2     110.446  53.680 109.8830  0.00  0.00     0.000 C
ATOM     25  O5  A00 X   2     110.635  53.376 108.4760  0.00  0.00     0.000 O
ATOM     26   O  A00 X   2     112.373  50.596 111.1060  0.00  0.00     0.000 O
ATOM     28  HD  A00 X   2     113.012  50.808 110.5620  0.00  0.00     0.000 HD
BRANCH 21 30
ATOM     28   N  A00 X   2     112.115  50.898 107.6470  0.00  0.00     0.000 N
ATOM     30  HD  A00 X   2     112.437  50.322 108.2080  0.00  0.00     0.000 HD
ATOM     30   O  A00 X   2     113.122  48.792 107.7360  0.00  0.00     0.000 OA
ATOM     31   S  A00 X   2     113.510  50.155 107.6420  0.00  0.00     0.000 S
ATOM     32   O  A00 X   2     114.090  50.533 106.3900  0.00  0.00     0.000 OA
ATOM     33   O  A00 X   2     114.278  50.688 108.7270  0.00  0.00     0.000 OA
ENDBRANCH 21 30
BRANCH 24 34
ATOM     34   C  A00 X   2     110.216  55.187 110.1430  0.00  0.00     0.000 C
ATOM     35   O  A00 X   2     110.732  57.790 107.6490  0.00  0.00     0.000 OA
ATOM     36   O  A00 X   2     110.828  55.994 109.1170  0.00  0.00     0.000 O
ATOM     37   O  A00 X   2     109.308  55.927 107.3400  0.00  0.00     0.000 OA
ATOM     38   S  A00 X   2     109.834  56.875 108.2740  0.00  0.00     0.000 S
ATOM     39   O  A00 X   2     108.922  57.462 109.2080  0.00  0.00     0.000 OA
ENDBRANCH 24 34
BRANCH 20 40
ATOM     40  O4  A00 X   3     109.124  51.584 108.7360  0.00  0.00     0.000 O
BRANCH 40 44
ATOM     41  C1  A00 X   3     105.885  52.617 109.9860  0.00  0.00     0.000 C
ATOM     42  C2  A00 X   3     106.391  51.159 109.9530  0.00  0.00     0.000 C
ATOM     43  C3  A00 X   3     106.922  50.787 108.5440  0.00  0.00     0.000 C
ATOM     44  C4  A00 X   3     107.921  51.780 107.9620  0.00  0.00     0.000 C
ATOM     45  C5  A00 X   3     107.339  53.220 108.0260  0.00  0.00     0.000 C
ATOM     46  O5  A00 X   3     106.841  53.523 109.3690  0.00  0.00     0.000 O
ATOM     47   O  A00 X   3     107.337  49.434 108.3720  0.00  0.00     0.000 O
ATOM     49  HD  A00 X   3     107.964  49.804 107.9040  0.00  0.00     0.000 HD
BRANCH 42 49
ATOM     49   O  A00 X   3     107.427  51.047 110.9540  0.00  0.00     0.000 O
ATOM     50   O  A00 X   3     108.938  49.348 111.7020  0.00  0.00     0.000 OA
ATOM     51   O  A00 X   3     106.703  48.753 111.2130  0.00  0.00     0.000 OA
ATOM     52   O  A00 X   3     107.118  50.126 113.0910  0.00  0.00     0.000 OA
ATOM     53   S  A00 X   3     107.569  49.747 111.7970  0.00  0.00     0.000 S
ENDBRANCH 42 49
BRANCH 45 54
ATOM     54   C  A00 X   3     106.297  53.460 106.9270  0.00  0.00     0.000 C
ATOM     55   O  A00 X   3     105.737  52.526 106.3910  0.00  0.00     0.000 OA
ATOM     56   O  A00 X   3     106.012  54.593 106.5720  0.00  0.00     0.000 OA
ENDBRANCH 45 54
BRANCH 41 57
ATOM     57  O4  A00 X   4     104.545  52.729 109.4580  0.00  0.00     0.000 O
BRANCH 57 61
ATOM     58  C1  A00 X   4     101.343  55.555 110.0930  0.00  0.00     0.000 C
ATOM     59  C2  A00 X   4     102.512  55.957 109.1590  0.00  0.00     0.000 C
ATOM     60  C3  A00 X   4     103.391  54.765 108.7270  0.00  0.00     0.000 C
ATOM     61  C4  A00 X   4     103.789  53.881 109.9280  0.00  0.00     0.000 C
ATOM     62  C5  A00 X   4     102.465  53.421 110.5880  0.00  0.00     0.000 C
ATOM     63  O5  A00 X   4     101.749  54.582 111.0820  0.00  0.00     0.000 O
BRANCH 59 66
ATOM     64   N  A00 X   4     103.429  56.887 109.8410  0.00  0.00     0.000 N
ATOM     66  HD  A00 X   4     103.486  56.832 110.7040  0.00  0.00     0.000 HD
ATOM     66   O  A00 X   4     101.892  58.655 109.2830  0.00  0.00     0.000 OA
ATOM     67   S  A00 X   4     103.283  58.451 109.5410  0.00  0.00     0.000 S
ATOM     68   O  A00 X   4     103.769  58.998 110.7740  0.00  0.00     0.000 OA
ATOM     69   O  A00 X   4     104.195  58.584 108.4400  0.00  0.00     0.000 OA
ENDBRANCH 59 66
BRANCH 62 70
ATOM     70   C  A00 X   4     102.654  52.426 111.7580  0.00  0.00     0.000 C
ATOM     71   O  A00 X   4     103.312  53.135 115.2460  0.00  0.00     0.000 OA
ATOM     72   O  A00 X   4     104.372  51.652 113.7560  0.00  0.00     0.000 OA
ATOM     73   O  A00 X   4     102.646  53.146 113.0000  0.00  0.00     0.000 O
ATOM     74   O  A00 X   4     104.804  54.044 113.5840  0.00  0.00     0.000 OA
ATOM     75   S  A00 X   4     103.893  53.004 113.9400  0.00  0.00     0.000 S
ENDBRANCH 62 70
ENDBRANCH 57 61
ENDBRANCH 41 57
ENDBRANCH 40 44
ENDBRANCH 20 40
ENDBRANCH 19 23
ENDBRANCH 1 19
TORSDOF 14
ENDMDL
MODEL 79
REMARK VINA RESULT:       0.1    103.442    107.940
ROOT
ATOM      1  C1  A00 X   1      73.851  68.965 135.2420  0.00  0.00     0.000 C
ATOM      2  C2  A00 X   1      72.651  69.521 134.4320  0.00  0.00     0.000 C
ATOM      3  C3  A00 X   1      72.540  69.039 132.9480  0.00  0.00     0.000 C
ATOM      4  C4  A00 X   1      73.814  68.376 132.3640  0.00  0.00     0.000 C
ATOM      5  C5  A00 X   1      75.078  68.790 133.1180  0.00  0.00     0.000 C
ATOM      6  O5  A00 X   1      74.879  68.302 134.4640  0.00  0.00     0.000 O
ATOM      7   O  A00 X   1      72.255  70.165 132.1210  0.00  0.00     0.000 O
ATOM      9  HD  A00 X   1      72.838  69.681 131.7010  0.00  0.00     0.000 HD
ATOM      9   O  A00 X   1      73.704  66.953 132.3530  0.00  0.00     0.000 O
ATOM     11  HD  A00 X   1      74.287  66.469 131.9340  0.00  0.00     0.000 HD
ENDROOT
BRANCH 2 11
ATOM     11   O  A00 X   1      71.444  69.162 135.1330  0.00  0.00     0.000 O
ATOM     12   O  A00 X   1      69.279  69.890 134.3910  0.00  0.00     0.000 OA
ATOM     13   O  A00 X   1      70.904  71.544 135.1280  0.00  0.00     0.000 OA
ATOM     14   O  A00 X   1      69.933  70.031 136.6860  0.00  0.00     0.000 OA
ATOM     15   S  A00 X   1      70.324  70.243 135.3180  0.00  0.00     0.000 S
ENDBRANCH 2 11
BRANCH 5 16
ATOM     16   C  A00 X   1      75.412  70.284 133.0500  0.00  0.00     0.000 C
ATOM     17   O  A00 X   1      76.278  70.719 133.7810  0.00  0.00     0.000 OA
ATOM     18   O  A00 X   1      74.848  71.044 132.2890  0.00  0.00     0.000 OA
ENDBRANCH 5 16
BRANCH 1 19
ATOM     19  O4  A00 X   2      74.421  69.944 136.1450  0.00  0.00     0.000 O
BRANCH 19 23
ATOM     20  C1  A00 X   2      75.253  67.077 139.2200  0.00  0.00     0.000 C
ATOM     21  C2  A00 X   2      73.957  67.912 139.3530  0.00  0.00     0.000 C
ATOM     22  C3  A00 X   2      73.578  68.559 138.0040  0.00  0.00     0.000 C
ATOM     23  C4  A00 X   2      74.763  69.376 137.4420  0.00  0.00     0.000 C
ATOM     24  C5  A00 X   2      75.998  68.436 137.3750  0.00  0.00     0.000 C
ATOM     25  O5  A00 X   2      76.292  67.955 138.7120  0.00  0.00     0.000 O
ATOM     26   O  A00 X   2      72.336  69.264 138.1640  0.00  0.00     0.000 O
ATOM     28  HD  A00 X   2      72.607  69.685 138.8700  0.00  0.00     0.000 HD
BRANCH 21 30
ATOM     28   N  A00 X   2      74.142  67.897 140.8080  0.00  0.00     0.000 N
ATOM     30  HD  A00 X   2      73.325  68.142 140.6620  0.00  0.00     0.000 HD
ATOM     30   O  A00 X   2      72.032  67.929 141.8100  0.00  0.00     0.000 OA
ATOM     31   S  A00 X   2      73.174  68.766 141.7050  0.00  0.00     0.000 S
ATOM     32   O  A00 X   2      73.907  68.944 142.9200  0.00  0.00     0.000 OA
ATOM     33   O  A00 X   2      72.997  70.024 141.0420  0.00  0.00     0.000 OA
ENDBRANCH 21 30
BRANCH 24 34
ATOM     34   C  A00 X   2      77.257  68.944 136.6320  0.00  0.00     0.000 C
ATOM     35   O  A00 X   2      80.481  69.504 138.2290  0.00  0.00     0.000 OA
ATOM     36   O  A00 X   2      78.260  69.403 137.5590  0.00  0.00     0.000 O
ATOM     37   O  A00 X   2      79.313  67.448 138.2940  0.00  0.00     0.000 OA
ATOM     38   S  A00 X   2      79.620  68.614 137.5220  0.00  0.00     0.000 S
ATOM     39   O  A00 X   2      79.943  68.428 136.1390  0.00  0.00     0.000 OA
ENDBRANCH 24 34
BRANCH 20 40
ATOM     40  O4  A00 X   3      74.963  66.064 138.2450  0.00  0.00     0.000 O
BRANCH 40 44
ATOM     41  C1  A00 X   3      76.075  64.222 135.3310  0.00  0.00     0.000 C
ATOM     42  C2  A00 X   3      74.699  64.049 136.0090  0.00  0.00     0.000 C
ATOM     43  C3  A00 X   3      74.856  63.827 137.5350  0.00  0.00     0.000 C
ATOM     44  C4  A00 X   3      75.743  64.849 138.2360  0.00  0.00     0.000 C
ATOM     45  C5  A00 X   3      77.107  64.962 137.5000  0.00  0.00     0.000 C
ATOM     46  O5  A00 X   3      76.912  65.160 136.0630  0.00  0.00     0.000 O
ATOM     47   O  A00 X   3      73.652  63.568 138.2540  0.00  0.00     0.000 O
ATOM     49  HD  A00 X   3      74.031  64.070 138.8490  0.00  0.00     0.000 HD
BRANCH 42 49
ATOM     49   O  A00 X   3      73.934  65.241 135.7250  0.00  0.00     0.000 O
ATOM     50   O  A00 X   3      71.781  66.101 136.3200  0.00  0.00     0.000 OA
ATOM     51   O  A00 X   3      71.985  63.807 135.7840  0.00  0.00     0.000 OA
ATOM     52   O  A00 X   3      72.284  65.398 134.0620  0.00  0.00     0.000 OA
ATOM     53   S  A00 X   3      72.404  65.147 135.4570  0.00  0.00     0.000 S
ENDBRANCH 42 49
BRANCH 45 54
ATOM     54   C  A00 X   3      78.028  63.780 137.8270  0.00  0.00     0.000 C
ATOM     55   O  A00 X   3      77.571  62.738 138.2500  0.00  0.00     0.000 OA
ATOM     56   O  A00 X   3      79.236  63.866 137.6680  0.00  0.00     0.000 OA
ENDBRANCH 45 54
BRANCH 41 57
ATOM     57  O4  A00 X   4      76.708  62.948 135.0750  0.00  0.00     0.000 O
BRANCH 57 61
ATOM     58  C1  A00 X   4      79.642  61.630 132.1940  0.00  0.00     0.000 C
ATOM     59  C2  A00 X   4      80.124  62.429 133.4310  0.00  0.00     0.000 C
ATOM     60  C3  A00 X   4      79.066  62.529 134.5490  0.00  0.00     0.000 C
ATOM     61  C4  A00 X   4      77.687  62.950 133.9970  0.00  0.00     0.000 C
ATOM     62  C5  A00 X   4      77.307  61.897 132.9260  0.00  0.00     0.000 C
ATOM     63  O5  A00 X   4      78.274  61.944 131.8460  0.00  0.00     0.000 O
BRANCH 59 66
ATOM     64   N  A00 X   4      80.433  63.823 133.0640  0.00  0.00     0.000 N
ATOM     66  HD  A00 X   4      80.002  64.166 132.3960  0.00  0.00     0.000 HD
ATOM     66   O  A00 X   4      82.570  63.038 132.2810  0.00  0.00     0.000 OA
ATOM     67   S  A00 X   4      81.962  64.218 132.8100  0.00  0.00     0.000 S
ATOM     68   O  A00 X   4      81.799  65.298 131.8810  0.00  0.00     0.000 OA
ATOM     69   O  A00 X   4      82.340  64.631 134.1320  0.00  0.00     0.000 OA
ENDBRANCH 59 66
BRANCH 62 70
ATOM     70   C  A00 X   4      75.892  62.087 132.3280  0.00  0.00     0.000 C
ATOM     71   O  A00 X   4      74.865  64.205 129.5780  0.00  0.00     0.000 OA
ATOM     72   O  A00 X   4      73.964  63.952 131.7390  0.00  0.00     0.000 OA
ATOM     73   O  A00 X   4      75.991  62.825 131.1000  0.00  0.00     0.000 O
ATOM     74   O  A00 X   4      76.029  65.211 131.4350  0.00  0.00     0.000 OA
ATOM     75   S  A00 X   4      75.177  64.160 130.9790  0.00  0.00     0.000 S
ENDBRANCH 62 70
ENDBRANCH 57 61
ENDBRANCH 41 57
ENDBRANCH 40 44
ENDBRANCH 20 40
ENDBRANCH 19 23
ENDBRANCH 1 19
TORSDOF 14
ENDMDL
MODEL 80
REMARK VINA RESULT:       0.1     98.266    102.082
ROOT
ATOM      1  C1  A00 X   1      20.017  58.049 124.6140  0.00  0.00     0.000 C
ATOM      2  C2  A00 X   1      19.038  59.140 125.1240  0.00  0.00     0.000 C
ATOM      3  C3  A00 X   1      19.524  59.980 126.3510  0.00  0.00     0.000 C
ATOM      4  C4  A00 X   1      20.732  59.394 127.1260  0.00  0.00     0.000 C
ATOM      5  C5  A00 X   1      20.880  57.888 126.9110  0.00  0.00     0.000 C
ATOM      6  O5  A00 X   1      21.126  57.742 125.4940  0.00  0.00     0.000 O
ATOM      7   O  A00 X   1      18.453  60.084 127.2870  0.00  0.00     0.000 O
ATOM      9  HD  A00 X   1      19.178  59.945 127.7410  0.00  0.00     0.000 HD
ATOM      9   O  A00 X   1      21.947  60.054 126.7740  0.00  0.00     0.000 O
ATOM     11  HD  A00 X   1      22.671  59.914 127.2290  0.00  0.00     0.000 HD
ENDROOT
BRANCH 2 11
ATOM     11   O  A00 X   1      18.761  60.030 124.0250  0.00  0.00     0.000 O
ATOM     12   O  A00 X   1      17.511  62.059 124.3190  0.00  0.00     0.000 OA
ATOM     13   O  A00 X   1      16.420  59.921 124.7160  0.00  0.00     0.000 OA
ATOM     14   O  A00 X   1      17.060  60.557 122.5150  0.00  0.00     0.000 OA
ATOM     15   S  A00 X   1      17.341  60.685 123.9200  0.00  0.00     0.000 S
ENDBRANCH 2 11
BRANCH 5 16
ATOM     16   C  A00 X   1      19.708  57.042 127.4190  0.00  0.00     0.000 C
ATOM     17   O  A00 X   1      19.647  55.876 127.0890  0.00  0.00     0.000 OA
ATOM     18   O  A00 X   1      18.845  57.494 128.1450  0.00  0.00     0.000 OA
ENDBRANCH 5 16
BRANCH 1 19
ATOM     19  O4  A00 X   2      19.339  56.845 124.1790  0.00  0.00     0.000 O
BRANCH 19 23
ATOM     20  C1  A00 X   2      21.908  56.249 120.8020  0.00  0.00     0.000 C
ATOM     21  C2  A00 X   2      20.547  56.943 120.5510  0.00  0.00     0.000 C
ATOM     22  C3  A00 X   2      19.947  57.469 121.8710  0.00  0.00     0.000 C
ATOM     23  C4  A00 X   2      19.859  56.335 122.9180  0.00  0.00     0.000 C
ATOM     24  C5  A00 X   2      21.274  55.712 123.0640  0.00  0.00     0.000 C
ATOM     25  O5  A00 X   2      21.691  55.192 121.7740  0.00  0.00     0.000 O
ATOM     26   O  A00 X   2      18.723  58.163 121.5770  0.00  0.00     0.000 O
ATOM     28  HD  A00 X   2      18.409  57.511 121.1010  0.00  0.00     0.000 HD
BRANCH 21 30
ATOM     28   N  A00 X   2      20.491  56.278 119.2450  0.00  0.00     0.000 N
ATOM     30  HD  A00 X   2      19.905  56.916 119.2270  0.00  0.00     0.000 HD
ATOM     30   O  A00 X   2      19.354  57.682 117.7630  0.00  0.00     0.000 OA
ATOM     31   S  A00 X   2      19.175  56.416 118.3800  0.00  0.00     0.000 S
ATOM     32   O  A00 X   2      19.235  55.297 117.4910  0.00  0.00     0.000 OA
ATOM     33   O  A00 X   2      18.064  56.281 119.2750  0.00  0.00     0.000 OA
ENDBRANCH 21 30
BRANCH 24 34
ATOM     34   C  A00 X   2      21.510  54.708 124.2170  0.00  0.00     0.000 C
ATOM     35   O  A00 X   2      19.620  51.628 124.6590  0.00  0.00     0.000 OA
ATOM     36   O  A00 X   2      20.407  53.788 124.3420  0.00  0.00     0.000 O
ATOM     37   O  A00 X   2      20.795  52.185 122.6830  0.00  0.00     0.000 OA
ATOM     38   S  A00 X   2      20.767  52.275 124.1110  0.00  0.00     0.000 S
ATOM     39   O  A00 X   2      21.991  52.038 124.8150  0.00  0.00     0.000 OA
ENDBRANCH 24 34
BRANCH 20 40
ATOM     40  O4  A00 X   3      22.758  57.256 121.3690  0.00  0.00     0.000 O
BRANCH 40 44
ATOM     41  C1  A00 X   3      25.202  58.131 123.8970  0.00  0.00     0.000 C
ATOM     42  C2  A00 X   3      24.630  59.111 122.8490  0.00  0.00     0.000 C
ATOM     43  C3  A00 X   3      24.738  58.520 121.4190  0.00  0.00     0.000 C
ATOM     44  C4  A00 X   3      24.191  57.105 121.2760  0.00  0.00     0.000 C
ATOM     45  C5  A00 X   3      24.816  56.181 122.3590  0.00  0.00     0.000 C
ATOM     46  O5  A00 X   3      24.700  56.782 123.6890  0.00  0.00     0.000 O
ATOM     47   O  A00 X   3      24.319  59.375 120.3580  0.00  0.00     0.000 O
ATOM     49  HD  A00 X   3      23.997  58.636 120.0410  0.00  0.00     0.000 HD
BRANCH 42 49
ATOM     49   O  A00 X   3      23.255  59.364 123.2120  0.00  0.00     0.000 O
ATOM     50   O  A00 X   3      21.428  60.620 122.3100  0.00  0.00     0.000 OA
ATOM     51   O  A00 X   3      23.590  61.576 122.2890  0.00  0.00     0.000 OA
ATOM     52   O  A00 X   3      22.514  61.267 124.3710  0.00  0.00     0.000 OA
ATOM     53   S  A00 X   3      22.645  60.786 123.0390  0.00  0.00     0.000 S
ENDBRANCH 42 49
BRANCH 45 54
ATOM     54   C  A00 X   3      26.251  55.777 122.0010  0.00  0.00     0.000 C
ATOM     55   O  A00 X   3      26.825  56.297 121.0660  0.00  0.00     0.000 OA
ATOM     56   O  A00 X   3      26.841  54.927 122.6490  0.00  0.00     0.000 OA
ENDBRANCH 45 54
BRANCH 41 57
ATOM     57  O4  A00 X   4      26.642  58.217 123.9770  0.00  0.00     0.000 O
BRANCH 57 61
ATOM     58  C1  A00 X   4      29.436  57.748 127.2350  0.00  0.00     0.000 C
ATOM     59  C2  A00 X   4      28.545  56.542 126.8430  0.00  0.00     0.000 C
ATOM     60  C3  A00 X   4      27.864  56.702 125.4680  0.00  0.00     0.000 C
ATOM     61  C4  A00 X   4      27.195  58.085 125.3170  0.00  0.00     0.000 C
ATOM     62  C5  A00 X   4      28.311  59.136 125.5420  0.00  0.00     0.000 C
ATOM     63  O5  A00 X   4      28.819  59.010 126.8950  0.00  0.00     0.000 O
BRANCH 59 66
ATOM     64   N  A00 X   4      27.851  56.989 128.0640  0.00  0.00     0.000 N
ATOM     66  HD  A00 X   4      28.090  57.749 128.4050  0.00  0.00     0.000 HD
ATOM     66   O  A00 X   4      28.997  55.227 129.2390  0.00  0.00     0.000 OA
ATOM     67   S  A00 X   4      27.788  55.987 129.3090  0.00  0.00     0.000 S
ATOM     68   O  A00 X   4      27.710  56.924 130.3920  0.00  0.00     0.000 OA
ATOM     69   O  A00 X   4      26.554  55.310 129.0270  0.00  0.00     0.000 OA
ENDBRANCH 59 66
BRANCH 62 70
ATOM     70   C  A00 X   4      27.856  60.599 125.3220  0.00  0.00     0.000 C
ATOM     71   O  A00 X   4      25.600  62.592 127.3340  0.00  0.00     0.000 OA
ATOM     72   O  A00 X   4      25.656  62.214 125.0100  0.00  0.00     0.000 OA
ATOM     73   O  A00 X   4      27.160  61.060 126.4910  0.00  0.00     0.000 O
ATOM     74   O  A00 X   4      24.824  60.469 126.4940  0.00  0.00     0.000 OA
ATOM     75   S  A00 X   4      25.694  61.587 126.3130  0.00  0.00     0.000 S
ENDBRANCH 62 70
ENDBRANCH 57 61
ENDBRANCH 41 57
ENDBRANCH 40 44
ENDBRANCH 20 40
ENDBRANCH 19 23
ENDBRANCH 1 19
TORSDOF 14
ENDMDL
MODEL 81
REMARK VINA RESULT:       0.1     79.623     83.659
ROOT
ATOM      1  C1  A00 X   1      76.858 136.272 118.4160  0.00  0.00     0.000 C
ATOM      2  C2  A00 X   1      76.707 135.723 119.8600  0.00  0.00     0.000 C
ATOM      3  C3  A00 X   1      76.298 136.765 120.9520  0.00  0.00     0.000 C
ATOM      4  C4  A00 X   1      76.453 138.254 120.5470  0.00  0.00     0.000 C
ATOM      5  C5  A00 X   1      77.456 138.441 119.4090  0.00  0.00     0.000 C
ATOM      6  O5  A00 X   1      76.887 137.716 118.2960  0.00  0.00     0.000 O
ATOM      7   O  A00 X   1      77.121 136.571 122.1000  0.00  0.00     0.000 O
ATOM      9  HD  A00 X   1      77.046 137.426 121.9820  0.00  0.00     0.000 HD
ATOM      9   O  A00 X   1      75.198 138.828 120.1830  0.00  0.00     0.000 O
ATOM     11  HD  A00 X   1      75.122 139.683 120.0650  0.00  0.00     0.000 HD
ENDROOT
BRANCH 2 11
ATOM     11   O  A00 X   1      75.726 134.669 119.8270  0.00  0.00     0.000 O
ATOM     12   O  A00 X   1      75.212 133.352 121.7690  0.00  0.00     0.000 OA
ATOM     13   O  A00 X   1      77.444 133.237 120.8100  0.00  0.00     0.000 OA
ATOM     14   O  A00 X   1      75.579 132.347 119.6320  0.00  0.00     0.000 OA
ATOM     15   S  A00 X   1      76.028 133.328 120.5820  0.00  0.00     0.000 S
ENDBRANCH 2 11
BRANCH 5 16
ATOM     16   C  A00 X   1      78.894 138.030 119.7390  0.00  0.00     0.000 C
ATOM     17   O  A00 X   1      79.701 137.962 118.8350  0.00  0.00     0.000 OA
ATOM     18   O  A00 X   1      79.256 137.775 120.8700  0.00  0.00     0.000 OA
ENDBRANCH 5 16
BRANCH 1 19
ATOM     19  O4  A00 X   2      77.955 135.660 117.6950  0.00  0.00     0.000 O
BRANCH 19 23
ATOM     20  C1  A00 X   2      75.867 135.624 113.9530  0.00  0.00     0.000 C
ATOM     21  C2  A00 X   2      75.893 134.309 114.7690  0.00  0.00     0.000 C
ATOM     22  C3  A00 X   2      76.282 134.581 116.2370  0.00  0.00     0.000 C
ATOM     23  C4  A00 X   2      77.615 135.360 116.3110  0.00  0.00     0.000 C
ATOM     24  C5  A00 X   2      77.466 136.639 115.4420  0.00  0.00     0.000 C
ATOM     25  O5  A00 X   2      77.174 136.245 114.0760  0.00  0.00     0.000 O
ATOM     26   O  A00 X   2      76.225 133.344 116.9660  0.00  0.00     0.000 O
ATOM     28  HD  A00 X   2      76.706 132.920 116.3840  0.00  0.00     0.000 HD
BRANCH 21 30
ATOM     28   N  A00 X   2      75.938 133.569 113.5040  0.00  0.00     0.000 N
ATOM     30  HD  A00 X   2      75.720 133.000 114.1200  0.00  0.00     0.000 HD
ATOM     30   O  A00 X   2      74.828 131.536 113.8110  0.00  0.00     0.000 OA
ATOM     31   S  A00 X   2      76.143 132.002 113.5490  0.00  0.00     0.000 S
ATOM     32   O  A00 X   2      76.647 131.689 112.2480  0.00  0.00     0.000 OA
ATOM     33   O  A00 X   2      77.138 131.734 114.5450  0.00  0.00     0.000 OA
ENDBRANCH 21 30
BRANCH 24 34
ATOM     34   C  A00 X   2      78.580 137.709 115.5300  0.00  0.00     0.000 C
ATOM     35   O  A00 X   2      82.086 137.072 114.7810  0.00  0.00     0.000 OA
ATOM     36   O  A00 X   2      79.888 137.104 115.5270  0.00  0.00     0.000 O
ATOM     37   O  A00 X   2      80.314 136.646 113.2730  0.00  0.00     0.000 OA
ATOM     38   S  A00 X   2      80.807 137.497 114.3130  0.00  0.00     0.000 S
ATOM     39   O  A00 X   2      80.664 138.911 114.1380  0.00  0.00     0.000 OA
ENDBRANCH 24 34
BRANCH 20 40
ATOM     40  O4  A00 X   3      74.881 136.453 114.5840  0.00  0.00     0.000 O
BRANCH 40 44
ATOM     41  C1  A00 X   3      74.081 139.763 115.8210  0.00  0.00     0.000 C
ATOM     42  C2  A00 X   3      73.157 138.532 115.9400  0.00  0.00     0.000 C
ATOM     43  C3  A00 X   3      72.981 137.835 114.5660  0.00  0.00     0.000 C
ATOM     44  C4  A00 X   3      74.284 137.535 113.8370  0.00  0.00     0.000 C
ATOM     45  C5  A00 X   3      75.155 138.820 113.7530  0.00  0.00     0.000 C
ATOM     46  O5  A00 X   3      75.286 139.450 115.0690  0.00  0.00     0.000 O
ATOM     47   O  A00 X   3      72.076 136.733 114.5380  0.00  0.00     0.000 O
ATOM     49  HD  A00 X   3      72.674 136.400 114.0070  0.00  0.00     0.000 HD
BRANCH 42 49
ATOM     49   O  A00 X   3      73.756 137.644 116.9090  0.00  0.00     0.000 O
ATOM     50   O  A00 X   3      73.278 135.475 117.8010  0.00  0.00     0.000 OA
ATOM     51   O  A00 X   3      71.494 136.990 117.4680  0.00  0.00     0.000 OA
ATOM     52   O  A00 X   3      73.082 137.471 119.1510  0.00  0.00     0.000 OA
ATOM     53   S  A00 X   3      72.862 136.839 117.8960  0.00  0.00     0.000 S
ENDBRANCH 42 49
BRANCH 45 54
ATOM     54   C  A00 X   3      74.646 139.781 112.6720  0.00  0.00     0.000 C
ATOM     55   O  A00 X   3      73.520 139.676 112.2310  0.00  0.00     0.000 OA
ATOM     56   O  A00 X   3      75.364 140.667 112.2350  0.00  0.00     0.000 OA
ENDBRANCH 45 54
BRANCH 41 57
ATOM     57  O4  A00 X   4      73.368 140.921 115.3320  0.00  0.00     0.000 O
BRANCH 57 61
ATOM     58  C1  A00 X   4      73.920 145.171 115.8510  0.00  0.00     0.000 C
ATOM     59  C2  A00 X   4      74.843 144.419 114.8600  0.00  0.00     0.000 C
ATOM     60  C3  A00 X   4      74.331 143.012 114.4900  0.00  0.00     0.000 C
ATOM     61  C4  A00 X   4      73.920 142.205 115.7400  0.00  0.00     0.000 C
ATOM     62  C5  A00 X   4      72.840 143.046 116.4660  0.00  0.00     0.000 C
ATOM     63  O5  A00 X   4      73.424 144.302 116.8950  0.00  0.00     0.000 O
BRANCH 59 66
ATOM     64   N  A00 X   4      76.168 144.211 115.4710  0.00  0.00     0.000 N
ATOM     66  HD  A00 X   4      76.207 144.160 116.3350  0.00  0.00     0.000 HD
ATOM     66   O  A00 X   4      76.715 146.461 114.8090  0.00  0.00     0.000 OA
ATOM     67   S  A00 X   4      77.352 145.208 115.0680  0.00  0.00     0.000 S
ATOM     68   O  A00 X   4      78.150 145.156 116.2580  0.00  0.00     0.000 OA
ATOM     69   O  A00 X   4      77.913 144.498 113.9530  0.00  0.00     0.000 OA
ENDBRANCH 59 66
BRANCH 62 70
ATOM     70   C  A00 X   4      72.217 142.347 117.6980  0.00  0.00     0.000 C
ATOM     71   O  A00 X   4      73.291 142.472 121.1530  0.00  0.00     0.000 OA
ATOM     72   O  A00 X   4      72.745 140.637 119.7810  0.00  0.00     0.000 OA
ATOM     73   O  A00 X   4      72.814 142.872 118.8940  0.00  0.00     0.000 O
ATOM     74   O  A00 X   4      74.879 141.774 119.4770  0.00  0.00     0.000 OA
ATOM     75   S  A00 X   4      73.510 141.861 119.8710  0.00  0.00     0.000 S
ENDBRANCH 62 70
ENDBRANCH 57 61
ENDBRANCH 41 57
ENDBRANCH 40 44
ENDBRANCH 20 40
ENDBRANCH 19 23
ENDBRANCH 1 19
TORSDOF 14
ENDMDL
MODEL 82
REMARK VINA RESULT:       0.1    103.294    107.809
ROOT
ATOM      1  C1  A00 X   1      75.101  67.776 134.2500  0.00  0.00     0.000 C
ATOM      2  C2  A00 X   1      73.846  68.098 133.3960  0.00  0.00     0.000 C
ATOM      3  C3  A00 X   1      73.932  67.725 131.8790  0.00  0.00     0.000 C
ATOM      4  C4  A00 X   1      75.357  67.431 131.3430  0.00  0.00     0.000 C
ATOM      5  C5  A00 X   1      76.443  68.069 132.2100  0.00  0.00     0.000 C
ATOM      6  O5  A00 X   1      76.297  67.440 133.5030  0.00  0.00     0.000 O
ATOM      7   O  A00 X   1      73.428  68.816 131.1110  0.00  0.00     0.000 O
ATOM      9  HD  A00 X   1      74.131  68.519 130.7020  0.00  0.00     0.000 HD
ATOM      9   O  A00 X   1      75.593  66.028 131.2310  0.00  0.00     0.000 O
ATOM     11  HD  A00 X   1      76.296  65.731 130.8220  0.00  0.00     0.000 HD
ENDROOT
BRANCH 2 11
ATOM     11   O  A00 X   1      72.726  67.408 133.9850  0.00  0.00     0.000 O
ATOM     12   O  A00 X   1      70.573  67.343 132.9230  0.00  0.00     0.000 OA
ATOM     13   O  A00 X   1      71.469  69.478 133.6670  0.00  0.00     0.000 OA
ATOM     14   O  A00 X   1      70.810  67.831 135.2510  0.00  0.00     0.000 OA
ATOM     15   S  A00 X   1      71.308  68.074 133.9240  0.00  0.00     0.000 S
ENDBRANCH 2 11
BRANCH 5 16
ATOM     16   C  A00 X   1      76.411  69.600 132.2650  0.00  0.00     0.000 C
ATOM     17   O  A00 X   1      77.096  70.165 133.0930  0.00  0.00     0.000 OA
ATOM     18   O  A00 X   1      75.733  70.265 131.5080  0.00  0.00     0.000 OA
ENDBRANCH 5 16
BRANCH 1 19
ATOM     19  O4  A00 X   2      75.371  68.785 135.2540  0.00  0.00     0.000 O
BRANCH 19 23
ATOM     20  C1  A00 X   2      76.533  65.940 138.2400  0.00  0.00     0.000 C
ATOM     21  C2  A00 X   2      75.085  66.483 138.2960  0.00  0.00     0.000 C
ATOM     22  C3  A00 X   2      74.689  67.132 136.9530  0.00  0.00     0.000 C
ATOM     23  C4  A00 X   2      75.719  68.209 136.5450  0.00  0.00     0.000 C
ATOM     24  C5  A00 X   2      77.124  67.547 136.5450  0.00  0.00     0.000 C
ATOM     25  O5  A00 X   2      77.404  67.044 137.8770  0.00  0.00     0.000 O
ATOM     26   O  A00 X   2      73.318  67.558 137.0330  0.00  0.00     0.000 O
ATOM     28  HD  A00 X   2      73.439  67.975 137.7820  0.00  0.00     0.000 HD
BRANCH 21 30
ATOM     28   N  A00 X   2      75.152  66.407 139.7590  0.00  0.00     0.000 N
ATOM     30  HD  A00 X   2      74.315  66.489 139.5500  0.00  0.00     0.000 HD
ATOM     30   O  A00 X   2      73.009  65.938 140.5620  0.00  0.00     0.000 OA
ATOM     31   S  A00 X   2      73.954  66.997 140.6050  0.00  0.00     0.000 S
ATOM     32   O  A00 X   2      74.534  67.237 141.8900  0.00  0.00     0.000 OA
ATOM     33   O  A00 X   2      73.572  68.234 139.9920  0.00  0.00     0.000 OA
ENDBRANCH 21 30
BRANCH 24 34
ATOM     34   C  A00 X   2      78.304  68.350 135.9490  0.00  0.00     0.000 C
ATOM     35   O  A00 X   2      79.348  71.629 137.1380  0.00  0.00     0.000 OA
ATOM     36   O  A00 X   2      78.261  69.729 136.3650  0.00  0.00     0.000 O
ATOM     37   O  A00 X   2      79.176  69.716 138.5180  0.00  0.00     0.000 OA
ATOM     38   S  A00 X   2      79.494  70.212 137.2140  0.00  0.00     0.000 S
ATOM     39   O  A00 X   2      80.660  69.687 136.5700  0.00  0.00     0.000 OA
ENDBRANCH 24 34
BRANCH 20 40
ATOM     40  O4  A00 X   3      76.539  64.959 137.1920  0.00  0.00     0.000 O
BRANCH 40 44
ATOM     41  C1  A00 X   3      78.256  63.679 134.2710  0.00  0.00     0.000 C
ATOM     42  C2  A00 X   3      76.911  63.142 134.8070  0.00  0.00     0.000 C
ATOM     43  C3  A00 X   3      77.004  62.827 136.3220  0.00  0.00     0.000 C
ATOM     44  C4  A00 X   3      77.576  63.956 137.1700  0.00  0.00     0.000 C
ATOM     45  C5  A00 X   3      78.928  64.437 136.5710  0.00  0.00     0.000 C
ATOM     46  O5  A00 X   3      78.797  64.713 135.1390  0.00  0.00     0.000 O
ATOM     47   O  A00 X   3      75.842  62.242 136.9080  0.00  0.00     0.000 O
ATOM     49  HD  A00 X   3      76.051  62.762 137.5680  0.00  0.00     0.000 HD
BRANCH 42 49
ATOM     49   O  A00 X   3      75.915  64.153 134.5370  0.00  0.00     0.000 O
ATOM     50   O  A00 X   3      73.582  64.448 134.9850  0.00  0.00     0.000 OA
ATOM     51   O  A00 X   3      74.353  62.319 134.3070  0.00  0.00     0.000 OA
ATOM     52   O  A00 X   3      74.405  64.087 132.7400  0.00  0.00     0.000 OA
ATOM     53   S  A00 X   3      74.473  63.743 134.1180  0.00  0.00     0.000 S
ENDBRANCH 42 49
BRANCH 45 54
ATOM     54   C  A00 X   3      80.071  63.468 136.8970  0.00  0.00     0.000 C
ATOM     55   O  A00 X   3      81.228  63.826 136.8180  0.00  0.00     0.000 OA
ATOM     56   O  A00 X   3      79.837  62.319 137.2410  0.00  0.00     0.000 OA
ENDBRANCH 45 54
BRANCH 41 57
ATOM     57  O4  A00 X   4      79.183  62.607 133.9860  0.00  0.00     0.000 O
BRANCH 57 61
ATOM     58  C1  A00 X   4      82.495  62.214 131.2440  0.00  0.00     0.000 C
ATOM     59  C2  A00 X   4      82.707  63.017 132.5510  0.00  0.00     0.000 C
ATOM     60  C3  A00 X   4      81.597  62.789 133.5990  0.00  0.00     0.000 C
ATOM     61  C4  A00 X   4      80.189  62.912 132.9780  0.00  0.00     0.000 C
ATOM     62  C5  A00 X   4      80.128  61.876 131.8290  0.00  0.00     0.000 C
ATOM     63  O5  A00 X   4      81.112  62.222 130.8210  0.00  0.00     0.000 O
BRANCH 59 66
ATOM     64   N  A00 X   4      82.684  64.459 132.2510  0.00  0.00     0.000 N
ATOM     66  HD  A00 X   4      82.227  64.717 131.5620  0.00  0.00     0.000 HD
ATOM     66   O  A00 X   4      84.996  64.258 131.6050  0.00  0.00     0.000 OA
ATOM     67   S  A00 X   4      84.081  65.228 132.1220  0.00  0.00     0.000 S
ATOM     68   O  A00 X   4      83.717  66.277 131.2160  0.00  0.00     0.000 OA
ATOM     69   O  A00 X   4      84.259  65.658 133.4800  0.00  0.00     0.000 OA
ENDBRANCH 59 66
BRANCH 62 70
ATOM     70   C  A00 X   4      78.743  61.769 131.1470  0.00  0.00     0.000 C
ATOM     71   O  A00 X   4      77.443  63.675 128.3570  0.00  0.00     0.000 OA
ATOM     72   O  A00 X   4      76.495  63.189 130.4560  0.00  0.00     0.000 OA
ATOM     73   O  A00 X   4      78.751  62.538 129.9330  0.00  0.00     0.000 O
ATOM     74   O  A00 X   4      78.253  64.868 130.2890  0.00  0.00     0.000 OA
ATOM     75   S  A00 X   4      77.676  63.669 129.7740  0.00  0.00     0.000 S
ENDBRANCH 62 70
ENDBRANCH 57 61
ENDBRANCH 41 57
ENDBRANCH 40 44
ENDBRANCH 20 40
ENDBRANCH 19 23
ENDBRANCH 1 19
TORSDOF 14
ENDMDL
MODEL 83
REMARK VINA RESULT:       0.1     98.790    102.723
ROOT
ATOM      1  C1  A00 X   1      17.813  57.282 123.9490  0.00  0.00     0.000 C
ATOM      2  C2  A00 X   1      16.834  58.372 124.4600  0.00  0.00     0.000 C
ATOM      3  C3  A00 X   1      17.320  59.213 125.6860  0.00  0.00     0.000 C
ATOM      4  C4  A00 X   1      18.528  58.627 126.4610  0.00  0.00     0.000 C
ATOM      5  C5  A00 X   1      18.676  57.121 126.2460  0.00  0.00     0.000 C
ATOM      6  O5  A00 X   1      18.923  56.975 124.8290  0.00  0.00     0.000 O
ATOM      7   O  A00 X   1      16.250  59.317 126.6220  0.00  0.00     0.000 O
ATOM      9  HD  A00 X   1      16.974  59.177 127.0770  0.00  0.00     0.000 HD
ATOM      9   O  A00 X   1      19.744  59.286 126.1100  0.00  0.00     0.000 O
ATOM     11  HD  A00 X   1      20.468  59.147 126.5640  0.00  0.00     0.000 HD
ENDROOT
BRANCH 2 11
ATOM     11   O  A00 X   1      16.557  59.262 123.3610  0.00  0.00     0.000 O
ATOM     12   O  A00 X   1      15.300  61.288 123.6520  0.00  0.00     0.000 OA
ATOM     13   O  A00 X   1      14.215  59.147 124.0460  0.00  0.00     0.000 OA
ATOM     14   O  A00 X   1      14.858  59.785 121.8470  0.00  0.00     0.000 OA
ATOM     15   S  A00 X   1      15.135  59.913 123.2520  0.00  0.00     0.000 S
ENDBRANCH 2 11
BRANCH 5 16
ATOM     16   C  A00 X   1      17.505  56.275 126.7550  0.00  0.00     0.000 C
ATOM     17   O  A00 X   1      17.448  55.106 126.4310  0.00  0.00     0.000 OA
ATOM     18   O  A00 X   1      16.637  56.729 127.4740  0.00  0.00     0.000 OA
ENDBRANCH 5 16
BRANCH 1 19
ATOM     19  O4  A00 X   2      17.135  56.078 123.5140  0.00  0.00     0.000 O
BRANCH 19 23
ATOM     20  C1  A00 X   2      19.730  55.463 120.1600  0.00  0.00     0.000 C
ATOM     21  C2  A00 X   2      18.368  56.148 119.8930  0.00  0.00     0.000 C
ATOM     22  C3  A00 X   2      17.756  56.683 121.2050  0.00  0.00     0.000 C
ATOM     23  C4  A00 X   2      17.666  55.559 122.2610  0.00  0.00     0.000 C
ATOM     24  C5  A00 X   2      19.083  54.944 122.4220  0.00  0.00     0.000 C
ATOM     25  O5  A00 X   2      19.511  54.414 121.1410  0.00  0.00     0.000 O
ATOM     26   O  A00 X   2      16.530  57.368 120.8960  0.00  0.00     0.000 O
ATOM     28  HD  A00 X   2      16.223  56.711 120.4240  0.00  0.00     0.000 HD
BRANCH 21 30
ATOM     28   N  A00 X   2      18.324  55.472 118.5930  0.00  0.00     0.000 N
ATOM     30  HD  A00 X   2      17.734  56.106 118.5660  0.00  0.00     0.000 HD
ATOM     30   O  A00 X   2      17.189  56.856 117.0910  0.00  0.00     0.000 OA
ATOM     31   S  A00 X   2      17.013  55.594 117.7180  0.00  0.00     0.000 S
ATOM     32   O  A00 X   2      17.085  54.468 116.8400  0.00  0.00     0.000 OA
ATOM     33   O  A00 X   2      15.897  55.461 118.6070  0.00  0.00     0.000 OA
ENDBRANCH 21 30
BRANCH 24 34
ATOM     34   C  A00 X   2      19.316  53.952 123.5860  0.00  0.00     0.000 C
ATOM     35   O  A00 X   2      17.427  50.874 124.0520  0.00  0.00     0.000 OA
ATOM     36   O  A00 X   2      18.213  53.032 123.7170  0.00  0.00     0.000 O
ATOM     37   O  A00 X   2      18.609  51.413 122.0750  0.00  0.00     0.000 OA
ATOM     38   S  A00 X   2      18.576  51.517 123.5020  0.00  0.00     0.000 S
ATOM     39   O  A00 X   2      19.798  51.288 124.2130  0.00  0.00     0.000 OA
ENDBRANCH 24 34
BRANCH 20 40
ATOM     40  O4  A00 X   3      20.571  56.479 120.7240  0.00  0.00     0.000 O
BRANCH 40 44
ATOM     41  C1  A00 X   3      22.946  57.326 123.3250  0.00  0.00     0.000 C
ATOM     42  C2  A00 X   3      22.413  58.314 122.2650  0.00  0.00     0.000 C
ATOM     43  C3  A00 X   3      22.558  57.727 120.8370  0.00  0.00     0.000 C
ATOM     44  C4  A00 X   3      22.005  56.317 120.6720  0.00  0.00     0.000 C
ATOM     45  C5  A00 X   3      22.591  55.384 121.7690  0.00  0.00     0.000 C
ATOM     46  O5  A00 X   3      22.441  55.982 123.0980  0.00  0.00     0.000 O
ATOM     47   O  A00 X   3      22.177  58.590 119.7670  0.00  0.00     0.000 O
ATOM     49  HD  A00 X   3      21.859  57.855 119.4370  0.00  0.00     0.000 HD
BRANCH 42 49
ATOM     49   O  A00 X   3      21.030  58.577 122.5890  0.00  0.00     0.000 O
ATOM     50   O  A00 X   3      19.234  59.836 121.6290  0.00  0.00     0.000 OA
ATOM     51   O  A00 X   3      21.401  60.781 121.6620  0.00  0.00     0.000 OA
ATOM     52   O  A00 X   3      20.267  60.491 123.7150  0.00  0.00     0.000 OA
ATOM     53   S  A00 X   3      20.433  60.000 122.3900  0.00  0.00     0.000 S
ENDBRANCH 42 49
BRANCH 45 54
ATOM     54   C  A00 X   3      24.033  54.971 121.4520  0.00  0.00     0.000 C
ATOM     55   O  A00 X   3      24.698  55.604 120.6580  0.00  0.00     0.000 OA
ATOM     56   O  A00 X   3      24.538  53.998 121.9910  0.00  0.00     0.000 OA
ENDBRANCH 45 54
BRANCH 41 57
ATOM     57  O4  A00 X   4      24.384  57.400 123.4480  0.00  0.00     0.000 O
BRANCH 57 61
ATOM     58  C1  A00 X   4      27.122  56.567 126.6800  0.00  0.00     0.000 C
ATOM     59  C2  A00 X   4      26.531  55.377 125.8840  0.00  0.00     0.000 C
ATOM     60  C3  A00 X   4      25.870  55.795 124.5550  0.00  0.00     0.000 C
ATOM     61  C4  A00 X   4      24.916  56.994 124.7410  0.00  0.00     0.000 C
ATOM     62  C5  A00 X   4      25.765  58.135 125.3540  0.00  0.00     0.000 C
ATOM     63  O5  A00 X   4      26.251  57.721 126.6560  0.00  0.00     0.000 O
BRANCH 59 66
ATOM     64   N  A00 X   4      25.466  54.735 126.6760  0.00  0.00     0.000 N
ATOM     66  HD  A00 X   4      25.040  55.228 127.2470  0.00  0.00     0.000 HD
ATOM     66   O  A00 X   4      27.197  53.532 127.8420  0.00  0.00     0.000 OA
ATOM     67   S  A00 X   4      25.821  53.397 127.4780  0.00  0.00     0.000 S
ATOM     68   O  A00 X   4      24.885  53.489 128.5600  0.00  0.00     0.000 OA
ATOM     69   O  A00 X   4      25.483  52.413 126.4890  0.00  0.00     0.000 OA
ENDBRANCH 59 66
BRANCH 62 70
ATOM     70   C  A00 X   4      25.004  59.473 125.5160  0.00  0.00     0.000 C
ATOM     71   O  A00 X   4      23.004  60.613 128.3100  0.00  0.00     0.000 OA
ATOM     72   O  A00 X   4      22.536  60.576 126.0030  0.00  0.00     0.000 OA
ATOM     73   O  A00 X   4      24.555  59.602 126.8750  0.00  0.00     0.000 O
ATOM     74   O  A00 X   4      22.450  58.503 127.2820  0.00  0.00     0.000 OA
ATOM     75   S  A00 X   4      23.020  59.802 127.1250  0.00  0.00     0.000 S
ENDBRANCH 62 70
ENDBRANCH 57 61
ENDBRANCH 41 57
ENDBRANCH 40 44
ENDBRANCH 20 40
ENDBRANCH 19 23
ENDBRANCH 1 19
TORSDOF 14
ENDMDL
MODEL 84
REMARK VINA RESULT:       0.1     51.394     54.786
ROOT
ATOM      1  C1  A00 X   1      58.459  66.911  16.2770  0.00  0.00     0.000 C
ATOM      2  C2  A00 X   1      57.022  67.480  16.4150  0.00  0.00     0.000 C
ATOM      3  C3  A00 X   1      56.090  66.751  17.4380  0.00  0.00     0.000 C
ATOM      4  C4  A00 X   1      56.574  65.356  17.9070  0.00  0.00     0.000 C
ATOM      5  C5  A00 X   1      57.547  64.719  16.9150  0.00  0.00     0.000 C
ATOM      6  O5  A00 X   1      58.681  65.615  16.8860  0.00  0.00     0.000 O
ATOM      7   O  A00 X   1      54.813  66.555  16.8340  0.00  0.00     0.000 O
ATOM      9  HD  A00 X   1      55.005  65.830  17.2660  0.00  0.00     0.000 HD
ATOM      9   O  A00 X   1      57.176  65.420  19.2000  0.00  0.00     0.000 O
ATOM     11  HD  A00 X   1      57.368  64.695  19.6330  0.00  0.00     0.000 HD
ENDROOT
BRANCH 2 11
ATOM     11   O  A00 X   1      57.133  68.868  16.7870  0.00  0.00     0.000 O
ATOM     12   O  A00 X   1      55.214  70.179  17.3900  0.00  0.00     0.000 OA
ATOM     13   O  A00 X   1      55.395  69.303  15.1280  0.00  0.00     0.000 OA
ATOM     14   O  A00 X   1      56.875  71.005  15.8830  0.00  0.00     0.000 OA
ATOM     15   S  A00 X   1      56.060  69.882  16.2620  0.00  0.00     0.000 S
ENDBRANCH 2 11
BRANCH 5 16
ATOM     16   C  A00 X   1      56.961  64.426  15.5300  0.00  0.00     0.000 C
ATOM     17   O  A00 X   1      55.754  64.401  15.4030  0.00  0.00     0.000 OA
ATOM     18   O  A00 X   1      57.659  64.224  14.5570  0.00  0.00     0.000 OA
ENDBRANCH 5 16
BRANCH 1 19
ATOM     19  O4  A00 X   2      58.948  66.945  14.9140  0.00  0.00     0.000 O
BRANCH 19 23
ATOM     20  C1  A00 X   2      62.930  68.055  16.0430  0.00  0.00     0.000 C
ATOM     21  C2  A00 X   2      61.976  69.185  15.5870  0.00  0.00     0.000 C
ATOM     22  C3  A00 X   2      60.507  68.716  15.6360  0.00  0.00     0.000 C
ATOM     23  C4  A00 X   2      60.324  67.413  14.8250  0.00  0.00     0.000 C
ATOM     24  C5  A00 X   2      61.345  66.373  15.3630  0.00  0.00     0.000 C
ATOM     25  O5  A00 X   2      62.685  66.902  15.1940  0.00  0.00     0.000 O
ATOM     26   O  A00 X   2      59.658  69.818  15.2710  0.00  0.00     0.000 O
ATOM     28  HD  A00 X   2      60.111  69.995  14.5540  0.00  0.00     0.000 HD
BRANCH 21 30
ATOM     28   N  A00 X   2      63.129  69.865  14.9880  0.00  0.00     0.000 N
ATOM     30  HD  A00 X   2      62.491  70.449  15.0390  0.00  0.00     0.000 HD
ATOM     30   O  A00 X   2      62.761  72.169  15.1160  0.00  0.00     0.000 OA
ATOM     31   S  A00 X   2      62.878  71.162  14.1210  0.00  0.00     0.000 S
ATOM     32   O  A00 X   2      64.047  71.255  13.3030  0.00  0.00     0.000 OA
ATOM     33   O  A00 X   2      61.723  70.913  13.3110  0.00  0.00     0.000 OA
ENDBRANCH 21 30
BRANCH 24 34
ATOM     34   C  A00 X   2      61.214  64.910  14.8770  0.00  0.00     0.000 C
ATOM     35   O  A00 X   2      63.751  63.176  12.9230  0.00  0.00     0.000 OA
ATOM     36   O  A00 X   2      62.181  64.613  13.8490  0.00  0.00     0.000 O
ATOM     37   O  A00 X   2      64.163  64.193  15.0180  0.00  0.00     0.000 OA
ATOM     38   S  A00 X   2      63.217  63.487  14.2090  0.00  0.00     0.000 S
ATOM     39   O  A00 X   2      62.472  62.432  14.8280  0.00  0.00     0.000 OA
ENDBRANCH 24 34
BRANCH 20 40
ATOM     40  O4  A00 X   3      62.550  67.747  17.3920  0.00  0.00     0.000 O
BRANCH 40 44
ATOM     41  C1  A00 X   3      61.850  65.178  19.8480  0.00  0.00     0.000 C
ATOM     42  C2  A00 X   3      61.731  66.696  20.1040  0.00  0.00     0.000 C
ATOM     43  C3  A00 X   3      63.024  67.435  19.6710  0.00  0.00     0.000 C
ATOM     44  C4  A00 X   3      63.503  67.102  18.2640  0.00  0.00     0.000 C
ATOM     45  C5  A00 X   3      63.602  65.561  18.0860  0.00  0.00     0.000 C
ATOM     46  O5  A00 X   3      62.365  64.904  18.5160  0.00  0.00     0.000 O
ATOM     47   O  A00 X   3      63.062  68.835  19.9420  0.00  0.00     0.000 O
ATOM     49  HD  A00 X   3      63.451  68.859  19.1680  0.00  0.00     0.000 HD
BRANCH 42 49
ATOM     49   O  A00 X   3      60.584  67.162  19.3610  0.00  0.00     0.000 O
ATOM     50   O  A00 X   3      59.525  69.269  18.9490  0.00  0.00     0.000 OA
ATOM     51   O  A00 X   3      60.304  68.791  21.1290  0.00  0.00     0.000 OA
ATOM     52   O  A00 X   3      58.466  67.561  20.2940  0.00  0.00     0.000 OA
ATOM     53   S  A00 X   3      59.656  68.262  19.9550  0.00  0.00     0.000 S
ENDBRANCH 42 49
BRANCH 45 54
ATOM     54   C  A00 X   3      64.854  64.990  18.7630  0.00  0.00     0.000 C
ATOM     55   O  A00 X   3      65.295  63.907  18.4370  0.00  0.00     0.000 OA
ATOM     56   O  A00 X   3      65.428  65.614  19.6420  0.00  0.00     0.000 OA
ENDBRANCH 45 54
BRANCH 41 57
ATOM     57  O4  A00 X   4      62.577  64.514  20.9060  0.00  0.00     0.000 O
BRANCH 57 61
ATOM     58  C1  A00 X   4      62.579  60.463  22.3990  0.00  0.00     0.000 C
ATOM     59  C2  A00 X   4      63.352  60.772  21.0930  0.00  0.00     0.000 C
ATOM     60  C3  A00 X   4      63.582  62.278  20.8560  0.00  0.00     0.000 C
ATOM     61  C4  A00 X   4      62.288  63.095  21.0580  0.00  0.00     0.000 C
ATOM     62  C5  A00 X   4      61.805  62.797  22.5000  0.00  0.00     0.000 C
ATOM     63  O5  A00 X   4      61.488  61.387  22.6150  0.00  0.00     0.000 O
BRANCH 59 66
ATOM     64   N  A00 X   4      62.585  60.304  19.9240  0.00  0.00     0.000 N
ATOM     66  HD  A00 X   4      61.722  60.273  19.9980  0.00  0.00     0.000 HD
ATOM     66   O  A00 X   4      63.472  58.106  20.3470  0.00  0.00     0.000 OA
ATOM     67   S  A00 X   4      62.988  58.904  19.2650  0.00  0.00     0.000 S
ATOM     68   O  A00 X   4      61.724  58.502  18.7190  0.00  0.00     0.000 OA
ATOM     69   O  A00 X   4      63.937  59.350  18.2840  0.00  0.00     0.000 OA
ENDBRANCH 59 66
BRANCH 62 70
ATOM     70   C  A00 X   4      60.567  63.617  22.9330  0.00  0.00     0.000 C
ATOM     71   O  A00 X   4      57.065  62.890  22.3720  0.00  0.00     0.000 OA
ATOM     72   O  A00 X   4      58.299  64.864  22.0140  0.00  0.00     0.000 OA
ATOM     73   O  A00 X   4      59.381  62.835  22.7190  0.00  0.00     0.000 O
ATOM     74   O  A00 X   4      58.539  62.996  20.4670  0.00  0.00     0.000 OA
ATOM     75   S  A00 X   4      58.263  63.434  21.7970  0.00  0.00     0.000 S
ENDBRANCH 62 70
ENDBRANCH 57 61
ENDBRANCH 41 57
ENDBRANCH 40 44
ENDBRANCH 20 40
ENDBRANCH 19 23
ENDBRANCH 1 19
TORSDOF 14
ENDMDL
MODEL 85
REMARK VINA RESULT:       0.1    131.937    135.697
ROOT
ATOM      1  C1  A00 X   1     133.401 115.369 146.1030  0.00  0.00     0.000 C
ATOM      2  C2  A00 X   1     132.262 115.299 147.1540  0.00  0.00     0.000 C
ATOM      3  C3  A00 X   1     132.682 115.544 148.6410  0.00  0.00     0.000 C
ATOM      4  C4  A00 X   1     134.204 115.460 148.9280  0.00  0.00     0.000 C
ATOM      5  C5  A00 X   1     134.946 114.641 147.8720  0.00  0.00     0.000 C
ATOM      6  O5  A00 X   1     134.748 115.366 146.6380  0.00  0.00     0.000 O
ATOM      7   O  A00 X   1     132.061 114.556 149.4610  0.00  0.00     0.000 O
ATOM      9  HD  A00 X   1     132.872 114.653 149.7480  0.00  0.00     0.000 HD
ATOM      9   O  A00 X   1     134.788 116.758 149.0290  0.00  0.00     0.000 O
ATOM     11  HD  A00 X   1     135.599 116.855 149.3160  0.00  0.00     0.000 HD
ENDROOT
BRANCH 2 11
ATOM     11   O  A00 X   1     131.262 116.268 146.7840  0.00  0.00     0.000 O
ATOM     12   O  A00 X   1     129.395 116.776 148.2070  0.00  0.00     0.000 OA
ATOM     13   O  A00 X   1     129.609 114.538 147.2760  0.00  0.00     0.000 OA
ATOM     14   O  A00 X   1     129.119 116.389 145.8640  0.00  0.00     0.000 OA
ATOM     15   S  A00 X   1     129.755 115.954 147.0790  0.00  0.00     0.000 S
ENDBRANCH 2 11
BRANCH 5 16
ATOM     16   C  A00 X   1     134.535 113.167 147.7890  0.00  0.00     0.000 C
ATOM     17   O  A00 X   1     133.932 112.678 148.7220  0.00  0.00     0.000 OA
ATOM     18   O  A00 X   1     134.785 112.474 146.8230  0.00  0.00     0.000 OA
ENDBRANCH 5 16
BRANCH 1 19
ATOM     19  O4  A00 X   2     133.250 114.391 145.0460  0.00  0.00     0.000 O
BRANCH 19 23
ATOM     20  C1  A00 X   2     134.584 117.056 141.9660  0.00  0.00     0.000 C
ATOM     21  C2  A00 X   2     133.056 116.893 142.1590  0.00  0.00     0.000 C
ATOM     22  C3  A00 X   2     132.739 116.273 143.5350  0.00  0.00     0.000 C
ATOM     23  C4  A00 X   2     133.512 114.949 143.7260  0.00  0.00     0.000 C
ATOM     24  C5  A00 X   2     135.019 115.241 143.4900  0.00  0.00     0.000 C
ATOM     25  O5  A00 X   2     135.191 115.748 142.1410  0.00  0.00     0.000 O
ATOM     26   O  A00 X   2     131.311 116.207 143.6930  0.00  0.00     0.000 O
ATOM     28  HD  A00 X   2     131.194 115.824 142.9250  0.00  0.00     0.000 HD
BRANCH 21 30
ATOM     28   N  A00 X   2     132.895 117.052 140.7100  0.00  0.00     0.000 N
ATOM     30  HD  A00 X   2     132.113 117.164 141.0630  0.00  0.00     0.000 HD
ATOM     30   O  A00 X   2     130.839 118.089 140.3160  0.00  0.00     0.000 OA
ATOM     31   S  A00 X   2     131.463 116.836 140.0780  0.00  0.00     0.000 S
ATOM     32   O  A00 X   2     131.739 116.550 138.7040  0.00  0.00     0.000 OA
ATOM     33   O  A00 X   2     130.886 115.691 140.7180  0.00  0.00     0.000 OA
ENDBRANCH 21 30
BRANCH 24 34
ATOM     34   C  A00 X   2     136.038 114.132 143.8450  0.00  0.00     0.000 C
ATOM     35   O  A00 X   2     138.176 112.470 141.4110  0.00  0.00     0.000 OA
ATOM     36   O  A00 X   2     136.473 113.425 142.6660  0.00  0.00     0.000 O
ATOM     37   O  A00 X   2     138.103 114.813 141.7240  0.00  0.00     0.000 OA
ATOM     38   S  A00 X   2     138.010 113.529 142.3510  0.00  0.00     0.000 S
ATOM     39   O  A00 X   2     138.692 113.348 143.5970  0.00  0.00     0.000 OA
ENDBRANCH 24 34
BRANCH 20 40
ATOM     40  O4  A00 X   3     135.016 117.930 143.0180  0.00  0.00     0.000 O
BRANCH 40 44
ATOM     41  C1  A00 X   3     137.464 118.618 145.5990  0.00  0.00     0.000 C
ATOM     42  C2  A00 X   3     136.215 119.481 145.3190  0.00  0.00     0.000 C
ATOM     43  C3  A00 X   3     136.119 119.846 143.8150  0.00  0.00     0.000 C
ATOM     44  C4  A00 X   3     136.251 118.662 142.8660  0.00  0.00     0.000 C
ATOM     45  C5  A00 X   3     137.531 117.848 143.2070  0.00  0.00     0.000 C
ATOM     46  O5  A00 X   3     137.586 117.534 144.6360  0.00  0.00     0.000 O
ATOM     47   O  A00 X   3     135.048 120.716 143.4530  0.00  0.00     0.000 O
ATOM     49  HD  A00 X   3     135.010 120.197 142.7600  0.00  0.00     0.000 HD
BRANCH 42 49
ATOM     49   O  A00 X   3     135.068 118.717 145.7510  0.00  0.00     0.000 O
ATOM     50   O  A00 X   3     132.690 118.996 145.7220  0.00  0.00     0.000 OA
ATOM     51   O  A00 X   3     134.050 120.850 146.2730  0.00  0.00     0.000 OA
ATOM     52   O  A00 X   3     133.945 119.039 147.7880  0.00  0.00     0.000 OA
ATOM     53   S  A00 X   3     133.858 119.429 146.4230  0.00  0.00     0.000 S
ENDBRANCH 42 49
BRANCH 45 54
ATOM     54   C  A00 X   3     138.799 118.540 142.6920  0.00  0.00     0.000 C
ATOM     55   O  A00 X   3     139.818 117.907 142.5050  0.00  0.00     0.000 OA
ATOM     56   O  A00 X   3     138.806 119.740 142.4620  0.00  0.00     0.000 OA
ENDBRANCH 45 54
BRANCH 41 57
ATOM     57  O4  A00 X   4     138.655 119.427 145.7250  0.00  0.00     0.000 O
BRANCH 57 61
ATOM     58  C1  A00 X   4     142.424 118.845 147.7480  0.00  0.00     0.000 C
ATOM     59  C2  A00 X   4     142.193 118.132 146.3930  0.00  0.00     0.000 C
ATOM     60  C3  A00 X   4     140.989 118.687 145.6040  0.00  0.00     0.000 C
ATOM     61  C4  A00 X   4     139.734 118.823 146.4930  0.00  0.00     0.000 C
ATOM     62  C5  A00 X   4     140.134 119.744 147.6720  0.00  0.00     0.000 C
ATOM     63  O5  A00 X   4     141.183 119.104 148.4430  0.00  0.00     0.000 O
BRANCH 59 66
ATOM     64   N  A00 X   4     141.895 116.703 146.5980  0.00  0.00     0.000 N
ATOM     66  HD  A00 X   4     141.516 116.476 147.3430  0.00  0.00     0.000 HD
ATOM     66   O  A00 X   4     144.267 116.340 146.8010  0.00  0.00     0.000 OA
ATOM     67   S  A00 X   4     143.080 115.647 146.4070  0.00  0.00     0.000 S
ATOM     68   O  A00 X   4     142.648 114.608 147.2960  0.00  0.00     0.000 OA
ATOM     69   O  A00 X   4     142.919 115.334 145.0150  0.00  0.00     0.000 OA
ENDBRANCH 59 66
BRANCH 62 70
ATOM     70   C  A00 X   4     138.966 120.093 148.6260  0.00  0.00     0.000 C
ATOM     71   O  A00 X   4     137.692 118.191 151.4300  0.00  0.00     0.000 OA
ATOM     72   O  A00 X   4     136.569 119.193 149.6190  0.00  0.00     0.000 OA
ATOM     73   O  A00 X   4     138.972 119.181 149.7360  0.00  0.00     0.000 O
ATOM     74   O  A00 X   4     137.808 117.123 149.2710  0.00  0.00     0.000 OA
ATOM     75   S  A00 X   4     137.674 118.342 150.0030  0.00  0.00     0.000 S
ENDBRANCH 62 70
ENDBRANCH 57 61
ENDBRANCH 41 57
ENDBRANCH 40 44
ENDBRANCH 20 40
ENDBRANCH 19 23
ENDBRANCH 1 19
TORSDOF 14
ENDMDL
MODEL 86
REMARK VINA RESULT:       0.1     88.742     92.437
ROOT
ATOM      1  C1  A00 X   1      86.205 141.251 124.2210  0.00  0.00     0.000 C
ATOM      2  C2  A00 X   1      85.855 142.128 125.4530  0.00  0.00     0.000 C
ATOM      3  C3  A00 X   1      84.405 142.712 125.4910  0.00  0.00     0.000 C
ATOM      4  C4  A00 X   1      83.627 142.659 124.1500  0.00  0.00     0.000 C
ATOM      5  C5  A00 X   1      84.562 142.562 122.9440  0.00  0.00     0.000 C
ATOM      6  O5  A00 X   1      85.262 141.310 123.1220  0.00  0.00     0.000 O
ATOM      7   O  A00 X   1      84.475 144.086 125.8640  0.00  0.00     0.000 O
ATOM      9  HD  A00 X   1      83.887 144.023 125.2310  0.00  0.00     0.000 HD
ATOM      9   O  A00 X   1      82.698 141.575 124.1290  0.00  0.00     0.000 O
ATOM     11  HD  A00 X   1      82.110 141.512 123.4960  0.00  0.00     0.000 HD
ENDROOT
BRANCH 2 11
ATOM     11   O  A00 X   1      86.071 141.330 126.6330  0.00  0.00     0.000 O
ATOM     12   O  A00 X   1      85.399 142.081 128.8130  0.00  0.00     0.000 OA
ATOM     13   O  A00 X   1      87.114 143.314 127.6060  0.00  0.00     0.000 OA
ATOM     14   O  A00 X   1      87.554 141.125 128.4250  0.00  0.00     0.000 OA
ATOM     15   S  A00 X   1      86.550 142.037 127.9480  0.00  0.00     0.000 S
ENDBRANCH 2 11
BRANCH 5 16
ATOM     16   C  A00 X   1      85.493 143.762 122.7480  0.00  0.00     0.000 C
ATOM     17   O  A00 X   1      85.244 144.794 123.3380  0.00  0.00     0.000 OA
ATOM     18   O  A00 X   1      86.473 143.717 122.0320  0.00  0.00     0.000 OA
ENDBRANCH 5 16
BRANCH 1 19
ATOM     19  O4  A00 X   2      87.565 141.447 123.7600  0.00  0.00     0.000 O
BRANCH 19 23
ATOM     20  C1  A00 X   2      88.245 137.283 123.0130  0.00  0.00     0.000 C
ATOM     21  C2  A00 X   2      88.742 137.857 124.3620  0.00  0.00     0.000 C
ATOM     22  C3  A00 X   2      88.061 139.208 124.6680  0.00  0.00     0.000 C
ATOM     23  C4  A00 X   2      88.251 140.191 123.4910  0.00  0.00     0.000 C
ATOM     24  C5  A00 X   2      87.734 139.494 122.2030  0.00  0.00     0.000 C
ATOM     25  O5  A00 X   2      88.501 138.280 121.9890  0.00  0.00     0.000 O
ATOM     26   O  A00 X   2      88.502 139.665 125.9580  0.00  0.00     0.000 O
ATOM     28  HD  A00 X   2      89.340 139.550 125.7680  0.00  0.00     0.000 HD
BRANCH 21 30
ATOM     28   N  A00 X   2      89.853 136.903 124.2920  0.00  0.00     0.000 N
ATOM     30  HD  A00 X   2      89.835 137.208 125.1020  0.00  0.00     0.000 HD
ATOM     30   O  A00 X   2      90.469 136.342 126.4750  0.00  0.00     0.000 OA
ATOM     31   S  A00 X   2      91.019 137.017 125.3530  0.00  0.00     0.000 S
ATOM     32   O  A00 X   2      92.116 136.348 124.7230  0.00  0.00     0.000 OA
ATOM     33   O  A00 X   2      91.312 138.410 125.5120  0.00  0.00     0.000 OA
ENDBRANCH 21 30
BRANCH 24 34
ATOM     34   C  A00 X   2      87.599 140.348 120.9200  0.00  0.00     0.000 C
ATOM     35   O  A00 X   2      90.349 142.174 119.3840  0.00  0.00     0.000 OA
ATOM     36   O  A00 X   2      88.733 141.221 120.7510  0.00  0.00     0.000 O
ATOM     37   O  A00 X   2      90.390 139.852 119.8300  0.00  0.00     0.000 OA
ATOM     38   S  A00 X   2      89.584 140.973 119.4530  0.00  0.00     0.000 S
ATOM     39   O  A00 X   2      88.648 140.787 118.3850  0.00  0.00     0.000 OA
ENDBRANCH 24 34
BRANCH 20 40
ATOM     40  O4  A00 X   3      86.829 137.104 123.1660  0.00  0.00     0.000 O
BRANCH 40 44
ATOM     41  C1  A00 X   3      83.508 137.533 121.7840  0.00  0.00     0.000 C
ATOM     42  C2  A00 X   3      83.813 136.920 123.1680  0.00  0.00     0.000 C
ATOM     43  C3  A00 X   3      84.879 135.799 123.0560  0.00  0.00     0.000 C
ATOM     44  C4  A00 X   3      86.134 136.193 122.2880  0.00  0.00     0.000 C
ATOM     45  C5  A00 X   3      85.746 136.796 120.9080  0.00  0.00     0.000 C
ATOM     46  O5  A00 X   3      84.732 137.841 121.0600  0.00  0.00     0.000 O
ATOM     47   O  A00 X   3      85.177 135.101 124.2630  0.00  0.00     0.000 O
ATOM     49  HD  A00 X   3      85.984 135.136 123.9520  0.00  0.00     0.000 HD
BRANCH 42 49
ATOM     49   O  A00 X   3      84.267 137.997 124.0170  0.00  0.00     0.000 O
ATOM     50   O  A00 X   3      85.065 138.213 126.2640  0.00  0.00     0.000 OA
ATOM     51   O  A00 X   3      83.235 136.779 125.8360  0.00  0.00     0.000 OA
ATOM     52   O  A00 X   3      82.923 139.109 125.5890  0.00  0.00     0.000 OA
ATOM     53   S  A00 X   3      83.858 138.040 125.5180  0.00  0.00     0.000 S
ENDBRANCH 42 49
BRANCH 45 54
ATOM     54   C  A00 X   3      85.344 135.707 119.9060  0.00  0.00     0.000 C
ATOM     55   O  A00 X   3      85.353 134.536 120.2280  0.00  0.00     0.000 OA
ATOM     56   O  A00 X   3      85.011 135.996 118.7670  0.00  0.00     0.000 OA
ENDBRANCH 45 54
BRANCH 41 57
ATOM     57  O4  A00 X   4      82.571 136.725 121.0370  0.00  0.00     0.000 O
BRANCH 57 61
ATOM     58  C1  A00 X   4      79.566 137.675 118.0860  0.00  0.00     0.000 C
ATOM     59  C2  A00 X   4      81.050 137.973 117.7560  0.00  0.00     0.000 C
ATOM     60  C3  A00 X   4      82.044 137.276 118.7070  0.00  0.00     0.000 C
ATOM     61  C4  A00 X   4      81.653 137.470 120.1880  0.00  0.00     0.000 C
ATOM     62  C5  A00 X   4      80.215 136.912 120.3350  0.00  0.00     0.000 C
ATOM     63  O5  A00 X   4      79.314 137.694 119.5100  0.00  0.00     0.000 O
BRANCH 59 66
ATOM     64   N  A00 X   4      81.296 139.419 117.9040  0.00  0.00     0.000 N
ATOM     66  HD  A00 X   4      80.794 139.855 118.4590  0.00  0.00     0.000 HD
ATOM     66   O  A00 X   4      80.406 139.696 115.6830  0.00  0.00     0.000 OA
ATOM     67   S  A00 X   4      81.323 140.321 116.5830  0.00  0.00     0.000 S
ATOM     68   O  A00 X   4      80.897 141.580 117.1220  0.00  0.00     0.000 OA
ATOM     69   O  A00 X   4      82.721 140.261 116.2650  0.00  0.00     0.000 OA
ENDBRANCH 59 66
BRANCH 62 70
ATOM     70   C  A00 X   4      79.681 136.918 121.7880  0.00  0.00     0.000 C
ATOM     71   O  A00 X   4      78.691 139.744 123.8230  0.00  0.00     0.000 OA
ATOM     72   O  A00 X   4      80.111 137.928 124.3050  0.00  0.00     0.000 OA
ATOM     73   O  A00 X   4      79.184 138.228 122.1060  0.00  0.00     0.000 O
ATOM     74   O  A00 X   4      80.906 139.730 122.8700  0.00  0.00     0.000 OA
ATOM     75   S  A00 X   4      79.799 138.965 123.3460  0.00  0.00     0.000 S
ENDBRANCH 62 70
ENDBRANCH 57 61
ENDBRANCH 41 57
ENDBRANCH 40 44
ENDBRANCH 20 40
ENDBRANCH 19 23
ENDBRANCH 1 19
TORSDOF 14
ENDMDL
MODEL 87
REMARK VINA RESULT:       0.1     89.074     92.783
ROOT
ATOM      1  C1  A00 X   1      86.205 141.251 124.2210  0.00  0.00     0.000 C
ATOM      2  C2  A00 X   1      85.323 142.231 125.0400  0.00  0.00     0.000 C
ATOM      3  C3  A00 X   1      83.956 142.629 124.3930  0.00  0.00     0.000 C
ATOM      4  C4  A00 X   1      83.810 142.303 122.8840  0.00  0.00     0.000 C
ATOM      5  C5  A00 X   1      85.165 142.167 122.1900  0.00  0.00     0.000 C
ATOM      6  O5  A00 X   1      85.802 141.047 122.8440  0.00  0.00     0.000 O
ATOM      7   O  A00 X   1      83.782 144.038 124.5220  0.00  0.00     0.000 O
ATOM      9  HD  A00 X   1      83.515 143.819 123.7280  0.00  0.00     0.000 HD
ATOM      9   O  A00 X   1      83.041 141.119 122.6780  0.00  0.00     0.000 O
ATOM     11  HD  A00 X   1      82.773 140.900 121.8840  0.00  0.00     0.000 HD
ENDROOT
BRANCH 2 11
ATOM     11   O  A00 X   1      85.077 141.629 126.3250  0.00  0.00     0.000 O
ATOM     12   O  A00 X   1      83.516 142.569 127.8900  0.00  0.00     0.000 OA
ATOM     13   O  A00 X   1      85.500 143.837 127.2790  0.00  0.00     0.000 OA
ATOM     14   O  A00 X   1      85.692 141.847 128.5670  0.00  0.00     0.000 OA
ATOM     15   S  A00 X   1      84.924 142.556 127.5800  0.00  0.00     0.000 S
ENDBRANCH 2 11
BRANCH 5 16
ATOM     16   C  A00 X   1      86.019 143.439 122.1810  0.00  0.00     0.000 C
ATOM     17   O  A00 X   1      85.486 144.499 122.4350  0.00  0.00     0.000 OA
ATOM     18   O  A00 X   1      87.209 143.422 121.9360  0.00  0.00     0.000 OA
ENDBRANCH 5 16
BRANCH 1 19
ATOM     19  O4  A00 X   2      87.619 141.554 124.3170  0.00  0.00     0.000 O
BRANCH 19 23
ATOM     20  C1  A00 X   2      88.797 137.446 124.6290  0.00  0.00     0.000 C
ATOM     21  C2  A00 X   2      88.653 138.249 125.9440  0.00  0.00     0.000 C
ATOM     22  C3  A00 X   2      87.827 139.533 125.7160  0.00  0.00     0.000 C
ATOM     23  C4  A00 X   2      88.429 140.369 124.5640  0.00  0.00     0.000 C
ATOM     24  C5  A00 X   2      88.537 139.450 123.3170  0.00  0.00     0.000 C
ATOM     25  O5  A00 X   2      89.395 138.324 123.6390  0.00  0.00     0.000 O
ATOM     26   O  A00 X   2      87.664 140.206 126.9760  0.00  0.00     0.000 O
ATOM     28  HD  A00 X   2      88.510 140.173 127.1600  0.00  0.00     0.000 HD
BRANCH 21 30
ATOM     28   N  A00 X   2      89.748 137.440 126.4890  0.00  0.00     0.000 N
ATOM     30  HD  A00 X   2      89.377 137.845 127.1590  0.00  0.00     0.000 HD
ATOM     30   O  A00 X   2      89.435 137.253 128.7960  0.00  0.00     0.000 OA
ATOM     31   S  A00 X   2      90.360 137.838 127.8910  0.00  0.00     0.000 S
ATOM     32   O  A00 X   2      91.656 137.235 127.8780  0.00  0.00     0.000 OA
ATOM     33   O  A00 X   2      90.475 139.266 127.9140  0.00  0.00     0.000 OA
ENDBRANCH 21 30
BRANCH 24 34
ATOM     34   C  A00 X   2      88.895 140.104 121.9620  0.00  0.00     0.000 C
ATOM     35   O  A00 X   2      91.919 142.043 121.3680  0.00  0.00     0.000 OA
ATOM     36   O  A00 X   2      89.942 141.083 122.1150  0.00  0.00     0.000 O
ATOM     37   O  A00 X   2      91.912 139.823 122.1830  0.00  0.00     0.000 OA
ATOM     38   S  A00 X   2      91.269 140.775 121.3290  0.00  0.00     0.000 S
ATOM     39   O  A00 X   2      90.874 140.335 120.0250  0.00  0.00     0.000 OA
ENDBRANCH 24 34
BRANCH 20 40
ATOM     40  O4  A00 X   3      87.459 137.113 124.2300  0.00  0.00     0.000 O
BRANCH 40 44
ATOM     41  C1  A00 X   3      84.993 136.937 121.5830  0.00  0.00     0.000 C
ATOM     42  C2  A00 X   3      84.732 136.554 123.0560  0.00  0.00     0.000 C
ATOM     43  C3  A00 X   3      85.813 135.571 123.5730  0.00  0.00     0.000 C
ATOM     44  C4  A00 X   3      87.248 136.015 123.3170  0.00  0.00     0.000 C
ATOM     45  C5  A00 X   3      87.432 136.378 121.8160  0.00  0.00     0.000 C
ATOM     46  O5  A00 X   3      86.385 137.298 121.3680  0.00  0.00     0.000 O
ATOM     47   O  A00 X   3      85.624 135.079 124.8990  0.00  0.00     0.000 O
ATOM     49  HD  A00 X   3      86.485 135.174 124.9360  0.00  0.00     0.000 HD
BRANCH 42 49
ATOM     49   O  A00 X   3      84.726 137.781 123.8170  0.00  0.00     0.000 O
ATOM     50   O  A00 X   3      84.505 138.389 126.1220  0.00  0.00     0.000 OA
ATOM     51   O  A00 X   3      83.107 136.693 125.2500  0.00  0.00     0.000 OA
ATOM     52   O  A00 X   3      82.786 138.913 124.5040  0.00  0.00     0.000 OA
ATOM     53   S  A00 X   3      83.729 137.969 124.9980  0.00  0.00     0.000 S
ENDBRANCH 42 49
BRANCH 45 54
ATOM     54   C  A00 X   3      87.549 135.125 120.9400  0.00  0.00     0.000 C
ATOM     55   O  A00 X   3      87.493 134.017 121.4330  0.00  0.00     0.000 OA
ATOM     56   O  A00 X   3      87.702 135.219 119.7320  0.00  0.00     0.000 OA
ENDBRANCH 45 54
BRANCH 41 57
ATOM     57  O4  A00 X   4      84.501 135.928 120.6730  0.00  0.00     0.000 O
BRANCH 57 61
ATOM     58  C1  A00 X   4      82.941 136.099 116.6510  0.00  0.00     0.000 C
ATOM     59  C2  A00 X   4      84.407 136.534 116.8970  0.00  0.00     0.000 C
ATOM     60  C3  A00 X   4      84.956 136.098 118.2700  0.00  0.00     0.000 C
ATOM     61  C4  A00 X   4      83.975 136.434 119.4140  0.00  0.00     0.000 C
ATOM     62  C5  A00 X   4      82.642 135.725 119.0660  0.00  0.00     0.000 C
ATOM     63  O5  A00 X   4      82.120 136.272 117.8280  0.00  0.00     0.000 O
BRANCH 59 66
ATOM     64   N  A00 X   4      84.482 138.007 116.8810  0.00  0.00     0.000 N
ATOM     66  HD  A00 X   4      83.770 138.445 117.1050  0.00  0.00     0.000 HD
ATOM     66   O  A00 X   4      84.580 137.876 114.4790  0.00  0.00     0.000 OA
ATOM     67   S  A00 X   4      85.001 138.724 115.5490  0.00  0.00     0.000 S
ATOM     68   O  A00 X   4      84.315 139.980 115.6480  0.00  0.00     0.000 OA
ATOM     69   O  A00 X   4      86.406 138.798 115.8330  0.00  0.00     0.000 OA
ENDBRANCH 59 66
BRANCH 62 70
ATOM     70   C  A00 X   4      81.554 135.854 120.1590  0.00  0.00     0.000 C
ATOM     71   O  A00 X   4      79.641 138.776 121.1110  0.00  0.00     0.000 OA
ATOM     72   O  A00 X   4      80.838 137.231 122.4240  0.00  0.00     0.000 OA
ATOM     73   O  A00 X   4      80.892 137.122 120.0220  0.00  0.00     0.000 O
ATOM     74   O  A00 X   4      82.048 138.914 121.1430  0.00  0.00     0.000 OA
ATOM     75   S  A00 X   4      80.891 138.086 121.2590  0.00  0.00     0.000 S
ENDBRANCH 62 70
ENDBRANCH 57 61
ENDBRANCH 41 57
ENDBRANCH 40 44
ENDBRANCH 20 40
ENDBRANCH 19 23
ENDBRANCH 1 19
TORSDOF 14
ENDMDL
MODEL 88
REMARK VINA RESULT:       0.1     80.323     84.322
ROOT
ATOM      1  C1  A00 X   1      78.166 137.850 118.8230  0.00  0.00     0.000 C
ATOM      2  C2  A00 X   1      78.133 137.772 120.3730  0.00  0.00     0.000 C
ATOM      3  C3  A00 X   1      77.759 139.095 121.1190  0.00  0.00     0.000 C
ATOM      4  C4  A00 X   1      77.828 140.387 120.2650  0.00  0.00     0.000 C
ATOM      5  C5  A00 X   1      78.745 140.229 119.0520  0.00  0.00     0.000 C
ATOM      6  O5  A00 X   1      78.131 139.185 118.2620  0.00  0.00     0.000 O
ATOM      7   O  A00 X   1      78.664 139.279 122.2060  0.00  0.00     0.000 O
ATOM      9  HD  A00 X   1      78.548 140.054 121.8360  0.00  0.00     0.000 HD
ATOM      9   O  A00 X   1      76.531 140.801 119.8390  0.00  0.00     0.000 O
ATOM     11  HD  A00 X   1      76.415 141.575 119.4690  0.00  0.00     0.000 HD
ENDROOT
BRANCH 2 11
ATOM     11   O  A00 X   1      77.193 136.744 120.7410  0.00  0.00     0.000 O
ATOM     12   O  A00 X   1      76.889 136.058 123.0220  0.00  0.00     0.000 OA
ATOM     13   O  A00 X   1      79.039 135.690 121.9450  0.00  0.00     0.000 OA
ATOM     14   O  A00 X   1      77.119 134.467 121.2530  0.00  0.00     0.000 OA
ATOM     15   S  A00 X   1      77.607 135.692 121.8270  0.00  0.00     0.000 S
ENDBRANCH 2 11
BRANCH 5 16
ATOM     16   C  A00 X   1      80.217 139.962 119.3830  0.00  0.00     0.000 C
ATOM     17   O  A00 X   1      80.613 140.202 120.5050  0.00  0.00     0.000 OA
ATOM     18   O  A00 X   1      80.997 139.514 118.5670  0.00  0.00     0.000 OA
ENDBRANCH 5 16
BRANCH 1 19
ATOM     19  O4  A00 X   2      79.235 137.061 118.2440  0.00  0.00     0.000 O
BRANCH 19 23
ATOM     20  C1  A00 X   2      76.912 135.862 114.8480  0.00  0.00     0.000 C
ATOM     21  C2  A00 X   2      77.041 134.856 116.0170  0.00  0.00     0.000 C
ATOM     22  C3  A00 X   2      77.514 135.565 117.3030  0.00  0.00     0.000 C
ATOM     23  C4  A00 X   2      78.818 136.352 117.0430  0.00  0.00     0.000 C
ATOM     24  C5  A00 X   2      78.564 137.307 115.8440  0.00  0.00     0.000 C
ATOM     25  O5  A00 X   2      78.200 136.514 114.6840  0.00  0.00     0.000 O
ATOM     26   O  A00 X   2      77.551 134.604 118.3720  0.00  0.00     0.000 O
ATOM     28  HD  A00 X   2      78.010 134.033 117.9100  0.00  0.00     0.000 HD
BRANCH 21 30
ATOM     28   N  A00 X   2      77.035 133.768 115.0330  0.00  0.00     0.000 N
ATOM     30  HD  A00 X   2      76.877 133.409 115.8050  0.00  0.00     0.000 HD
ATOM     30   O  A00 X   2      76.023 131.905 116.0150  0.00  0.00     0.000 OA
ATOM     31   S  A00 X   2      77.301 132.293 115.5320  0.00  0.00     0.000 S
ATOM     32   O  A00 X   2      77.734 131.609 114.3530  0.00  0.00     0.000 OA
ATOM     33   O  A00 X   2      78.366 132.355 116.4890  0.00  0.00     0.000 OA
ENDBRANCH 21 30
BRANCH 24 34
ATOM     34   C  A00 X   2      79.639 138.372 115.5250  0.00  0.00     0.000 C
ATOM     35   O  A00 X   2      83.111 137.599 114.7460  0.00  0.00     0.000 OA
ATOM     36   O  A00 X   2      80.967 137.817 115.6080  0.00  0.00     0.000 O
ATOM     37   O  A00 X   2      81.263 136.708 113.5700  0.00  0.00     0.000 OA
ATOM     38   S  A00 X   2      81.790 137.841 114.2680  0.00  0.00     0.000 S
ATOM     39   O  A00 X   2      81.581 139.134 113.6890  0.00  0.00     0.000 OA
ENDBRANCH 24 34
BRANCH 20 40
ATOM     40  O4  A00 X   3      75.938 136.826 115.2720  0.00  0.00     0.000 O
BRANCH 40 44
ATOM     41  C1  A00 X   3      75.105 140.344 115.5160  0.00  0.00     0.000 C
ATOM     42  C2  A00 X   3      74.234 139.193 116.0660  0.00  0.00     0.000 C
ATOM     43  C3  A00 X   3      73.993 138.112 114.9810  0.00  0.00     0.000 C
ATOM     44  C4  A00 X   3      75.255 137.624 114.2810  0.00  0.00     0.000 C
ATOM     45  C5  A00 X   3      76.073 138.836 113.7520  0.00  0.00     0.000 C
ATOM     46  O5  A00 X   3      76.268 139.835 114.8060  0.00  0.00     0.000 O
ATOM     47   O  A00 X   3      73.128 137.041 115.3500  0.00  0.00     0.000 O
ATOM     49  HD  A00 X   3      73.701 136.572 114.9020  0.00  0.00     0.000 HD
BRANCH 42 49
ATOM     49   O  A00 X   3      74.928 138.647 117.2090  0.00  0.00     0.000 O
ATOM     50   O  A00 X   3      74.587 136.840 118.7410  0.00  0.00     0.000 OA
ATOM     51   O  A00 X   3      72.732 138.158 118.1010  0.00  0.00     0.000 OA
ATOM     52   O  A00 X   3      74.407 139.146 119.4440  0.00  0.00     0.000 OA
ATOM     53   S  A00 X   3      74.129 138.163 118.4550  0.00  0.00     0.000 S
ENDBRANCH 42 49
BRANCH 45 54
ATOM     54   C  A00 X   3      75.461 139.420 112.4740  0.00  0.00     0.000 C
ATOM     55   O  A00 X   3      76.110 140.153 111.7550  0.00  0.00     0.000 OA
ATOM     56   O  A00 X   3      74.311 139.159 112.1560  0.00  0.00     0.000 OA
ENDBRANCH 45 54
BRANCH 41 57
ATOM     57  O4  A00 X   4      74.321 141.290 114.7560  0.00  0.00     0.000 O
BRANCH 57 61
ATOM     58  C1  A00 X   4      74.738 145.514 113.9630  0.00  0.00     0.000 C
ATOM     59  C2  A00 X   4      75.629 144.520 113.1770  0.00  0.00     0.000 C
ATOM     60  C3  A00 X   4      75.152 143.057 113.2730  0.00  0.00     0.000 C
ATOM     61  C4  A00 X   4      74.846 142.648 114.7300  0.00  0.00     0.000 C
ATOM     62  C5  A00 X   4      73.779 143.645 115.2470  0.00  0.00     0.000 C
ATOM     63  O5  A00 X   4      74.338 144.984 115.2480  0.00  0.00     0.000 O
BRANCH 59 66
ATOM     64   N  A00 X   4      76.991 144.537 113.7410  0.00  0.00     0.000 N
ATOM     66  HD  A00 X   4      77.076 144.750 114.5760  0.00  0.00     0.000 HD
ATOM     66   O  A00 X   4      77.415 146.492 112.4010  0.00  0.00     0.000 OA
ATOM     67   S  A00 X   4      78.113 145.391 112.9870  0.00  0.00     0.000 S
ATOM     68   O  A00 X   4      78.972 145.719 114.0870  0.00  0.00     0.000 OA
ATOM     69   O  A00 X   4      78.644 144.389 112.1050  0.00  0.00     0.000 OA
ENDBRANCH 59 66
BRANCH 62 70
ATOM     70   C  A00 X   4      73.257 143.330 116.6690  0.00  0.00     0.000 C
ATOM     71   O  A00 X   4      74.491 144.538 119.8510  0.00  0.00     0.000 OA
ATOM     72   O  A00 X   4      73.980 142.355 119.1330  0.00  0.00     0.000 OA
ATOM     73   O  A00 X   4      73.882 144.216 117.6120  0.00  0.00     0.000 O
ATOM     74   O  A00 X   4      76.030 143.426 118.3650  0.00  0.00     0.000 OA
ATOM     75   S  A00 X   4      74.679 143.576 118.8020  0.00  0.00     0.000 S
ENDBRANCH 62 70
ENDBRANCH 57 61
ENDBRANCH 41 57
ENDBRANCH 40 44
ENDBRANCH 20 40
ENDBRANCH 19 23
ENDBRANCH 1 19
TORSDOF 14
ENDMDL
MODEL 89
REMARK VINA RESULT:       0.1    136.658    140.781
ROOT
ATOM      1  C1  A00 X   1     127.432  69.182 148.3170  0.00  0.00     0.000 C
ATOM      2  C2  A00 X   1     127.103  67.666 148.2860  0.00  0.00     0.000 C
ATOM      3  C3  A00 X   1     128.245  66.724 147.7800  0.00  0.00     0.000 C
ATOM      4  C4  A00 X   1     129.410  67.427 147.0370  0.00  0.00     0.000 C
ATOM      5  C5  A00 X   1     128.995  68.781 146.4610  0.00  0.00     0.000 C
ATOM      6  O5  A00 X   1     128.637  69.575 147.6140  0.00  0.00     0.000 O
ATOM      7   O  A00 X   1     127.690  65.783 146.8640  0.00  0.00     0.000 O
ATOM      9  HD  A00 X   1     128.450  66.039 146.5380  0.00  0.00     0.000 HD
ATOM      9   O  A00 X   1     130.546  67.591 147.8850  0.00  0.00     0.000 O
ATOM     11  HD  A00 X   1     131.306  67.848 147.5580  0.00  0.00     0.000 HD
ENDROOT
BRANCH 2 11
ATOM     11   O  A00 X   1     126.725  67.271 149.6190  0.00  0.00     0.000 O
ATOM     12   O  A00 X   1     125.996  65.040 150.1250  0.00  0.00     0.000 OA
ATOM     13   O  A00 X   1     124.663  66.417 148.6270  0.00  0.00     0.000 OA
ATOM     14   O  A00 X   1     124.824  66.958 150.9380  0.00  0.00     0.000 OA
ATOM     15   S  A00 X   1     125.475  66.346 149.8110  0.00  0.00     0.000 S
ENDBRANCH 2 11
BRANCH 5 16
ATOM     16   C  A00 X   1     127.898  68.722 145.3930  0.00  0.00     0.000 C
ATOM     17   O  A00 X   1     127.667  67.658 144.8560  0.00  0.00     0.000 OA
ATOM     18   O  A00 X   1     127.250  69.697 145.0700  0.00  0.00     0.000 OA
ENDBRANCH 5 16
BRANCH 1 19
ATOM     19  O4  A00 X   2     126.305  70.009 147.9380  0.00  0.00     0.000 O
BRANCH 19 23
ATOM     20  C1  A00 X   2     127.242  73.111 150.7430  0.00  0.00     0.000 C
ATOM     21  C2  A00 X   2     126.175  72.070 151.1590  0.00  0.00     0.000 C
ATOM     22  C3  A00 X   2     126.260  70.811 150.2710  0.00  0.00     0.000 C
ATOM     23  C4  A00 X   2     126.174  71.193 148.7760  0.00  0.00     0.000 C
ATOM     24  C5  A00 X   2     127.277  72.250 148.4920  0.00  0.00     0.000 C
ATOM     25  O5  A00 X   2     127.042  73.408 149.3350  0.00  0.00     0.000 O
ATOM     26   O  A00 X   2     125.299  69.850 150.7400  0.00  0.00     0.000 O
ATOM     28  HD  A00 X   2     124.652  70.425 150.7440  0.00  0.00     0.000 HD
BRANCH 21 30
ATOM     28   N  A00 X   2     125.472  73.135 151.8810  0.00  0.00     0.000 N
ATOM     30  HD  A00 X   2     125.150  72.384 152.1670  0.00  0.00     0.000 HD
ATOM     30   O  A00 X   2     124.410  72.182 153.7310  0.00  0.00     0.000 OA
ATOM     31   S  A00 X   2     124.058  72.818 152.5110  0.00  0.00     0.000 S
ATOM     32   O  A00 X   2     123.455  74.107 152.6550  0.00  0.00     0.000 OA
ATOM     33   O  A00 X   2     123.334  72.035 151.5550  0.00  0.00     0.000 OA
ENDBRANCH 21 30
BRANCH 24 34
ATOM     34   C  A00 X   2     127.555  72.631 147.0190  0.00  0.00     0.000 C
ATOM     35   O  A00 X   2     125.041  73.955 144.7430  0.00  0.00     0.000 OA
ATOM     36   O  A00 X   2     126.328  72.782 146.2780  0.00  0.00     0.000 O
ATOM     37   O  A00 X   2     125.574  74.926 146.8330  0.00  0.00     0.000 OA
ATOM     38   S  A00 X   2     126.072  74.219 145.6920  0.00  0.00     0.000 S
ATOM     39   O  A00 X   2     127.315  74.656 145.1320  0.00  0.00     0.000 OA
ENDBRANCH 24 34
BRANCH 20 40
ATOM     40  O4  A00 X   3     128.509  72.461 150.9200  0.00  0.00     0.000 O
BRANCH 40 44
ATOM     41  C1  A00 X   3     131.847  71.776 149.6910  0.00  0.00     0.000 C
ATOM     42  C2  A00 X   3     131.258  71.210 151.0010  0.00  0.00     0.000 C
ATOM     43  C3  A00 X   3     130.653  72.341 151.8720  0.00  0.00     0.000 C
ATOM     44  C4  A00 X   3     129.691  73.262 151.1340  0.00  0.00     0.000 C
ATOM     45  C5  A00 X   3     130.355  73.794 149.8330  0.00  0.00     0.000 C
ATOM     46  O5  A00 X   3     130.921  72.695 149.0480  0.00  0.00     0.000 O
ATOM     47   O  A00 X   3     130.157  71.945 153.1490  0.00  0.00     0.000 O
ATOM     49  HD  A00 X   3     129.534  72.516 152.9580  0.00  0.00     0.000 HD
BRANCH 42 49
ATOM     49   O  A00 X   3     130.258  70.237 150.6300  0.00  0.00     0.000 O
ATOM     50   O  A00 X   3     128.730  68.797 151.7810  0.00  0.00     0.000 OA
ATOM     51   O  A00 X   3     130.929  69.029 152.6170  0.00  0.00     0.000 OA
ATOM     52   O  A00 X   3     130.619  67.918 150.5550  0.00  0.00     0.000 OA
ATOM     53   S  A00 X   3     130.112  68.913 151.4350  0.00  0.00     0.000 S
ENDBRANCH 42 49
BRANCH 45 54
ATOM     54   C  A00 X   3     131.366  74.909 150.1260  0.00  0.00     0.000 C
ATOM     55   O  A00 X   3     131.797  75.073 151.2490  0.00  0.00     0.000 OA
ATOM     56   O  A00 X   3     131.755  75.650 149.2370  0.00  0.00     0.000 OA
ENDBRANCH 45 54
BRANCH 41 57
ATOM     57  O4  A00 X   4     133.170  72.321 149.8920  0.00  0.00     0.000 O
BRANCH 57 61
ATOM     58  C1  A00 X   4     136.576  72.805 147.2830  0.00  0.00     0.000 C
ATOM     59  C2  A00 X   4     135.261  73.542 146.9290  0.00  0.00     0.000 C
ATOM     60  C3  A00 X   4     134.250  73.590 148.0930  0.00  0.00     0.000 C
ATOM     61  C4  A00 X   4     134.066  72.205 148.7500  0.00  0.00     0.000 C
ATOM     62  C5  A00 X   4     135.473  71.754 149.2160  0.00  0.00     0.000 C
ATOM     63  O5  A00 X   4     136.336  71.609 148.0590  0.00  0.00     0.000 O
BRANCH 59 66
ATOM     64   N  A00 X   4     134.331  73.224 145.8290  0.00  0.00     0.000 N
ATOM     66  HD  A00 X   4     134.172  72.388 145.6690  0.00  0.00     0.000 HD
ATOM     66   O  A00 X   4     136.032  73.988 144.3050  0.00  0.00     0.000 OA
ATOM     67   S  A00 X   4     134.610  73.869 144.3920  0.00  0.00     0.000 S
ATOM     68   O  A00 X   4     134.021  72.873 143.5440  0.00  0.00     0.000 OA
ATOM     69   O  A00 X   4     133.842  75.076 144.5030  0.00  0.00     0.000 OA
ENDBRANCH 59 66
BRANCH 62 70
ATOM     70   C  A00 X   4     135.481  70.422 150.0050  0.00  0.00     0.000 C
ATOM     71   O  A00 X   4     134.680  67.093 148.8290  0.00  0.00     0.000 OA
ATOM     72   O  A00 X   4     133.943  68.267 150.7330  0.00  0.00     0.000 OA
ATOM     73   O  A00 X   4     135.341  69.326 149.0870  0.00  0.00     0.000 O
ATOM     74   O  A00 X   4     133.044  68.841 148.5410  0.00  0.00     0.000 OA
ATOM     75   S  A00 X   4     134.142  68.338 149.3020  0.00  0.00     0.000 S
ENDBRANCH 62 70
ENDBRANCH 57 61
ENDBRANCH 41 57
ENDBRANCH 40 44
ENDBRANCH 20 40
ENDBRANCH 19 23
ENDBRANCH 1 19
TORSDOF 14
ENDMDL
MODEL 90
REMARK VINA RESULT:       0.1     80.991     84.951
ROOT
ATOM      1  C1  A00 X   1      79.298 136.802 118.7340  0.00  0.00     0.000 C
ATOM      2  C2  A00 X   1      79.147 136.253 120.1780  0.00  0.00     0.000 C
ATOM      3  C3  A00 X   1      78.738 137.296 121.2700  0.00  0.00     0.000 C
ATOM      4  C4  A00 X   1      78.893 138.784 120.8650  0.00  0.00     0.000 C
ATOM      5  C5  A00 X   1      79.896 138.972 119.7270  0.00  0.00     0.000 C
ATOM      6  O5  A00 X   1      79.327 138.246 118.6130  0.00  0.00     0.000 O
ATOM      7   O  A00 X   1      79.561 137.101 122.4180  0.00  0.00     0.000 O
ATOM      9  HD  A00 X   1      79.486 137.956 122.3000  0.00  0.00     0.000 HD
ATOM      9   O  A00 X   1      77.638 139.359 120.5010  0.00  0.00     0.000 O
ATOM     11  HD  A00 X   1      77.562 140.213 120.3820  0.00  0.00     0.000 HD
ENDROOT
BRANCH 2 11
ATOM     11   O  A00 X   1      78.166 135.199 120.1450  0.00  0.00     0.000 O
ATOM     12   O  A00 X   1      77.669 133.866 122.0800  0.00  0.00     0.000 OA
ATOM     13   O  A00 X   1      79.893 133.759 121.1010  0.00  0.00     0.000 OA
ATOM     14   O  A00 X   1      78.018 132.878 119.9320  0.00  0.00     0.000 OA
ATOM     15   S  A00 X   1      78.475 133.852 120.8860  0.00  0.00     0.000 S
ENDBRANCH 2 11
BRANCH 5 16
ATOM     16   C  A00 X   1      81.334 138.560 120.0560  0.00  0.00     0.000 C
ATOM     17   O  A00 X   1      81.648 138.429 121.2220  0.00  0.00     0.000 OA
ATOM     18   O  A00 X   1      82.166 138.353 119.1960  0.00  0.00     0.000 OA
ENDBRANCH 5 16
BRANCH 1 19
ATOM     19  O4  A00 X   2      80.395 136.190 118.0130  0.00  0.00     0.000 O
BRANCH 19 23
ATOM     20  C1  A00 X   2      78.320 136.183 114.2630  0.00  0.00     0.000 C
ATOM     21  C2  A00 X   2      78.335 134.865 115.0730  0.00  0.00     0.000 C
ATOM     22  C3  A00 X   2      78.721 135.128 116.5440  0.00  0.00     0.000 C
ATOM     23  C4  A00 X   2      80.058 135.898 116.6260  0.00  0.00     0.000 C
ATOM     24  C5  A00 X   2      79.920 137.182 115.7630  0.00  0.00     0.000 C
ATOM     25  O5  A00 X   2      79.630 136.796 114.3940  0.00  0.00     0.000 O
ATOM     26   O  A00 X   2      78.654 133.887 117.2680  0.00  0.00     0.000 O
ATOM     28  HD  A00 X   2      79.135 133.464 116.6850  0.00  0.00     0.000 HD
BRANCH 21 30
ATOM     28   N  A00 X   2      78.380 134.130 113.8060  0.00  0.00     0.000 N
ATOM     30  HD  A00 X   2      78.157 133.560 114.4180  0.00  0.00     0.000 HD
ATOM     30   O  A00 X   2      77.257 132.102 114.1000  0.00  0.00     0.000 OA
ATOM     31   S  A00 X   2      78.576 132.562 113.8440  0.00  0.00     0.000 S
ATOM     32   O  A00 X   2      79.083 132.251 112.5430  0.00  0.00     0.000 OA
ATOM     33   O  A00 X   2      79.565 132.283 114.8420  0.00  0.00     0.000 OA
ENDBRANCH 21 30
BRANCH 24 34
ATOM     34   C  A00 X   2      81.039 138.245 115.8590  0.00  0.00     0.000 C
ATOM     35   O  A00 X   2      84.543 137.592 115.1160  0.00  0.00     0.000 OA
ATOM     36   O  A00 X   2      82.344 137.632 115.8570  0.00  0.00     0.000 O
ATOM     37   O  A00 X   2      82.773 137.185 113.6020  0.00  0.00     0.000 OA
ATOM     38   S  A00 X   2      83.268 138.027 114.6480  0.00  0.00     0.000 S
ATOM     39   O  A00 X   2      83.134 139.442 114.4790  0.00  0.00     0.000 OA
ENDBRANCH 24 34
BRANCH 20 40
ATOM     40  O4  A00 X   3      77.336 137.015 114.8950  0.00  0.00     0.000 O
BRANCH 40 44
ATOM     41  C1  A00 X   3      76.544 140.323 116.1410  0.00  0.00     0.000 C
ATOM     42  C2  A00 X   3      75.615 139.095 116.2520  0.00  0.00     0.000 C
ATOM     43  C3  A00 X   3      75.441 138.404 114.8750  0.00  0.00     0.000 C
ATOM     44  C4  A00 X   3      76.746 138.102 114.1490  0.00  0.00     0.000 C
ATOM     45  C5  A00 X   3      77.622 139.384 114.0740  0.00  0.00     0.000 C
ATOM     46  O5  A00 X   3      77.750 140.008 115.3920  0.00  0.00     0.000 O
ATOM     47   O  A00 X   3      74.532 137.305 114.8400  0.00  0.00     0.000 O
ATOM     49  HD  A00 X   3      75.131 136.973 114.3100  0.00  0.00     0.000 HD
BRANCH 42 49
ATOM     49   O  A00 X   3      76.208 138.202 117.2200  0.00  0.00     0.000 O
ATOM     50   O  A00 X   3      75.720 136.030 118.1000  0.00  0.00     0.000 OA
ATOM     51   O  A00 X   3      73.941 137.551 117.7660  0.00  0.00     0.000 OA
ATOM     52   O  A00 X   3      75.522 138.020 119.4590  0.00  0.00     0.000 OA
ATOM     53   S  A00 X   3      75.307 137.394 118.2000  0.00  0.00     0.000 S
ENDBRANCH 42 49
BRANCH 45 54
ATOM     54   C  A00 X   3      77.120 140.351 112.9950  0.00  0.00     0.000 C
ATOM     55   O  A00 X   3      75.997 140.248 112.5450  0.00  0.00     0.000 OA
ATOM     56   O  A00 X   3      77.841 141.240 112.5670  0.00  0.00     0.000 OA
ENDBRANCH 45 54
BRANCH 41 57
ATOM     57  O4  A00 X   4      75.836 141.485 115.6540  0.00  0.00     0.000 O
BRANCH 57 61
ATOM     58  C1  A00 X   4      76.401 145.732 116.1920  0.00  0.00     0.000 C
ATOM     59  C2  A00 X   4      77.325 144.981 115.2010  0.00  0.00     0.000 C
ATOM     60  C3  A00 X   4      76.810 143.577 114.8240  0.00  0.00     0.000 C
ATOM     61  C4  A00 X   4      76.391 142.766 116.0690  0.00  0.00     0.000 C
ATOM     62  C5  A00 X   4      75.312 143.608 116.7950  0.00  0.00     0.000 C
ATOM     63  O5  A00 X   4      75.898 144.861 117.2310  0.00  0.00     0.000 O
BRANCH 59 66
ATOM     64   N  A00 X   4      78.647 144.766 115.8160  0.00  0.00     0.000 N
ATOM     66  HD  A00 X   4      78.682 144.712 116.6800  0.00  0.00     0.000 HD
ATOM     66   O  A00 X   4      79.204 147.017 115.1640  0.00  0.00     0.000 OA
ATOM     67   S  A00 X   4      79.836 145.761 115.4210  0.00  0.00     0.000 S
ATOM     68   O  A00 X   4      80.629 145.702 116.6140  0.00  0.00     0.000 OA
ATOM     69   O  A00 X   4      80.398 145.053 114.3060  0.00  0.00     0.000 OA
ENDBRANCH 59 66
BRANCH 62 70
ATOM     70   C  A00 X   4      74.683 142.906 118.0220  0.00  0.00     0.000 C
ATOM     71   O  A00 X   4      75.751 143.006 121.4790  0.00  0.00     0.000 OA
ATOM     72   O  A00 X   4      75.197 141.182 120.0970  0.00  0.00     0.000 OA
ATOM     73   O  A00 X   4      75.281 143.421 119.2220  0.00  0.00     0.000 O
ATOM     74   O  A00 X   4      77.337 142.309 119.8030  0.00  0.00     0.000 OA
ATOM     75   S  A00 X   4      75.968 142.401 120.1950  0.00  0.00     0.000 S
ENDBRANCH 62 70
ENDBRANCH 57 61
ENDBRANCH 41 57
ENDBRANCH 40 44
ENDBRANCH 20 40
ENDBRANCH 19 23
ENDBRANCH 1 19
TORSDOF 14
ENDMDL
MODEL 91
REMARK VINA RESULT:       0.1     66.265     69.652
ROOT
ATOM      1  C1  A00 X   1      79.563 143.402  95.5740  0.00  0.00     0.000 C
ATOM      2  C2  A00 X   1      79.888 141.922  95.2360  0.00  0.00     0.000 C
ATOM      3  C3  A00 X   1      79.091 140.843  96.0400  0.00  0.00     0.000 C
ATOM      4  C4  A00 X   1      78.361 141.357  97.3070  0.00  0.00     0.000 C
ATOM      5  C5  A00 X   1      78.973 142.652  97.8410  0.00  0.00     0.000 C
ATOM      6  O5  A00 X   1      78.783 143.612  96.7780  0.00  0.00     0.000 O
ATOM      7   O  A00 X   1      79.999 139.834  96.4760  0.00  0.00     0.000 O
ATOM      9  HD  A00 X   1      79.456 139.990  97.1330  0.00  0.00     0.000 HD
ATOM      9   O  A00 X   1      76.967 141.545  97.0660  0.00  0.00     0.000 O
ATOM     11  HD  A00 X   1      76.423 141.701  97.7230  0.00  0.00     0.000 HD
ENDROOT
BRANCH 2 11
ATOM     11   O  A00 X   1      79.648 141.732  93.8280  0.00  0.00     0.000 O
ATOM     12   O  A00 X   1      80.164 139.664  92.7210  0.00  0.00     0.000 OA
ATOM     13   O  A00 X   1      81.968 140.982  93.6820  0.00  0.00     0.000 OA
ATOM     14   O  A00 X   1      80.775 141.776  91.7840  0.00  0.00     0.000 OA
ATOM     15   S  A00 X   1      80.718 140.970  92.9730  0.00  0.00     0.000 S
ENDBRANCH 2 11
BRANCH 5 16
ATOM     16   C  A00 X   1      80.427 142.536  98.3100  0.00  0.00     0.000 C
ATOM     17   O  A00 X   1      80.884 141.431  98.5180  0.00  0.00     0.000 OA
ATOM     18   O  A00 X   1      81.138 143.507  98.4740  0.00  0.00     0.000 OA
ENDBRANCH 5 16
BRANCH 1 19
ATOM     19  O4  A00 X   2      80.734 144.254  95.5480  0.00  0.00     0.000 O
BRANCH 19 23
ATOM     20  C1  A00 X   2      78.635 147.612  93.9110  0.00  0.00     0.000 C
ATOM     21  C2  A00 X   2      79.428 146.717  92.9280  0.00  0.00     0.000 C
ATOM     22  C3  A00 X   2      79.752 145.351  93.5690  0.00  0.00     0.000 C
ATOM     23  C4  A00 X   2      80.474 145.543  94.9220  0.00  0.00     0.000 C
ATOM     24  C5  A00 X   2      79.591 146.467  95.8040  0.00  0.00     0.000 C
ATOM     25  O5  A00 X   2      79.423 147.739  95.1250  0.00  0.00     0.000 O
ATOM     26   O  A00 X   2      80.427 144.534  92.5960  0.00  0.00     0.000 O
ATOM     28  HD  A00 X   2      81.001 145.153  92.4010  0.00  0.00     0.000 HD
BRANCH 21 30
ATOM     28   N  A00 X   2      79.735 147.917  92.1430  0.00  0.00     0.000 N
ATOM     30  HD  A00 X   2      79.910 147.235  91.6390  0.00  0.00     0.000 HD
ATOM     30   O  A00 X   2      79.900 147.294  89.8980  0.00  0.00     0.000 OA
ATOM     31   S  A00 X   2      80.739 147.792  90.9290  0.00  0.00     0.000 S
ATOM     32   O  A00 X   2      81.205 149.131  90.7360  0.00  0.00     0.000 OA
ATOM     33   O  A00 X   2      81.816 146.948  91.3550  0.00  0.00     0.000 OA
ENDBRANCH 21 30
BRANCH 24 34
ATOM     34   C  A00 X   2      79.975 146.632  97.2930  0.00  0.00     0.000 C
ATOM     35   O  A00 X   2      80.850 149.812  98.8350  0.00  0.00     0.000 OA
ATOM     36   O  A00 X   2      80.604 147.907  97.5330  0.00  0.00     0.000 O
ATOM     37   O  A00 X   2      78.824 149.416  97.6820  0.00  0.00     0.000 OA
ATOM     38   S  A00 X   2      79.838 148.858  98.5230  0.00  0.00     0.000 S
ATOM     39   O  A00 X   2      79.414 148.042  99.6210  0.00  0.00     0.000 OA
ENDBRANCH 24 34
BRANCH 20 40
ATOM     40  O4  A00 X   3      77.425 146.896  94.1970  0.00  0.00     0.000 O
BRANCH 40 44
ATOM     41  C1  A00 X   3      74.946 145.820  96.6100  0.00  0.00     0.000 C
ATOM     42  C2  A00 X   3      74.924 145.464  95.1080  0.00  0.00     0.000 C
ATOM     43  C3  A00 X   3      75.081 146.735  94.2340  0.00  0.00     0.000 C
ATOM     44  C4  A00 X   3      76.254 147.628  94.6190  0.00  0.00     0.000 C
ATOM     45  C5  A00 X   3      76.203 147.946  96.1400  0.00  0.00     0.000 C
ATOM     46  O5  A00 X   3      76.044 146.720  96.9250  0.00  0.00     0.000 O
ATOM     47   O  A00 X   3      74.988 146.536  92.8250  0.00  0.00     0.000 O
ATOM     49  HD  A00 X   3      75.625 147.124  92.8140  0.00  0.00     0.000 HD
BRANCH 42 49
ATOM     49   O  A00 X   3      76.002 144.530  94.8800  0.00  0.00     0.000 O
ATOM     50   O  A00 X   3      76.933 143.386  92.9940  0.00  0.00     0.000 OA
ATOM     51   O  A00 X   3      74.582 143.560  93.1760  0.00  0.00     0.000 OA
ATOM     52   O  A00 X   3      75.735 142.202  94.7280  0.00  0.00     0.000 OA
ATOM     53   S  A00 X   3      75.818 143.345  93.8870  0.00  0.00     0.000 S
ENDBRANCH 42 49
BRANCH 45 54
ATOM     54   C  A00 X   3      75.148 149.010  96.4630  0.00  0.00     0.000 C
ATOM     55   O  A00 X   3      75.140 149.567  97.5410  0.00  0.00     0.000 OA
ATOM     56   O  A00 X   3      74.296 149.314  95.6430  0.00  0.00     0.000 OA
ENDBRANCH 45 54
BRANCH 41 57
ATOM     57  O4  A00 X   4      73.656 146.287  97.0670  0.00  0.00     0.000 O
BRANCH 57 61
ATOM     58  C1  A00 X   4      71.607 146.025 100.8580  0.00  0.00     0.000 C
ATOM     59  C2  A00 X   4      72.944 146.805 100.7900  0.00  0.00     0.000 C
ATOM     60  C3  A00 X   4      73.390 147.136  99.3510  0.00  0.00     0.000 C
ATOM     61  C4  A00 X   4      73.306 145.903  98.4270  0.00  0.00     0.000 C
ATOM     62  C5  A00 X   4      71.837 145.414  98.4850  0.00  0.00     0.000 C
ATOM     63  O5  A00 X   4      71.525 145.002  99.8400  0.00  0.00     0.000 O
BRANCH 59 66
ATOM     64   N  A00 X   4      74.091 147.508 101.3940  0.00  0.00     0.000 N
ATOM     66  HD  A00 X   4      74.880 147.180 101.2540  0.00  0.00     0.000 HD
ATOM     66   O  A00 X   4      73.307 146.736 103.5360  0.00  0.00     0.000 OA
ATOM     67   S  A00 X   4      74.050 147.815 102.9630  0.00  0.00     0.000 S
ATOM     68   O  A00 X   4      75.452 147.825 103.2610  0.00  0.00     0.000 OA
ATOM     69   O  A00 X   4      73.441 149.115 102.9510  0.00  0.00     0.000 OA
ENDBRANCH 59 66
BRANCH 62 70
ATOM     70   C  A00 X   4      71.525 144.238  97.5290  0.00  0.00     0.000 C
ATOM     71   O  A00 X   4      72.680 140.811  97.7060  0.00  0.00     0.000 OA
ATOM     72   O  A00 X   4      72.661 142.333  95.9090  0.00  0.00     0.000 OA
ATOM     73   O  A00 X   4      71.989 143.012  98.1170  0.00  0.00     0.000 O
ATOM     74   O  A00 X   4      74.319 142.580  97.6780  0.00  0.00     0.000 OA
ATOM     75   S  A00 X   4      73.012 142.148  97.3000  0.00  0.00     0.000 S
ENDBRANCH 62 70
ENDBRANCH 57 61
ENDBRANCH 41 57
ENDBRANCH 40 44
ENDBRANCH 20 40
ENDBRANCH 19 23
ENDBRANCH 1 19
TORSDOF 14
ENDMDL
MODEL 92
REMARK VINA RESULT:       0.1     91.035     94.694
ROOT
ATOM      1  C1  A00 X   1      87.130 142.077 125.2350  0.00  0.00     0.000 C
ATOM      2  C2  A00 X   1      86.117 143.060 125.8800  0.00  0.00     0.000 C
ATOM      3  C3  A00 X   1      84.672 143.049 125.2820  0.00  0.00     0.000 C
ATOM      4  C4  A00 X   1      84.523 142.348 123.9070  0.00  0.00     0.000 C
ATOM      5  C5  A00 X   1      85.847 142.282 123.1460  0.00  0.00     0.000 C
ATOM      6  O5  A00 X   1      86.711 141.479 123.9830  0.00  0.00     0.000 O
ATOM      7   O  A00 X   1      84.243 144.396 125.0980  0.00  0.00     0.000 O
ATOM      9  HD  A00 X   1      83.987 143.949 124.4020  0.00  0.00     0.000 HD
ATOM      9   O  A00 X   1      83.981 141.035 124.0460  0.00  0.00     0.000 O
ATOM     11  HD  A00 X   1      83.724 140.588 123.3500  0.00  0.00     0.000 HD
ENDROOT
BRANCH 2 11
ATOM     11   O  A00 X   1      86.045 142.754 127.2870  0.00  0.00     0.000 O
ATOM     12   O  A00 X   1      84.422 143.781 128.7280  0.00  0.00     0.000 OA
ATOM     13   O  A00 X   1      86.119 145.165 127.6680  0.00  0.00     0.000 OA
ATOM     14   O  A00 X   1      86.722 143.600 129.3540  0.00  0.00     0.000 OA
ATOM     15   S  A00 X   1      85.793 143.919 128.3040  0.00  0.00     0.000 S
ENDBRANCH 2 11
BRANCH 5 16
ATOM     16   C  A00 X   1      86.447 143.640 122.7710  0.00  0.00     0.000 C
ATOM     17   O  A00 X   1      87.593 143.679 122.3720  0.00  0.00     0.000 OA
ATOM     18   O  A00 X   1      85.817 144.676 122.8510  0.00  0.00     0.000 OA
ENDBRANCH 5 16
BRANCH 1 19
ATOM     19  O4  A00 X   2      88.464 142.632 125.1350  0.00  0.00     0.000 O
BRANCH 19 23
ATOM     20  C1  A00 X   2      90.406 138.943 126.1280  0.00  0.00     0.000 C
ATOM     21  C2  A00 X   2      90.203 139.972 127.2660  0.00  0.00     0.000 C
ATOM     22  C3  A00 X   2      89.139 141.019 126.8760  0.00  0.00     0.000 C
ATOM     23  C4  A00 X   2      89.496 141.680 125.5260  0.00  0.00     0.000 C
ATOM     24  C5  A00 X   2      89.690 140.548 124.4800  0.00  0.00     0.000 C
ATOM     25  O5  A00 X   2      90.762 139.678 124.9270  0.00  0.00     0.000 O
ATOM     26   O  A00 X   2      88.938 141.909 127.9880  0.00  0.00     0.000 O
ATOM     28  HD  A00 X   2      89.785 142.059 128.0860  0.00  0.00     0.000 HD
BRANCH 21 30
ATOM     28   N  A00 X   2      91.481 139.538 127.8400  0.00  0.00     0.000 N
ATOM     30  HD  A00 X   2      91.066 139.980 128.4580  0.00  0.00     0.000 HD
ATOM     30   O  A00 X   2      91.345 139.753 130.1620  0.00  0.00     0.000 OA
ATOM     31   S  A00 X   2      92.062 140.327 129.0800  0.00  0.00     0.000 S
ATOM     32   O  A00 X   2      93.459 140.021 129.0500  0.00  0.00     0.000 OA
ATOM     33   O  A00 X   2      91.853 141.722 128.8300  0.00  0.00     0.000 OA
ENDBRANCH 21 30
BRANCH 24 34
ATOM     34   C  A00 X   2      89.829 140.950 122.9930  0.00  0.00     0.000 C
ATOM     35   O  A00 X   2      92.425 143.156 121.7080  0.00  0.00     0.000 OA
ATOM     36   O  A00 X   2      90.702 142.086 122.8370  0.00  0.00     0.000 O
ATOM     37   O  A00 X   2      92.857 141.182 122.9370  0.00  0.00     0.000 OA
ATOM     38   S  A00 X   2      91.999 141.824 121.9880  0.00  0.00     0.000 S
ATOM     39   O  A00 X   2      91.588 141.066 120.8450  0.00  0.00     0.000 OA
ENDBRANCH 24 34
BRANCH 20 40
ATOM     40  O4  A00 X   3      89.131 138.312 125.9440  0.00  0.00     0.000 O
BRANCH 40 44
ATOM     41  C1  A00 X   3      86.613 137.095 123.6410  0.00  0.00     0.000 C
ATOM     42  C2  A00 X   3      86.491 137.055 125.1790  0.00  0.00     0.000 C
ATOM     43  C3  A00 X   3      87.749 136.416 125.8200  0.00  0.00     0.000 C
ATOM     44  C4  A00 X   3      89.071 137.001 125.3410  0.00  0.00     0.000 C
ATOM     45  C5  A00 X   3      89.121 137.002 123.7870  0.00  0.00     0.000 C
ATOM     46  O5  A00 X   3      87.910 137.605 123.2260  0.00  0.00     0.000 O
ATOM     47   O  A00 X   3      87.711 136.247 127.2360  0.00  0.00     0.000 O
ATOM     49  HD  A00 X   3      88.542 136.483 127.1740  0.00  0.00     0.000 HD
BRANCH 42 49
ATOM     49   O  A00 X   3      86.306 138.417 125.6240  0.00  0.00     0.000 O
ATOM     50   O  A00 X   3      86.099 139.539 127.7290  0.00  0.00     0.000 OA
ATOM     51   O  A00 X   3      84.981 137.479 127.4190  0.00  0.00     0.000 OA
ATOM     52   O  A00 X   3      84.234 139.361 126.1990  0.00  0.00     0.000 OA
ATOM     53   S  A00 X   3      85.353 138.734 126.8130  0.00  0.00     0.000 S
ENDBRANCH 42 49
BRANCH 45 54
ATOM     54   C  A00 X   3      89.414 135.605 123.2270  0.00  0.00     0.000 C
ATOM     55   O  A00 X   3      89.349 134.626 123.9420  0.00  0.00     0.000 OA
ATOM     56   O  A00 X   3      89.719 135.452 122.0550  0.00  0.00     0.000 OA
ENDBRANCH 45 54
BRANCH 41 57
ATOM     57  O4  A00 X   4      86.264 135.825 123.0450  0.00  0.00     0.000 O
BRANCH 57 61
ATOM     58  C1  A00 X   4      84.384 134.747 119.3110  0.00  0.00     0.000 C
ATOM     59  C2  A00 X   4      85.743 135.491 119.2690  0.00  0.00     0.000 C
ATOM     60  C3  A00 X   4      86.479 135.501 120.6240  0.00  0.00     0.000 C
ATOM     61  C4  A00 X   4      85.545 135.913 121.7820  0.00  0.00     0.000 C
ATOM     62  C5  A00 X   4      84.364 134.910 121.7670  0.00  0.00     0.000 C
ATOM     63  O5  A00 X   4      83.642 135.042 120.5160  0.00  0.00     0.000 O
BRANCH 59 66
ATOM     64   N  A00 X   4      86.914 135.500 118.3740  0.00  0.00     0.000 N
ATOM     66  HD  A00 X   4      87.512 136.113 118.5040  0.00  0.00     0.000 HD
ATOM     66   O  A00 X   4      85.438 136.228 116.6160  0.00  0.00     0.000 OA
ATOM     67   S  A00 X   4      86.660 135.508 116.7950  0.00  0.00     0.000 S
ATOM     68   O  A00 X   4      87.844 136.180 116.3460  0.00  0.00     0.000 OA
ATOM     69   O  A00 X   4      86.650 134.096 116.5330  0.00  0.00     0.000 OA
ENDBRANCH 59 66
BRANCH 62 70
ATOM     70   C  A00 X   4      83.364 135.093 122.9340  0.00  0.00     0.000 C
ATOM     71   O  A00 X   4      81.036 137.804 123.5130  0.00  0.00     0.000 OA
ATOM     72   O  A00 X   4      82.599 136.789 124.9530  0.00  0.00     0.000 OA
ATOM     73   O  A00 X   4      82.474 136.178 122.6300  0.00  0.00     0.000 O
ATOM     74   O  A00 X   4      83.373 138.331 123.2330  0.00  0.00     0.000 OA
ATOM     75   S  A00 X   4      82.399 137.372 123.6450  0.00  0.00     0.000 S
ENDBRANCH 62 70
ENDBRANCH 57 61
ENDBRANCH 41 57
ENDBRANCH 40 44
ENDBRANCH 20 40
ENDBRANCH 19 23
ENDBRANCH 1 19
TORSDOF 14
ENDMDL
MODEL 93
REMARK VINA RESULT:       0.1     18.308     23.831
ROOT
ATOM      1  C1  A00 X   1      55.250 130.108  32.0910  0.00  0.00     0.000 C
ATOM      2  C2  A00 X   1      56.749 130.157  32.4890  0.00  0.00     0.000 C
ATOM      3  C3  A00 X   1      57.751 129.511  31.4760  0.00  0.00     0.000 C
ATOM      4  C4  A00 X   1      57.115 128.593  30.4010  0.00  0.00     0.000 C
ATOM      5  C5  A00 X   1      55.752 128.055  30.8340  0.00  0.00     0.000 C
ATOM      6  O5  A00 X   1      54.924 129.230  30.9850  0.00  0.00     0.000 O
ATOM      7   O  A00 X   1      58.678 128.705  32.2000  0.00  0.00     0.000 O
ATOM      9  HD  A00 X   1      58.463 128.267  31.4840  0.00  0.00     0.000 HD
ATOM      9   O  A00 X   1      56.992 129.264  29.1470  0.00  0.00     0.000 O
ATOM     11  HD  A00 X   1      56.777 128.826  28.4320  0.00  0.00     0.000 HD
ENDROOT
BRANCH 2 11
ATOM     11   O  A00 X   1      57.106 131.539  32.6860  0.00  0.00     0.000 O
ATOM     12   O  A00 X   1      59.379 132.224  33.0510  0.00  0.00     0.000 OA
ATOM     13   O  A00 X   1      58.287 130.798  34.6920  0.00  0.00     0.000 OA
ATOM     14   O  A00 X   1      57.586 133.052  34.3980  0.00  0.00     0.000 OA
ATOM     15   S  A00 X   1      58.176 131.898  33.7740  0.00  0.00     0.000 S
ENDBRANCH 2 11
BRANCH 5 16
ATOM     16   C  A00 X   1      55.774 127.157  32.0760  0.00  0.00     0.000 C
ATOM     17   O  A00 X   1      54.719 126.857  32.5960  0.00  0.00     0.000 OA
ATOM     18   O  A00 X   1      56.807 126.732  32.5540  0.00  0.00     0.000 OA
ENDBRANCH 5 16
BRANCH 1 19
ATOM     19  O4  A00 X   2      54.376 129.878  33.2230  0.00  0.00     0.000 O
BRANCH 19 23
ATOM     20  C1  A00 X   2      51.373 132.610  31.8500  0.00  0.00     0.000 C
ATOM     21  C2  A00 X   2      52.381 133.127  32.9050  0.00  0.00     0.000 C
ATOM     22  C3  A00 X   2      53.623 132.214  32.9720  0.00  0.00     0.000 C
ATOM     23  C4  A00 X   2      53.206 130.746  33.2100  0.00  0.00     0.000 C
ATOM     24  C5  A00 X   2      52.187 130.356  32.1040  0.00  0.00     0.000 C
ATOM     25  O5  A00 X   2      51.038 131.240  32.1950  0.00  0.00     0.000 O
ATOM     26   O  A00 X   2      54.555 132.773  33.9130  0.00  0.00     0.000 O
ATOM     28  HD  A00 X   2      53.956 132.861  34.5320  0.00  0.00     0.000 HD
BRANCH 21 30
ATOM     28   N  A00 X   2      51.305 133.940  33.4810  0.00  0.00     0.000 N
ATOM     30  HD  A00 X   2      52.049 134.249  33.7980  0.00  0.00     0.000 HD
ATOM     30   O  A00 X   2      52.254 135.884  34.3640  0.00  0.00     0.000 OA
ATOM     31   S  A00 X   2      51.582 134.722  34.8270  0.00  0.00     0.000 S
ATOM     32   O  A00 X   2      50.275 134.952  35.3600  0.00  0.00     0.000 OA
ATOM     33   O  A00 X   2      52.321 133.842  35.6830  0.00  0.00     0.000 OA
ENDBRANCH 21 30
BRANCH 24 34
ATOM     34   C  A00 X   2      51.786 128.868  31.9780  0.00  0.00     0.000 C
ATOM     35   O  A00 X   2      50.332 126.909  34.6810  0.00  0.00     0.000 OA
ATOM     36   O  A00 X   2      51.578 128.271  33.2740  0.00  0.00     0.000 O
ATOM     37   O  A00 X   2      49.422 128.941  33.8840  0.00  0.00     0.000 OA
ATOM     38   S  A00 X   2      50.122 127.741  33.5420  0.00  0.00     0.000 S
ATOM     39   O  A00 X   2      49.716 127.052  32.3540  0.00  0.00     0.000 OA
ENDBRANCH 24 34
BRANCH 20 40
ATOM     40  O4  A00 X   3      52.076 132.632  30.5990  0.00  0.00     0.000 O
BRANCH 40 44
ATOM     41  C1  A00 X   3      52.862 130.950  27.4890  0.00  0.00     0.000 C
ATOM     42  C2  A00 X   3      53.432 132.320  27.9170  0.00  0.00     0.000 C
ATOM     43  C3  A00 X   3      52.296 133.282  28.3520  0.00  0.00     0.000 C
ATOM     44  C4  A00 X   3      51.324 132.695  29.3680  0.00  0.00     0.000 C
ATOM     45  C5  A00 X   3      50.792 131.324  28.8650  0.00  0.00     0.000 C
ATOM     46  O5  A00 X   3      51.895 130.453  28.4550  0.00  0.00     0.000 O
ATOM     47   O  A00 X   3      52.698 134.608  28.6880  0.00  0.00     0.000 O
ATOM     49  HD  A00 X   3      52.101 134.512  29.3070  0.00  0.00     0.000 HD
BRANCH 42 49
ATOM     49   O  A00 X   3      54.358 132.073  28.9970  0.00  0.00     0.000 O
ATOM     50   O  A00 X   3      55.737 133.402  30.4340  0.00  0.00     0.000 OA
ATOM     51   O  A00 X   3      55.606 133.962  28.1410  0.00  0.00     0.000 OA
ATOM     52   O  A00 X   3      56.690 131.952  28.7490  0.00  0.00     0.000 OA
ATOM     53   S  A00 X   3      55.680 132.889  29.1010  0.00  0.00     0.000 S
ENDBRANCH 42 49
BRANCH 45 54
ATOM     54   C  A00 X   3      49.723 131.494  27.7790  0.00  0.00     0.000 C
ATOM     55   O  A00 X   3      49.557 132.567  27.2360  0.00  0.00     0.000 OA
ATOM     56   O  A00 X   3      49.018 130.555  27.4420  0.00  0.00     0.000 OA
ENDBRANCH 45 54
BRANCH 41 57
ATOM     57  O4  A00 X   4      52.372 130.977  26.1290  0.00  0.00     0.000 O
BRANCH 57 61
ATOM     58  C1  A00 X   4      52.195 128.001  23.0070  0.00  0.00     0.000 C
ATOM     59  C2  A00 X   4      51.408 127.748  24.3180  0.00  0.00     0.000 C
ATOM     60  C3  A00 X   4      51.251 129.008  25.1930  0.00  0.00     0.000 C
ATOM     61  C4  A00 X   4      52.590 129.755  25.3690  0.00  0.00     0.000 C
ATOM     62  C5  A00 X   4      53.091 130.094  23.9430  0.00  0.00     0.000 C
ATOM     63  O5  A00 X   4      53.337 128.861  23.2190  0.00  0.00     0.000 O
BRANCH 59 66
ATOM     64   N  A00 X   4      50.191 127.043  24.7590  0.00  0.00     0.000 N
ATOM     66  HD  A00 X   4      50.084 126.925  25.6100  0.00  0.00     0.000 HD
ATOM     66   O  A00 X   4      51.132 125.037  23.8160  0.00  0.00     0.000 OA
ATOM     67   S  A00 X   4      49.860 125.622  24.1040  0.00  0.00     0.000 S
ATOM     68   O  A00 X   4      49.127 125.009  25.1740  0.00  0.00     0.000 OA
ATOM     69   O  A00 X   4      49.047 126.037  22.9960  0.00  0.00     0.000 OA
ENDBRANCH 59 66
BRANCH 62 70
ATOM     70   C  A00 X   4      54.381 130.948  23.9120  0.00  0.00     0.000 C
ATOM     71   O  A00 X   4      57.744 130.000  24.8590  0.00  0.00     0.000 OA
ATOM     72   O  A00 X   4      56.459 131.884  25.4450  0.00  0.00     0.000 OA
ATOM     73   O  A00 X   4      55.518 130.099  24.1350  0.00  0.00     0.000 O
ATOM     74   O  A00 X   4      55.973 129.728  26.4720  0.00  0.00     0.000 OA
ATOM     75   S  A00 X   4      56.465 130.442  25.3380  0.00  0.00     0.000 S
ENDBRANCH 62 70
ENDBRANCH 57 61
ENDBRANCH 41 57
ENDBRANCH 40 44
ENDBRANCH 20 40
ENDBRANCH 19 23
ENDBRANCH 1 19
TORSDOF 14
ENDMDL
MODEL 94
REMARK VINA RESULT:       0.2     99.458    103.105
ROOT
ATOM      1  C1  A00 X   1      17.813  57.282 123.9490  0.00  0.00     0.000 C
ATOM      2  C2  A00 X   1      16.836  58.481 123.8280  0.00  0.00     0.000 C
ATOM      3  C3  A00 X   1      17.117  59.695 124.7740  0.00  0.00     0.000 C
ATOM      4  C4  A00 X   1      18.086  59.414 125.9510  0.00  0.00     0.000 C
ATOM      5  C5  A00 X   1      18.160  57.927 126.2970  0.00  0.00     0.000 C
ATOM      6  O5  A00 X   1      18.686  57.300 125.1060  0.00  0.00     0.000 O
ATOM      7   O  A00 X   1      15.885  60.117 125.3560  0.00  0.00     0.000 O
ATOM      9  HD  A00 X   1      16.485  60.144 125.9800  0.00  0.00     0.000 HD
ATOM      9   O  A00 X   1      19.396  59.912 125.6780  0.00  0.00     0.000 O
ATOM     11  HD  A00 X   1      19.996  59.939 126.3030  0.00  0.00     0.000 HD
ENDROOT
BRANCH 2 11
ATOM     11   O  A00 X   1      16.865  58.935 122.4610  0.00  0.00     0.000 O
ATOM     12   O  A00 X   1      15.379  60.641 121.6570  0.00  0.00     0.000 OA
ATOM     13   O  A00 X   1      14.457  58.525 122.4250  0.00  0.00     0.000 OA
ATOM     14   O  A00 X   1      15.752  58.623 120.4320  0.00  0.00     0.000 OA
ATOM     15   S  A00 X   1      15.509  59.208 121.7230  0.00  0.00     0.000 S
ENDBRANCH 2 11
BRANCH 5 16
ATOM     16   C  A00 X   1      16.846  57.310 126.7850  0.00  0.00     0.000 C
ATOM     17   O  A00 X   1      16.776  56.103 126.8950  0.00  0.00     0.000 OA
ATOM     18   O  A00 X   1      15.877  57.983 127.0730  0.00  0.00     0.000 OA
ENDBRANCH 5 16
BRANCH 1 19
ATOM     19  O4  A00 X   2      17.151  56.001 123.8070  0.00  0.00     0.000 O
BRANCH 19 23
ATOM     20  C1  A00 X   2      20.455  54.159 121.7940  0.00  0.00     0.000 C
ATOM     21  C2  A00 X   2      19.312  54.728 120.9190  0.00  0.00     0.000 C
ATOM     22  C3  A00 X   2      18.442  55.715 121.7240  0.00  0.00     0.000 C
ATOM     23  C4  A00 X   2      17.930  55.053 123.0240  0.00  0.00     0.000 C
ATOM     24  C5  A00 X   2      19.163  54.510 123.7970  0.00  0.00     0.000 C
ATOM     25  O5  A00 X   2      19.850  53.543 122.9620  0.00  0.00     0.000 O
ATOM     26   O  A00 X   2      17.440  56.265 120.8520  0.00  0.00     0.000 O
ATOM     28  HD  A00 X   2      17.191  55.487 120.5640  0.00  0.00     0.000 HD
BRANCH 21 30
ATOM     28   N  A00 X   2      18.947  55.621 119.8140  0.00  0.00     0.000 N
ATOM     30  HD  A00 X   2      19.324  54.926 119.4610  0.00  0.00     0.000 HD
ATOM     30   O  A00 X   2      19.031  54.393 117.8280  0.00  0.00     0.000 OA
ATOM     31   S  A00 X   2      19.713  55.478 118.4390  0.00  0.00     0.000 S
ATOM     32   O  A00 X   2      19.517  56.747 117.8090  0.00  0.00     0.000 OA
ATOM     33   O  A00 X   2      21.100  55.284 118.7440  0.00  0.00     0.000 OA
ENDBRANCH 21 30
BRANCH 24 34
ATOM     34   C  A00 X   2      18.947  54.004 125.2430  0.00  0.00     0.000 C
ATOM     35   O  A00 X   2      19.809  50.655 126.3830  0.00  0.00     0.000 OA
ATOM     36   O  A00 X   2      19.042  52.568 125.3130  0.00  0.00     0.000 O
ATOM     37   O  A00 X   2      21.341  52.138 125.3590  0.00  0.00     0.000 OA
ATOM     38   S  A00 X   2      20.203  52.016 126.2190  0.00  0.00     0.000 S
ATOM     39   O  A00 X   2      20.190  52.800 127.4170  0.00  0.00     0.000 OA
ENDBRANCH 24 34
BRANCH 20 40
ATOM     40  O4  A00 X   3      21.234  55.294 122.2000  0.00  0.00     0.000 O
BRANCH 40 44
ATOM     41  C1  A00 X   3      23.249  57.159 124.5630  0.00  0.00     0.000 C
ATOM     42  C2  A00 X   3      22.946  57.609 123.1180  0.00  0.00     0.000 C
ATOM     43  C3  A00 X   3      23.262  56.477 122.1060  0.00  0.00     0.000 C
ATOM     44  C4  A00 X   3      22.646  55.128 122.4530  0.00  0.00     0.000 C
ATOM     45  C5  A00 X   3      22.998  54.743 123.9180  0.00  0.00     0.000 C
ATOM     46  O5  A00 X   3      22.694  55.843 124.8350  0.00  0.00     0.000 O
ATOM     47   O  A00 X   3      23.101  56.810 120.7290  0.00  0.00     0.000 O
ATOM     49  HD  A00 X   3      22.787  56.004 120.6870  0.00  0.00     0.000 HD
BRANCH 42 49
ATOM     49   O  A00 X   3      21.551  57.982 123.0740  0.00  0.00     0.000 O
ATOM     50   O  A00 X   3      20.018  58.764 121.4100  0.00  0.00     0.000 OA
ATOM     51   O  A00 X   3      22.213  59.640 121.4400  0.00  0.00     0.000 OA
ATOM     52   O  A00 X   3      20.757  60.187 123.2200  0.00  0.00     0.000 OA
ATOM     53   S  A00 X   3      21.092  59.213 122.2390  0.00  0.00     0.000 S
ENDBRANCH 42 49
BRANCH 45 54
ATOM     54   C  A00 X   3      24.441  54.237 124.0400  0.00  0.00     0.000 C
ATOM     55   O  A00 X   3      24.837  53.742 125.0750  0.00  0.00     0.000 OA
ATOM     56   O  A00 X   3      25.216  54.324 123.1000  0.00  0.00     0.000 OA
ENDBRANCH 45 54
BRANCH 41 57
ATOM     57  O4  A00 X   4      24.655  57.280 124.8760  0.00  0.00     0.000 O
BRANCH 57 61
ATOM     58  C1  A00 X   4      26.795  58.177 128.5170  0.00  0.00     0.000 C
ATOM     59  C2  A00 X   4      25.956  56.876 128.4510  0.00  0.00     0.000 C
ATOM     60  C3  A00 X   4      25.542  56.483 127.0190  0.00  0.00     0.000 C
ATOM     61  C4  A00 X   4      24.951  57.681 126.2440  0.00  0.00     0.000 C
ATOM     62  C5  A00 X   4      26.037  58.785 126.2550  0.00  0.00     0.000 C
ATOM     63  O5  A00 X   4      26.288  59.195 127.6240  0.00  0.00     0.000 O
BRANCH 59 66
ATOM     64   N  A00 X   4      24.693  57.042 129.1920  0.00  0.00     0.000 N
ATOM     66  HD  A00 X   4      24.365  57.841 129.2500  0.00  0.00     0.000 HD
ATOM     66   O  A00 X   4      25.927  56.569 131.2050  0.00  0.00     0.000 OA
ATOM     67   S  A00 X   4      24.603  56.456 130.6780  0.00  0.00     0.000 S
ATOM     68   O  A00 X   4      23.633  57.344 131.2480  0.00  0.00     0.000 OA
ATOM     69   O  A00 X   4      24.103  55.139 130.4010  0.00  0.00     0.000 OA
ENDBRANCH 59 66
BRANCH 62 70
ATOM     70   C  A00 X   4      25.672  60.040 125.4260  0.00  0.00     0.000 C
ATOM     71   O  A00 X   4      23.141  62.539 126.1020  0.00  0.00     0.000 OA
ATOM     72   O  A00 X   4      23.615  61.327 124.1400  0.00  0.00     0.000 OA
ATOM     73   O  A00 X   4      24.786  60.873 126.1910  0.00  0.00     0.000 O
ATOM     74   O  A00 X   4      22.474  60.224 125.9900  0.00  0.00     0.000 OA
ATOM     75   S  A00 X   4      23.393  61.231 125.5650  0.00  0.00     0.000 S
ENDBRANCH 62 70
ENDBRANCH 57 61
ENDBRANCH 41 57
ENDBRANCH 40 44
ENDBRANCH 20 40
ENDBRANCH 19 23
ENDBRANCH 1 19
TORSDOF 14
ENDMDL
MODEL 95
REMARK VINA RESULT:       0.2     86.297     90.591
ROOT
ATOM      1  C1  A00 X   1     139.403 121.156  50.5540  0.00  0.00     0.000 C
ATOM      2  C2  A00 X   1     140.780 121.855  50.4000  0.00  0.00     0.000 C
ATOM      3  C3  A00 X   1     142.010 120.911  50.1880  0.00  0.00     0.000 C
ATOM      4  C4  A00 X   1     141.770 119.416  50.5210  0.00  0.00     0.000 C
ATOM      5  C5  A00 X   1     140.599 119.220  51.4840  0.00  0.00     0.000 C
ATOM      6  O5  A00 X   1     139.448 119.724  50.7710  0.00  0.00     0.000 O
ATOM      7   O  A00 X   1     143.073 121.348  51.0310  0.00  0.00     0.000 O
ATOM      9  HD  A00 X   1     143.059 120.483  51.0660  0.00  0.00     0.000 HD
ATOM      9   O  A00 X   1     141.555 118.646  49.3380  0.00  0.00     0.000 O
ATOM     11  HD  A00 X   1     141.541 117.781  49.3730  0.00  0.00     0.000 HD
ENDROOT
BRANCH 2 11
ATOM     11   O  A00 X   1     140.689 122.764  49.2850  0.00  0.00     0.000 O
ATOM     12   O  A00 X   1     142.469 124.277  48.7310  0.00  0.00     0.000 OA
ATOM     13   O  A00 X   1     141.314 124.526  50.8570  0.00  0.00     0.000 OA
ATOM     14   O  A00 X   1     140.191 124.996  48.8140  0.00  0.00     0.000 OA
ATOM     15   S  A00 X   1     141.224 124.227  49.4540  0.00  0.00     0.000 S
ENDBRANCH 2 11
BRANCH 5 16
ATOM     16   C  A00 X   1     140.787 119.849  52.8680  0.00  0.00     0.000 C
ATOM     17   O  A00 X   1     139.833 119.904  53.6160  0.00  0.00     0.000 OA
ATOM     18   O  A00 X   1     141.856 120.288  53.2450  0.00  0.00     0.000 OA
ENDBRANCH 5 16
BRANCH 1 19
ATOM     19  O4  A00 X   2     138.547 121.811  51.5230  0.00  0.00     0.000 O
BRANCH 19 23
ATOM     20  C1  A00 X   2     134.940 120.995  49.3570  0.00  0.00     0.000 C
ATOM     21  C2  A00 X   2     135.596 122.383  49.1570  0.00  0.00     0.000 C
ATOM     22  C3  A00 X   2     137.063 122.372  49.6340  0.00  0.00     0.000 C
ATOM     23  C4  A00 X   2     137.157 121.868  51.0920  0.00  0.00     0.000 C
ATOM     24  C5  A00 X   2     136.452 120.486  51.1630  0.00  0.00     0.000 C
ATOM     25  O5  A00 X   2     135.067 120.647  50.7610  0.00  0.00     0.000 O
ATOM     26   O  A00 X   2     137.646 123.658  49.3640  0.00  0.00     0.000 O
ATOM     28  HD  A00 X   2     136.994 124.088  49.7390  0.00  0.00     0.000 HD
BRANCH 21 30
ATOM     28   N  A00 X   2     136.126 123.358  48.1990  0.00  0.00     0.000 N
ATOM     30  HD  A00 X   2     135.263 123.384  48.1310  0.00  0.00     0.000 HD
ATOM     30   O  A00 X   2     134.380 124.771  47.5570  0.00  0.00     0.000 OA
ATOM     31   S  A00 X   2     135.223 123.788  46.9750  0.00  0.00     0.000 S
ATOM     32   O  A00 X   2     136.162 124.287  46.0190  0.00  0.00     0.000 OA
ATOM     33   O  A00 X   2     134.591 122.602  46.4790  0.00  0.00     0.000 OA
ENDBRANCH 21 30
BRANCH 24 34
ATOM     34   C  A00 X   2     136.605 119.660  52.4610  0.00  0.00     0.000 C
ATOM     35   O  A00 X   2     133.807 118.460  54.4590  0.00  0.00     0.000 OA
ATOM     36   O  A00 X   2     135.375 119.633  53.2120  0.00  0.00     0.000 O
ATOM     37   O  A00 X   2     134.084 117.993  52.1570  0.00  0.00     0.000 OA
ATOM     38   S  A00 X   2     134.740 118.208  53.4100  0.00  0.00     0.000 S
ATOM     39   O  A00 X   2     135.817 117.330  53.7550  0.00  0.00     0.000 OA
ENDBRANCH 24 34
BRANCH 20 40
ATOM     40  O4  A00 X   3     135.715 120.083  48.5650  0.00  0.00     0.000 O
BRANCH 40 44
ATOM     41  C1  A00 X   3     137.256 116.872  47.9060  0.00  0.00     0.000 C
ATOM     42  C2  A00 X   3     137.273 118.072  46.9350  0.00  0.00     0.000 C
ATOM     43  C3  A00 X   3     135.844 118.633  46.7210  0.00  0.00     0.000 C
ATOM     44  C4  A00 X   3     135.075 118.915  48.0060  0.00  0.00     0.000 C
ATOM     45  C5  A00 X   3     135.099 117.663  48.9260  0.00  0.00     0.000 C
ATOM     46  O5  A00 X   3     136.465 117.161  49.0920  0.00  0.00     0.000 O
ATOM     47   O  A00 X   3     135.726 119.692  45.7730  0.00  0.00     0.000 O
ATOM     49  HD  A00 X   3     135.161 119.997  46.3530  0.00  0.00     0.000 HD
BRANCH 42 49
ATOM     49   O  A00 X   3     138.151 119.066  47.5070  0.00  0.00     0.000 O
ATOM     50   O  A00 X   3     138.881 121.271  46.9270  0.00  0.00     0.000 OA
ATOM     51   O  A00 X   3     138.722 119.638  45.2250  0.00  0.00     0.000 OA
ATOM     52   O  A00 X   3     140.391 119.384  46.8790  0.00  0.00     0.000 OA
ATOM     53   S  A00 X   3     139.097 119.899  46.5930  0.00  0.00     0.000 S
ENDBRANCH 42 49
BRANCH 45 54
ATOM     54   C  A00 X   3     134.116 116.588  48.4470  0.00  0.00     0.000 C
ATOM     55   O  A00 X   3     133.537 116.707  47.3870  0.00  0.00     0.000 OA
ATOM     56   O  A00 X   3     133.897 115.595  49.1240  0.00  0.00     0.000 OA
ENDBRANCH 45 54
BRANCH 41 57
ATOM     57  O4  A00 X   4     136.882 115.647  47.2360  0.00  0.00     0.000 O
BRANCH 57 61
ATOM     58  C1  A00 X   4     138.000 111.516  47.8070  0.00  0.00     0.000 C
ATOM     59  C2  A00 X   4     137.228 112.239  48.9390  0.00  0.00     0.000 C
ATOM     60  C3  A00 X   4     136.578 113.564  48.4920  0.00  0.00     0.000 C
ATOM     61  C4  A00 X   4     137.567 114.451  47.7060  0.00  0.00     0.000 C
ATOM     62  C5  A00 X   4     138.052 113.604  46.5030  0.00  0.00     0.000 C
ATOM     63  O5  A00 X   4     138.763 112.439  46.9960  0.00  0.00     0.000 O
BRANCH 59 66
ATOM     64   N  A00 X   4     137.984 112.648  50.1370  0.00  0.00     0.000 N
ATOM     66  HD  A00 X   4     138.811 112.882  50.0270  0.00  0.00     0.000 HD
ATOM     66   O  A00 X   4     137.925 110.345  50.8380  0.00  0.00     0.000 OA
ATOM     67   S  A00 X   4     138.004 111.659  51.3940  0.00  0.00     0.000 S
ATOM     68   O  A00 X   4     139.267 112.008  51.9770  0.00  0.00     0.000 OA
ATOM     69   O  A00 X   4     136.866 112.149  52.1190  0.00  0.00     0.000 OA
ENDBRANCH 59 66
BRANCH 62 70
ATOM     70   C  A00 X   4     138.977 114.366  45.5250  0.00  0.00     0.000 C
ATOM     71   O  A00 X   4     142.367 115.523  46.0540  0.00  0.00     0.000 OA
ATOM     72   O  A00 X   4     140.477 116.646  45.2110  0.00  0.00     0.000 OA
ATOM     73   O  A00 X   4     140.309 114.402  46.0610  0.00  0.00     0.000 O
ATOM     74   O  A00 X   4     140.656 116.220  47.6040  0.00  0.00     0.000 OA
ATOM     75   S  A00 X   4     140.976 115.805  46.2760  0.00  0.00     0.000 S
ENDBRANCH 62 70
ENDBRANCH 57 61
ENDBRANCH 41 57
ENDBRANCH 40 44
ENDBRANCH 20 40
ENDBRANCH 19 23
ENDBRANCH 1 19
TORSDOF 14
ENDMDL
MODEL 96
REMARK VINA RESULT:       0.2     49.214     52.939
ROOT
ATOM      1  C1  A00 X   1      57.593  67.769  17.6850  0.00  0.00     0.000 C
ATOM      2  C2  A00 X   1      56.064  68.036  17.6660  0.00  0.00     0.000 C
ATOM      3  C3  A00 X   1      55.183  67.049  18.5010  0.00  0.00     0.000 C
ATOM      4  C4  A00 X   1      55.881  65.734  18.9350  0.00  0.00     0.000 C
ATOM      5  C5  A00 X   1      57.074  65.392  18.0420  0.00  0.00     0.000 C
ATOM      6  O5  A00 X   1      57.998  66.488  18.2270  0.00  0.00     0.000 O
ATOM      7   O  A00 X   1      54.054  66.669  17.7180  0.00  0.00     0.000 O
ATOM      9  HD  A00 X   1      54.336  65.957  18.1220  0.00  0.00     0.000 HD
ATOM      9   O  A00 X   1      56.300  65.791  20.2980  0.00  0.00     0.000 O
ATOM     11  HD  A00 X   1      56.582  65.079  20.7020  0.00  0.00     0.000 HD
ENDROOT
BRANCH 2 11
ATOM     11   O  A00 X   1      55.847  69.378  18.1440  0.00  0.00     0.000 O
ATOM     12   O  A00 X   1      53.645  70.231  18.5800  0.00  0.00     0.000 OA
ATOM     13   O  A00 X   1      54.257  69.621  16.3060  0.00  0.00     0.000 OA
ATOM     14   O  A00 X   1      55.264  71.499  17.3630  0.00  0.00     0.000 OA
ATOM     15   S  A00 X   1      54.657  70.210  17.5550  0.00  0.00     0.000 S
ENDBRANCH 2 11
BRANCH 5 16
ATOM     16   C  A00 X   1      56.728  65.123  16.5740  0.00  0.00     0.000 C
ATOM     17   O  A00 X   1      55.575  64.876  16.2840  0.00  0.00     0.000 OA
ATOM     18   O  A00 X   1      57.562  65.156  15.6910  0.00  0.00     0.000 OA
ENDBRANCH 5 16
BRANCH 1 19
ATOM     19  O4  A00 X   2      58.223  68.024  16.4050  0.00  0.00     0.000 O
BRANCH 19 23
ATOM     20  C1  A00 X   2      61.733  69.772  18.1340  0.00  0.00     0.000 C
ATOM     21  C2  A00 X   2      60.628  70.734  17.6330  0.00  0.00     0.000 C
ATOM     22  C3  A00 X   2      59.290  69.987  17.4510  0.00  0.00     0.000 C
ATOM     23  C4  A00 X   2      59.475  68.756  16.5350  0.00  0.00     0.000 C
ATOM     24  C5  A00 X   2      60.615  67.887  17.1320  0.00  0.00     0.000 C
ATOM     25  O5  A00 X   2      61.830  68.680  17.1820  0.00  0.00     0.000 O
ATOM     26   O  A00 X   2      58.284  70.933  17.0530  0.00  0.00     0.000 O
ATOM     28  HD  A00 X   2      58.772  71.261  16.4180  0.00  0.00     0.000 HD
BRANCH 21 30
ATOM     28   N  A00 X   2      61.680  71.678  17.2440  0.00  0.00     0.000 N
ATOM     30  HD  A00 X   2      60.935  72.120  17.2490  0.00  0.00     0.000 HD
ATOM     30   O  A00 X   2      60.837  73.844  17.4810  0.00  0.00     0.000 OA
ATOM     31   S  A00 X   2      61.272  72.979  16.4430  0.00  0.00     0.000 S
ATOM     32   O  A00 X   2      62.487  73.373  15.7980  0.00  0.00     0.000 OA
ATOM     33   O  A00 X   2      60.296  72.588  15.4700  0.00  0.00     0.000 OA
ENDBRANCH 21 30
BRANCH 24 34
ATOM     34   C  A00 X   2      60.845  66.479  16.5330  0.00  0.00     0.000 C
ATOM     35   O  A00 X   2      63.889  65.467  14.8090  0.00  0.00     0.000 OA
ATOM     36   O  A00 X   2      61.962  66.476  15.6210  0.00  0.00     0.000 O
ATOM     37   O  A00 X   2      63.842  66.343  17.0060  0.00  0.00     0.000 OA
ATOM     38   S  A00 X   2      63.161  65.545  16.0330  0.00  0.00     0.000 S
ATOM     39   O  A00 X   2      62.582  64.312  16.4750  0.00  0.00     0.000 OA
ENDBRANCH 24 34
BRANCH 20 40
ATOM     40  O4  A00 X   3      61.267  69.270  19.3950  0.00  0.00     0.000 O
BRANCH 40 44
ATOM     41  C1  A00 X   3      60.820  66.385  21.5410  0.00  0.00     0.000 C
ATOM     42  C2  A00 X   3      60.365  67.819  21.8880  0.00  0.00     0.000 C
ATOM     43  C3  A00 X   3      61.521  68.832  21.6890  0.00  0.00     0.000 C
ATOM     44  C4  A00 X   3      62.221  68.738  20.3390  0.00  0.00     0.000 C
ATOM     45  C5  A00 X   3      62.653  67.270  20.0650  0.00  0.00     0.000 C
ATOM     46  O5  A00 X   3      61.534  66.348  20.2740  0.00  0.00     0.000 O
ATOM     47   O  A00 X   3      61.240  70.180  22.0630  0.00  0.00     0.000 O
ATOM     49  HD  A00 X   3      61.705  70.355  21.3540  0.00  0.00     0.000 HD
BRANCH 42 49
ATOM     49   O  A00 X   3      59.242  68.125  21.0320  0.00  0.00     0.000 O
ATOM     50   O  A00 X   3      57.829  70.017  20.6380  0.00  0.00     0.000 OA
ATOM     51   O  A00 X   3      58.426  69.482  22.8620  0.00  0.00     0.000 OA
ATOM     52   O  A00 X   3      56.992  68.009  21.6950  0.00  0.00     0.000 OA
ATOM     53   S  A00 X   3      58.044  68.959  21.5740  0.00  0.00     0.000 S
ENDBRANCH 42 49
BRANCH 45 54
ATOM     54   C  A00 X   3      63.906  66.888  20.8620  0.00  0.00     0.000 C
ATOM     55   O  A00 X   3      64.613  65.969  20.5010  0.00  0.00     0.000 OA
ATOM     56   O  A00 X   3      64.214  67.500  21.8730  0.00  0.00     0.000 OA
ENDBRANCH 45 54
BRANCH 41 57
ATOM     57  O4  A00 X   4      61.537  65.773  22.6360  0.00  0.00     0.000 O
BRANCH 57 61
ATOM     58  C1  A00 X   4      62.207  61.671  23.8050  0.00  0.00     0.000 C
ATOM     59  C2  A00 X   4      63.043  62.256  22.6390  0.00  0.00     0.000 C
ATOM     60  C3  A00 X   4      62.982  63.794  22.5500  0.00  0.00     0.000 C
ATOM     61  C4  A00 X   4      61.532  64.317  22.6410  0.00  0.00     0.000 C
ATOM     62  C5  A00 X   4      60.961  63.787  23.9790  0.00  0.00     0.000 C
ATOM     63  O5  A00 X   4      60.931  62.337  23.9450  0.00  0.00     0.000 O
BRANCH 59 66
ATOM     64   N  A00 X   4      64.346  62.085  21.9720  0.00  0.00     0.000 N
ATOM     66  HD  A00 X   4      64.442  62.434  21.1850  0.00  0.00     0.000 HD
ATOM     66   O  A00 X   4      63.796  59.754  21.7160  0.00  0.00     0.000 OA
ATOM     67   S  A00 X   4      64.939  60.605  21.8350  0.00  0.00     0.000 S
ATOM     68   O  A00 X   4      65.727  60.751  20.6470  0.00  0.00     0.000 OA
ATOM     69   O  A00 X   4      65.708  60.528  23.0450  0.00  0.00     0.000 OA
ENDBRANCH 59 66
BRANCH 62 70
ATOM     70   C  A00 X   4      59.538  64.299  24.3070  0.00  0.00     0.000 C
ATOM     71   O  A00 X   4      56.351  62.985  23.2030  0.00  0.00     0.000 OA
ATOM     72   O  A00 X   4      57.189  65.185  23.1940  0.00  0.00     0.000 OA
ATOM     73   O  A00 X   4      58.571  63.334  23.8620  0.00  0.00     0.000 O
ATOM     74   O  A00 X   4      57.988  63.586  21.5380  0.00  0.00     0.000 OA
ATOM     75   S  A00 X   4      57.472  63.809  22.8500  0.00  0.00     0.000 S
ENDBRANCH 62 70
ENDBRANCH 57 61
ENDBRANCH 41 57
ENDBRANCH 40 44
ENDBRANCH 20 40
ENDBRANCH 19 23
ENDBRANCH 1 19
TORSDOF 14
ENDMDL
MODEL 97
REMARK VINA RESULT:       0.2     91.663     95.105
ROOT
ATOM      1  C1  A00 X   1     131.093  81.739  74.9740  0.00  0.00     0.000 C
ATOM      2  C2  A00 X   1     130.646  83.225  75.0070  0.00  0.00     0.000 C
ATOM      3  C3  A00 X   1     131.209  84.137  73.8680  0.00  0.00     0.000 C
ATOM      4  C4  A00 X   1     132.410  83.556  73.0780  0.00  0.00     0.000 C
ATOM      5  C5  A00 X   1     133.160  82.488  73.8720  0.00  0.00     0.000 C
ATOM      6  O5  A00 X   1     132.191  81.436  74.0780  0.00  0.00     0.000 O
ATOM      7   O  A00 X   1     131.657  85.363  74.4420  0.00  0.00     0.000 O
ATOM      9  HD  A00 X   1     132.244  85.129  73.8490  0.00  0.00     0.000 HD
ATOM      9   O  A00 X   1     131.998  83.022  71.8200  0.00  0.00     0.000 O
ATOM     11  HD  A00 X   1     132.584  82.788  71.2270  0.00  0.00     0.000 HD
ENDROOT
BRANCH 2 11
ATOM     11   O  A00 X   1     129.206  83.251  74.9610  0.00  0.00     0.000 O
ATOM     12   O  A00 X   1     127.979  85.303  74.7350  0.00  0.00     0.000 OA
ATOM     13   O  A00 X   1     129.325  84.934  76.7280  0.00  0.00     0.000 OA
ATOM     14   O  A00 X   1     127.364  83.643  76.3410  0.00  0.00     0.000 OA
ATOM     15   S  A00 X   1     128.443  84.378  75.7380  0.00  0.00     0.000 S
ENDBRANCH 2 11
BRANCH 5 16
ATOM     16   C  A00 X   1     133.814  82.982  75.1660  0.00  0.00     0.000 C
ATOM     17   O  A00 X   1     134.245  82.161  75.9500  0.00  0.00     0.000 OA
ATOM     18   O  A00 X   1     133.921  84.162  75.4330  0.00  0.00     0.000 OA
ENDBRANCH 5 16
BRANCH 1 19
ATOM     19  O4  A00 X   2     131.324  81.193  76.2960  0.00  0.00     0.000 O
BRANCH 19 23
ATOM     20  C1  A00 X   2     129.698  77.346  75.3350  0.00  0.00     0.000 C
ATOM     21  C2  A00 X   2     128.762  78.364  76.0310  0.00  0.00     0.000 C
ATOM     22  C3  A00 X   2     129.326  79.796  75.9180  0.00  0.00     0.000 C
ATOM     23  C4  A00 X   2     130.776  79.853  76.4500  0.00  0.00     0.000 C
ATOM     24  C5  A00 X   2     131.603  78.779  75.6910  0.00  0.00     0.000 C
ATOM     25  O5  A00 X   2     131.014  77.476  75.9370  0.00  0.00     0.000 O
ATOM     26   O  A00 X   2     128.391  80.708  76.5170  0.00  0.00     0.000 O
ATOM     28  HD  A00 X   2     128.327  80.244  77.2450  0.00  0.00     0.000 HD
BRANCH 21 30
ATOM     28   N  A00 X   2     127.485  79.082  75.9860  0.00  0.00     0.000 N
ATOM     30  HD  A00 X   2     127.304  78.262  76.1980  0.00  0.00     0.000 HD
ATOM     30   O  A00 X   2     125.882  77.783  77.0830  0.00  0.00     0.000 OA
ATOM     31   S  A00 X   2     126.156  78.252  75.7710  0.00  0.00     0.000 S
ATOM     32   O  A00 X   2     125.230  79.220  75.2700  0.00  0.00     0.000 OA
ATOM     33   O  A00 X   2     126.431  77.263  74.7720  0.00  0.00     0.000 OA
ENDBRANCH 21 30
BRANCH 24 34
ATOM     34   C  A00 X   2     133.139  78.784  75.8720  0.00  0.00     0.000 C
ATOM     35   O  A00 X   2     135.058  75.946  77.1030  0.00  0.00     0.000 OA
ATOM     36   O  A00 X   2     133.572  77.681  76.6920  0.00  0.00     0.000 O
ATOM     37   O  A00 X   2     133.612  75.852  75.2340  0.00  0.00     0.000 OA
ATOM     38   S  A00 X   2     134.530  76.654  75.9840  0.00  0.00     0.000 S
ATOM     39   O  A00 X   2     135.485  77.430  75.2510  0.00  0.00     0.000 OA
ENDBRANCH 24 34
BRANCH 20 40
ATOM     40  O4  A00 X   3     129.758  77.751  73.9600  0.00  0.00     0.000 O
BRANCH 40 44
ATOM     41  C1  A00 X   3     131.494  78.249  70.8200  0.00  0.00     0.000 C
ATOM     42  C2  A00 X   3     129.991  78.518  71.0460  0.00  0.00     0.000 C
ATOM     43  C3  A00 X   3     129.300  77.294  71.7010  0.00  0.00     0.000 C
ATOM     44  C4  A00 X   3     130.004  76.758  72.9410  0.00  0.00     0.000 C
ATOM     45  C5  A00 X   3     131.508  76.508  72.6330  0.00  0.00     0.000 C
ATOM     46  O5  A00 X   3     132.116  77.684  72.0070  0.00  0.00     0.000 O
ATOM     47   O  A00 X   3     127.889  77.397  71.8790  0.00  0.00     0.000 O
ATOM     49  HD  A00 X   3     128.067  76.997  72.6260  0.00  0.00     0.000 HD
BRANCH 42 49
ATOM     49   O  A00 X   3     129.892  79.691  71.8840  0.00  0.00     0.000 O
ATOM     50   O  A00 X   3     128.128  80.968  72.8760  0.00  0.00     0.000 OA
ATOM     51   O  A00 X   3     127.870  80.199  70.6560  0.00  0.00     0.000 OA
ATOM     52   O  A00 X   3     129.490  81.864  71.0900  0.00  0.00     0.000 OA
ATOM     53   S  A00 X   3     128.783  80.751  71.6250  0.00  0.00     0.000 S
ENDBRANCH 42 49
BRANCH 45 54
ATOM     54   C  A00 X   3     131.715  75.220  71.8270  0.00  0.00     0.000 C
ATOM     55   O  A00 X   3     132.831  74.777  71.6450  0.00  0.00     0.000 OA
ATOM     56   O  A00 X   3     130.763  74.619  71.3530  0.00  0.00     0.000 OA
ENDBRANCH 45 54
BRANCH 41 57
ATOM     57  O4  A00 X   4     131.724  77.482  69.6160  0.00  0.00     0.000 O
BRANCH 57 61
ATOM     58  C1  A00 X   4     134.947  77.402  66.7450  0.00  0.00     0.000 C
ATOM     59  C2  A00 X   4     135.242  76.969  68.2030  0.00  0.00     0.000 C
ATOM     60  C3  A00 X   4     133.970  76.694  69.0310  0.00  0.00     0.000 C
ATOM     61  C4  A00 X   4     132.934  77.829  68.8840  0.00  0.00     0.000 C
ATOM     62  C5  A00 X   4     132.629  77.947  67.3700  0.00  0.00     0.000 C
ATOM     63  O5  A00 X   4     133.840  78.329  66.6680  0.00  0.00     0.000 O
BRANCH 59 66
ATOM     64   N  A00 X   4     135.953  78.041  68.9220  0.00  0.00     0.000 N
ATOM     66  HD  A00 X   4     135.815  78.856  68.6640  0.00  0.00     0.000 HD
ATOM     66   O  A00 X   4     137.982  77.244  67.8980  0.00  0.00     0.000 OA
ATOM     67   S  A00 X   4     137.542  77.925  69.0750  0.00  0.00     0.000 S
ATOM     68   O  A00 X   4     137.895  79.313  69.1540  0.00  0.00     0.000 OA
ATOM     69   O  A00 X   4     137.626  77.225  70.3250  0.00  0.00     0.000 OA
ENDBRANCH 59 66
BRANCH 62 70
ATOM     70   C  A00 X   4     131.519  78.968  67.0270  0.00  0.00     0.000 C
ATOM     71   O  A00 X   4     131.610  82.579  67.2790  0.00  0.00     0.000 OA
ATOM     72   O  A00 X   4     130.009  81.028  68.0380  0.00  0.00     0.000 OA
ATOM     73   O  A00 X   4     132.072  80.294  67.0420  0.00  0.00     0.000 O
ATOM     74   O  A00 X   4     132.113  81.273  69.2430  0.00  0.00     0.000 OA
ATOM     75   S  A00 X   4     131.418  81.351  67.9990  0.00  0.00     0.000 S
ENDBRANCH 62 70
ENDBRANCH 57 61
ENDBRANCH 41 57
ENDBRANCH 40 44
ENDBRANCH 20 40
ENDBRANCH 19 23
ENDBRANCH 1 19
TORSDOF 14
ENDMDL
MODEL 98
REMARK VINA RESULT:       0.2    131.604    135.336
ROOT
ATOM      1  C1  A00 X   1     132.275 118.776 146.2110  0.00  0.00     0.000 C
ATOM      2  C2  A00 X   1     131.158 119.449 147.0530  0.00  0.00     0.000 C
ATOM      3  C3  A00 X   1     131.589 119.994 148.4540  0.00  0.00     0.000 C
ATOM      4  C4  A00 X   1     132.954 119.482 148.9810  0.00  0.00     0.000 C
ATOM      5  C5  A00 X   1     133.366 118.163 148.3280  0.00  0.00     0.000 C
ATOM      6  O5  A00 X   1     133.501 118.475 146.9230  0.00  0.00     0.000 O
ATOM      7   O  A00 X   1     130.611 119.605 149.4160  0.00  0.00     0.000 O
ATOM      9  HD  A00 X   1     131.388 119.499 149.7840  0.00  0.00     0.000 HD
ATOM      9   O  A00 X   1     133.982 120.454 148.7960  0.00  0.00     0.000 O
ATOM     11  HD  A00 X   1     134.759 120.349 149.1640  0.00  0.00     0.000 HD
ENDROOT
BRANCH 2 11
ATOM     11   O  A00 X   1     130.614 120.532 146.2740  0.00  0.00     0.000 O
ATOM     12   O  A00 X   1     128.741 121.827 147.0350  0.00  0.00     0.000 OA
ATOM     13   O  A00 X   1     128.440 119.459 146.5680  0.00  0.00     0.000 OA
ATOM     14   O  A00 X   1     128.864 120.992 144.7990  0.00  0.00     0.000 OA
ATOM     15   S  A00 X   1     129.058 120.701 146.1940  0.00  0.00     0.000 S
ENDBRANCH 2 11
BRANCH 5 16
ATOM     16   C  A00 X   1     132.431 116.982 148.6060  0.00  0.00     0.000 C
ATOM     17   O  A00 X   1     131.657 117.061 149.5380  0.00  0.00     0.000 OA
ATOM     18   O  A00 X   1     132.432 115.975 147.9260  0.00  0.00     0.000 OA
ENDBRANCH 5 16
BRANCH 1 19
ATOM     19  O4  A00 X   2     131.802 117.627 145.4660  0.00  0.00     0.000 O
BRANCH 19 23
ATOM     20  C1  A00 X   2     134.233 118.465 142.0380  0.00  0.00     0.000 C
ATOM     21  C2  A00 X   2     132.754 118.920 141.9930  0.00  0.00     0.000 C
ATOM     22  C3  A00 X   2     132.145 118.948 143.4110  0.00  0.00     0.000 C
ATOM     23  C4  A00 X   2     132.333 117.583 144.1100  0.00  0.00     0.000 C
ATOM     24  C5  A00 X   2     133.846 117.234 144.0730  0.00  0.00     0.000 C
ATOM     25  O5  A00 X   2     134.276 117.167 142.6880  0.00  0.00     0.000 O
ATOM     26   O  A00 X   2     130.797 119.441 143.3240  0.00  0.00     0.000 O
ATOM     28  HD  A00 X   2     130.584 118.890 142.6900  0.00  0.00     0.000 HD
BRANCH 21 30
ATOM     28   N  A00 X   2     132.748 118.630 140.5560  0.00  0.00     0.000 N
ATOM     30  HD  A00 X   2     132.052 119.120 140.7160  0.00  0.00     0.000 HD
ATOM     30   O  A00 X   2     131.281 120.123 139.5190  0.00  0.00     0.000 OA
ATOM     31   S  A00 X   2     131.381 118.729 139.7680  0.00  0.00     0.000 S
ATOM     32   O  A00 X   2     131.600 117.922 138.6080  0.00  0.00     0.000 OA
ATOM     33   O  A00 X   2     130.371 118.143 140.5980  0.00  0.00     0.000 OA
ENDBRANCH 21 30
BRANCH 24 34
ATOM     34   C  A00 X   2     134.333 116.027 144.9080  0.00  0.00     0.000 C
ATOM     35   O  A00 X   2     133.096 112.627 144.4950  0.00  0.00     0.000 OA
ATOM     36   O  A00 X   2     133.436 114.906 144.7790  0.00  0.00     0.000 O
ATOM     37   O  A00 X   2     134.031 113.915 142.7460  0.00  0.00     0.000 OA
ATOM     38   S  A00 X   2     134.066 113.613 144.1440  0.00  0.00     0.000 S
ATOM     39   O  A00 X   2     135.350 113.445 144.7550  0.00  0.00     0.000 OA
ENDBRANCH 24 34
BRANCH 20 40
ATOM     40  O4  A00 X   3     134.912 119.432 142.8530  0.00  0.00     0.000 O
BRANCH 40 44
ATOM     41  C1  A00 X   3     137.342 120.169 145.4360  0.00  0.00     0.000 C
ATOM     42  C2  A00 X   3     136.485 121.226 144.7080  0.00  0.00     0.000 C
ATOM     43  C3  A00 X   3     136.581 121.055 143.1700  0.00  0.00     0.000 C
ATOM     44  C4  A00 X   3     136.330 119.637 142.6730  0.00  0.00     0.000 C
ATOM     45  C5  A00 X   3     137.230 118.634 143.4490  0.00  0.00     0.000 C
ATOM     46  O5  A00 X   3     137.116 118.838 144.8940  0.00  0.00     0.000 O
ATOM     47   O  A00 X   3     135.896 122.033 142.3900  0.00  0.00     0.000 O
ATOM     49  HD  A00 X   3     135.708 121.346 141.8980  0.00  0.00     0.000 HD
BRANCH 42 49
ATOM     49   O  A00 X   3     135.127 121.063 145.1730  0.00  0.00     0.000 O
ATOM     50   O  A00 X   3     133.008 122.082 144.7240  0.00  0.00     0.000 OA
ATOM     51   O  A00 X   3     134.921 123.460 144.9050  0.00  0.00     0.000 OA
ATOM     52   O  A00 X   3     134.127 122.372 146.8470  0.00  0.00     0.000 OA
ATOM     53   S  A00 X   3     134.229 122.309 145.4300  0.00  0.00     0.000 S
ENDBRANCH 42 49
BRANCH 45 54
ATOM     54   C  A00 X   3     138.679 118.668 142.9480  0.00  0.00     0.000 C
ATOM     55   O  A00 X   3     139.455 117.780 143.2370  0.00  0.00     0.000 OA
ATOM     56   O  A00 X   3     139.078 119.588 142.2500  0.00  0.00     0.000 OA
ENDBRANCH 45 54
BRANCH 41 57
ATOM     57  O4  A00 X   4     138.734 120.553 145.4870  0.00  0.00     0.000 O
BRANCH 57 61
ATOM     58  C1  A00 X   4     141.887 119.800 148.3380  0.00  0.00     0.000 C
ATOM     59  C2  A00 X   4     141.224 118.592 147.6300  0.00  0.00     0.000 C
ATOM     60  C3  A00 X   4     140.387 118.987 146.3970  0.00  0.00     0.000 C
ATOM     61  C4  A00 X   4     139.439 120.167 146.7010  0.00  0.00     0.000 C
ATOM     62  C5  A00 X   4     140.334 121.330 147.1950  0.00  0.00     0.000 C
ATOM     63  O5  A00 X   4     140.995 120.935 148.4240  0.00  0.00     0.000 O
BRANCH 59 66
ATOM     64   N  A00 X   4     141.582 117.228 147.2020  0.00  0.00     0.000 N
ATOM     66  HD  A00 X   4     140.936 116.698 146.9750  0.00  0.00     0.000 HD
ATOM     66   O  A00 X   4     142.180 116.775 149.4910  0.00  0.00     0.000 OA
ATOM     67   S  A00 X   4     142.510 116.351 148.1660  0.00  0.00     0.000 S
ATOM     68   O  A00 X   4     142.074 115.031 147.8140  0.00  0.00     0.000 OA
ATOM     69   O  A00 X   4     143.806 116.698 147.6550  0.00  0.00     0.000 OA
ENDBRANCH 59 66
BRANCH 62 70
ATOM     70   C  A00 X   4     139.571 122.651 147.4500  0.00  0.00     0.000 C
ATOM     71   O  A00 X   4     137.130 123.393 150.0180  0.00  0.00     0.000 OA
ATOM     72   O  A00 X   4     137.068 123.756 147.6930  0.00  0.00     0.000 OA
ATOM     73   O  A00 X   4     138.896 122.573 148.7150  0.00  0.00     0.000 O
ATOM     74   O  A00 X   4     136.740 121.506 148.5690  0.00  0.00     0.000 OA
ATOM     75   S  A00 X   4     137.343 122.790 148.7330  0.00  0.00     0.000 S
ENDBRANCH 62 70
ENDBRANCH 57 61
ENDBRANCH 41 57
ENDBRANCH 40 44
ENDBRANCH 20 40
ENDBRANCH 19 23
ENDBRANCH 1 19
TORSDOF 14
ENDMDL
MODEL 99
REMARK VINA RESULT:       0.2     16.631     21.569
ROOT
ATOM      1  C1  A00 X   1      54.931 128.121  33.5260  0.00  0.00     0.000 C
ATOM      2  C2  A00 X   1      56.430 128.170  33.9240  0.00  0.00     0.000 C
ATOM      3  C3  A00 X   1      57.432 127.524  32.9110  0.00  0.00     0.000 C
ATOM      4  C4  A00 X   1      56.796 126.606  31.8350  0.00  0.00     0.000 C
ATOM      5  C5  A00 X   1      55.432 126.068  32.2690  0.00  0.00     0.000 C
ATOM      6  O5  A00 X   1      54.605 127.243  32.4200  0.00  0.00     0.000 O
ATOM      7   O  A00 X   1      58.359 126.719  33.6340  0.00  0.00     0.000 O
ATOM      9  HD  A00 X   1      58.144 126.280  32.9190  0.00  0.00     0.000 HD
ATOM      9   O  A00 X   1      56.673 127.277  30.5820  0.00  0.00     0.000 O
ATOM     11  HD  A00 X   1      56.458 126.839  29.8670  0.00  0.00     0.000 HD
ENDROOT
BRANCH 2 11
ATOM     11   O  A00 X   1      56.787 129.552  34.1210  0.00  0.00     0.000 O
ATOM     12   O  A00 X   1      59.053 130.233  34.5310  0.00  0.00     0.000 OA
ATOM     13   O  A00 X   1      57.922 128.819  36.1560  0.00  0.00     0.000 OA
ATOM     14   O  A00 X   1      57.234 131.073  35.8340  0.00  0.00     0.000 OA
ATOM     15   S  A00 X   1      57.834 129.914  35.2300  0.00  0.00     0.000 S
ENDBRANCH 2 11
BRANCH 5 16
ATOM     16   C  A00 X   1      55.455 125.171  33.5110  0.00  0.00     0.000 C
ATOM     17   O  A00 X   1      56.515 124.700  33.8680  0.00  0.00     0.000 OA
ATOM     18   O  A00 X   1      54.454 124.921  34.1520  0.00  0.00     0.000 OA
ENDBRANCH 5 16
BRANCH 1 19
ATOM     19  O4  A00 X   2      54.057 127.892  34.6580  0.00  0.00     0.000 O
BRANCH 19 23
ATOM     20  C1  A00 X   2      50.976 130.496  33.2110  0.00  0.00     0.000 C
ATOM     21  C2  A00 X   2      51.982 131.078  34.2330  0.00  0.00     0.000 C
ATOM     22  C3  A00 X   2      53.246 130.198  34.3230  0.00  0.00     0.000 C
ATOM     23  C4  A00 X   2      52.866 128.730  34.6240  0.00  0.00     0.000 C
ATOM     24  C5  A00 X   2      51.845 128.274  33.5460  0.00  0.00     0.000 C
ATOM     25  O5  A00 X   2      50.678 129.133  33.6140  0.00  0.00     0.000 O
ATOM     26   O  A00 X   2      54.175 130.815  35.2300  0.00  0.00     0.000 O
ATOM     28  HD  A00 X   2      53.580 130.913  35.8520  0.00  0.00     0.000 HD
BRANCH 21 30
ATOM     28   N  A00 X   2      50.891 131.898  34.7680  0.00  0.00     0.000 N
ATOM     30  HD  A00 X   2      51.628 132.229  35.0790  0.00  0.00     0.000 HD
ATOM     30   O  A00 X   2      51.806 133.887  35.5820  0.00  0.00     0.000 OA
ATOM     31   S  A00 X   2      51.146 132.735  36.0850  0.00  0.00     0.000 S
ATOM     32   O  A00 X   2      49.831 132.968  36.5980  0.00  0.00     0.000 OA
ATOM     33   O  A00 X   2      51.889 131.900  36.9810  0.00  0.00     0.000 OA
ENDBRANCH 21 30
BRANCH 24 34
ATOM     34   C  A00 X   2      51.479 126.772  33.4830  0.00  0.00     0.000 C
ATOM     35   O  A00 X   2      48.104 125.476  33.9140  0.00  0.00     0.000 OA
ATOM     36   O  A00 X   2      50.168 126.531  34.0320  0.00  0.00     0.000 O
ATOM     37   O  A00 X   2      48.699 127.103  32.3040  0.00  0.00     0.000 OA
ATOM     38   S  A00 X   2      49.117 125.939  33.0230  0.00  0.00     0.000 S
ATOM     39   O  A00 X   2      49.794 124.913  32.2890  0.00  0.00     0.000 OA
ENDBRANCH 24 34
BRANCH 20 40
ATOM     40  O4  A00 X   3      51.665 130.484  31.9530  0.00  0.00     0.000 O
BRANCH 40 44
ATOM     41  C1  A00 X   3      52.459 128.813  28.8380  0.00  0.00     0.000 C
ATOM     42  C2  A00 X   3      53.002 130.196  29.2580  0.00  0.00     0.000 C
ATOM     43  C3  A00 X   3      51.851 131.134  29.7020  0.00  0.00     0.000 C
ATOM     44  C4  A00 X   3      50.901 130.528  30.7280  0.00  0.00     0.000 C
ATOM     45  C5  A00 X   3      50.394 129.145  30.2330  0.00  0.00     0.000 C
ATOM     46  O5  A00 X   3      51.513 128.297  29.8150  0.00  0.00     0.000 O
ATOM     47   O  A00 X   3      52.227 132.470  30.0310  0.00  0.00     0.000 O
ATOM     49  HD  A00 X   3      51.637 132.362  30.6560  0.00  0.00     0.000 HD
BRANCH 42 49
ATOM     49   O  A00 X   3      53.944 129.972  30.3300  0.00  0.00     0.000 O
ATOM     50   O  A00 X   3      55.239 131.336  31.8120  0.00  0.00     0.000 OA
ATOM     51   O  A00 X   3      55.068 131.964  29.5390  0.00  0.00     0.000 OA
ATOM     52   O  A00 X   3      56.279 130.008  30.0800  0.00  0.00     0.000 OA
ATOM     53   S  A00 X   3      55.212 130.866  30.4620  0.00  0.00     0.000 S
ENDBRANCH 42 49
BRANCH 45 54
ATOM     54   C  A00 X   3      49.311 129.289  29.1570  0.00  0.00     0.000 C
ATOM     55   O  A00 X   3      48.831 128.308  28.6270  0.00  0.00     0.000 OA
ATOM     56   O  A00 X   3      48.914 130.392  28.8140  0.00  0.00     0.000 OA
ENDBRANCH 45 54
BRANCH 41 57
ATOM     57  O4  A00 X   4      51.955 128.827  27.4830  0.00  0.00     0.000 O
BRANCH 57 61
ATOM     58  C1  A00 X   4      51.899 125.880  24.3280  0.00  0.00     0.000 C
ATOM     59  C2  A00 X   4      51.070 125.611  25.6090  0.00  0.00     0.000 C
ATOM     60  C3  A00 X   4      50.877 126.861  26.4900  0.00  0.00     0.000 C
ATOM     61  C4  A00 X   4      52.206 127.613  26.7180  0.00  0.00     0.000 C
ATOM     62  C5  A00 X   4      52.752 127.968  25.3130  0.00  0.00     0.000 C
ATOM     63  O5  A00 X   4      53.029 126.744  24.5860  0.00  0.00     0.000 O
BRANCH 59 66
ATOM     64   N  A00 X   4      49.841 124.896  25.9990  0.00  0.00     0.000 N
ATOM     66  HD  A00 X   4      49.704 124.769  26.8450  0.00  0.00     0.000 HD
ATOM     66   O  A00 X   4      50.826 122.903  25.0720  0.00  0.00     0.000 OA
ATOM     67   S  A00 X   4      49.541 123.480  25.3200  0.00  0.00     0.000 S
ATOM     68   O  A00 X   4      48.773 122.853  26.3560  0.00  0.00     0.000 OA
ATOM     69   O  A00 X   4      48.766 123.901  24.1870  0.00  0.00     0.000 OA
ENDBRANCH 59 66
BRANCH 62 70
ATOM     70   C  A00 X   4      54.037 128.830  25.3340  0.00  0.00     0.000 C
ATOM     71   O  A00 X   4      57.397 127.856  26.2680  0.00  0.00     0.000 OA
ATOM     72   O  A00 X   4      56.096 129.704  26.9280  0.00  0.00     0.000 OA
ATOM     73   O  A00 X   4      55.177 127.977  25.5290  0.00  0.00     0.000 O
ATOM     74   O  A00 X   4      55.613 127.501  27.8500  0.00  0.00     0.000 OA
ATOM     75   S  A00 X   4      56.111 128.268  26.7550  0.00  0.00     0.000 S
ENDBRANCH 62 70
ENDBRANCH 57 61
ENDBRANCH 41 57
ENDBRANCH 40 44
ENDBRANCH 20 40
ENDBRANCH 19 23
ENDBRANCH 1 19
TORSDOF 14
ENDMDL
MODEL 100
REMARK VINA RESULT:       0.2     98.891    103.826
ROOT
ATOM      1  C1  A00 X   1      17.954  57.411 122.8800  0.00  0.00     0.000 C
ATOM      2  C2  A00 X   1      18.119  58.949 122.9940  0.00  0.00     0.000 C
ATOM      3  C3  A00 X   1      18.796  59.473 124.3040  0.00  0.00     0.000 C
ATOM      4  C4  A00 X   1      18.881  58.451 125.4670  0.00  0.00     0.000 C
ATOM      5  C5  A00 X   1      17.840  57.339 125.3350  0.00  0.00     0.000 C
ATOM      6  O5  A00 X   1      18.177  56.665 124.1020  0.00  0.00     0.000 O
ATOM      7   O  A00 X   1      18.046  60.582 124.7940  0.00  0.00     0.000 O
ATOM      9  HD  A00 X   1      18.265  60.099 125.4790  0.00  0.00     0.000 HD
ATOM      9   O  A00 X   1      20.186  57.880 125.5660  0.00  0.00     0.000 O
ATOM     11  HD  A00 X   1      20.404  57.397 126.2510  0.00  0.00     0.000 HD
ENDROOT
BRANCH 2 11
ATOM     11   O  A00 X   1      18.888  59.394 121.8590  0.00  0.00     0.000 O
ATOM     12   O  A00 X   1      19.653  61.661 121.6520  0.00  0.00     0.000 OA
ATOM     13   O  A00 X   1      17.263  61.205 121.6510  0.00  0.00     0.000 OA
ATOM     14   O  A00 X   1      18.623  60.511 119.8270  0.00  0.00     0.000 OA
ATOM     15   S  A00 X   1      18.577  60.797 121.2350  0.00  0.00     0.000 S
ENDBRANCH 2 11
BRANCH 5 16
ATOM     16   C  A00 X   1      16.382  57.805 125.4010  0.00  0.00     0.000 C
ATOM     17   O  A00 X   1      16.143  58.904 125.8580  0.00  0.00     0.000 OA
ATOM     18   O  A00 X   1      15.460  57.120 125.0050  0.00  0.00     0.000 OA
ENDBRANCH 5 16
BRANCH 1 19
ATOM     19  O4  A00 X   2      16.711  57.025 122.2450  0.00  0.00     0.000 O
BRANCH 19 23
ATOM     20  C1  A00 X   2      18.444  53.721 120.1370  0.00  0.00     0.000 C
ATOM     21  C2  A00 X   2      18.300  55.059 119.3730  0.00  0.00     0.000 C
ATOM     22  C3  A00 X   2      18.081  56.230 120.3530  0.00  0.00     0.000 C
ATOM     23  C4  A00 X   2      16.885  55.941 121.2880  0.00  0.00     0.000 C
ATOM     24  C5  A00 X   2      17.140  54.572 121.9760  0.00  0.00     0.000 C
ATOM     25  O5  A00 X   2      17.255  53.549 120.9530  0.00  0.00     0.000 O
ATOM     26   O  A00 X   2      18.022  57.455 119.6030  0.00  0.00     0.000 O
ATOM     28  HD  A00 X   2      17.437  57.144 119.0450  0.00  0.00     0.000 HD
BRANCH 21 30
ATOM     28   N  A00 X   2      18.983  56.097 118.5960  0.00  0.00     0.000 N
ATOM     30  HD  A00 X   2      18.901  55.409 118.0770  0.00  0.00     0.000 HD
ATOM     30   O  A00 X   2      18.872  55.507 116.3380  0.00  0.00     0.000 OA
ATOM     31   S  A00 X   2      19.855  55.662 117.3510  0.00  0.00     0.000 S
ATOM     32   O  A00 X   2      20.748  56.763 117.1610  0.00  0.00     0.000 OA
ATOM     33   O  A00 X   2      20.584  54.490 117.7330  0.00  0.00     0.000 OA
ENDBRANCH 21 30
BRANCH 24 34
ATOM     34   C  A00 X   2      16.203  54.156 123.1340  0.00  0.00     0.000 C
ATOM     35   O  A00 X   2      14.198  51.117 123.1460  0.00  0.00     0.000 OA
ATOM     36   O  A00 X   2      15.289  53.122 122.7210  0.00  0.00     0.000 O
ATOM     37   O  A00 X   2      16.544  51.152 122.8460  0.00  0.00     0.000 OA
ATOM     38   S  A00 X   2      15.423  51.759 123.4950  0.00  0.00     0.000 S
ATOM     39   O  A00 X   2      15.559  52.093 124.8810  0.00  0.00     0.000 OA
ENDBRANCH 24 34
BRANCH 20 40
ATOM     40  O4  A00 X   3      19.590  53.880 120.9870  0.00  0.00     0.000 O
BRANCH 40 44
ATOM     41  C1  A00 X   3      21.385  53.372 124.0920  0.00  0.00     0.000 C
ATOM     42  C2  A00 X   3      21.954  54.100 122.8560  0.00  0.00     0.000 C
ATOM     43  C3  A00 X   3      21.773  53.244 121.5750  0.00  0.00     0.000 C
ATOM     44  C4  A00 X   3      20.360  52.718 121.3600  0.00  0.00     0.000 C
ATOM     45  C5  A00 X   3      19.860  51.996 122.6430  0.00  0.00     0.000 C
ATOM     46  O5  A00 X   3      20.059  52.834 123.8270  0.00  0.00     0.000 O
ATOM     47   O  A00 X   3      22.341  53.781 120.3820  0.00  0.00     0.000 O
ATOM     49  HD  A00 X   3      21.617  53.463 120.0290  0.00  0.00     0.000 HD
BRANCH 42 49
ATOM     49   O  A00 X   3      21.259  55.362 122.7500  0.00  0.00     0.000 O
ATOM     50   O  A00 X   3      21.269  57.225 121.2470  0.00  0.00     0.000 OA
ATOM     51   O  A00 X   3      23.330  56.242 121.8600  0.00  0.00     0.000 OA
ATOM     52   O  A00 X   3      22.107  57.416 123.5070  0.00  0.00     0.000 OA
ATOM     53   S  A00 X   3      22.023  56.646 122.3140  0.00  0.00     0.000 S
ENDBRANCH 42 49
BRANCH 45 54
ATOM     54   C  A00 X   3      20.475  50.598 122.7830  0.00  0.00     0.000 C
ATOM     55   O  A00 X   3      21.309  50.207 121.9930  0.00  0.00     0.000 OA
ATOM     56   O  A00 X   3      20.135  49.854 123.6900  0.00  0.00     0.000 OA
ENDBRANCH 45 54
BRANCH 41 57
ATOM     57  O4  A00 X   4      22.318  52.400 124.6170  0.00  0.00     0.000 O
BRANCH 57 61
ATOM     58  C1  A00 X   4      23.190  51.011 128.6100  0.00  0.00     0.000 C
ATOM     59  C2  A00 X   4      21.784  50.737 128.0200  0.00  0.00     0.000 C
ATOM     60  C3  A00 X   4      21.706  50.948 126.4950  0.00  0.00     0.000 C
ATOM     61  C4  A00 X   4      22.342  52.288 126.0680  0.00  0.00     0.000 C
ATOM     62  C5  A00 X   4      23.805  52.258 126.5780  0.00  0.00     0.000 C
ATOM     63  O5  A00 X   4      23.803  52.184 128.0270  0.00  0.00     0.000 O
BRANCH 59 66
ATOM     64   N  A00 X   4      20.754  51.636 128.5700  0.00  0.00     0.000 N
ATOM     66  HD  A00 X   4      21.006  52.426 128.8230  0.00  0.00     0.000 HD
ATOM     66   O  A00 X   4      20.675  50.201 130.5020  0.00  0.00     0.000 OA
ATOM     67   S  A00 X   4      19.840  51.098 129.7670  0.00  0.00     0.000 S
ATOM     68   O  A00 X   4      19.527  52.332 130.4280  0.00  0.00     0.000 OA
ATOM     69   O  A00 X   4      18.749  50.539 129.0200  0.00  0.00     0.000 OA
ENDBRANCH 59 66
BRANCH 62 70
ATOM     70   C  A00 X   4      24.649  53.481 126.1500  0.00  0.00     0.000 C
ATOM     71   O  A00 X   4      24.373  56.919 127.2530  0.00  0.00     0.000 OA
ATOM     72   O  A00 X   4      24.511  56.009 125.0850  0.00  0.00     0.000 OA
ATOM     73   O  A00 X   4      24.358  54.587 127.0190  0.00  0.00     0.000 O
ATOM     74   O  A00 X   4      22.422  55.844 126.3290  0.00  0.00     0.000 OA
ATOM     75   S  A00 X   4      23.847  55.919 126.3660  0.00  0.00     0.000 S
ENDBRANCH 62 70
ENDBRANCH 57 61
ENDBRANCH 41 57
ENDBRANCH 40 44
ENDBRANCH 20 40
ENDBRANCH 19 23
ENDBRANCH 1 19
TORSDOF 14
ENDMDL
