MODEL 1
REMARK VINA RESULT:      -8.1      0.000      0.000
ROOT
ATOM      1  C1  Z9H D   1      -0.442  24.267 -63.0000  0.00  0.00     0.000 C
ATOM      2  C2  Z9H D   1       0.059  24.235 -64.4630  0.00  0.00     0.000 C
ATOM      3  C3  Z9H D   1       1.278  25.193 -64.3020  0.00  0.00     0.000 C
ATOM      4  C4  Z9H D   1       0.968  26.571 -63.5830  0.00  0.00     0.000 C
ATOM      5  C5  Z9H D   1       0.145  26.678 -62.2380  0.00  0.00     0.000 C
ATOM      6  O5  Z9H D   1      -0.738  25.534 -62.3500  0.00  0.00     0.000 O
ATOM      7   O  Z9H D   1       1.938  25.421 -65.5490  0.00  0.00     0.000 O
ATOM      8   C  Z9H D   1       3.111  24.624 -65.7790  0.00  0.00     0.000 C
ATOM      9   O  Z9H D   1       2.241  27.183 -63.3500  0.00  0.00     0.000 O
ATOM     10   C  Z9H D   1       2.628  28.184 -64.2960  0.00  0.00     0.000 C
ENDROOT
BRANCH 2 11
ATOM     11   O  Z9H D   1       0.614  22.949 -64.5540  0.00  0.00     0.000 O
ATOM     12   O  Z9H D   1      -0.055  21.581 -65.6670  0.00  0.00     0.000 OA
ATOM     13   S  Z9H D   1      -0.579  22.904 -65.6010  0.00  0.00     0.000 S
ATOM     14   O  Z9H D   1      -0.225  23.725 -66.7240  0.00  0.00     0.000 OA
ATOM     15   O  Z9H D   1      -1.866  22.904 -64.9440  0.00  0.00     0.000 O
ENDBRANCH 2 11
BRANCH 5 16
ATOM     16   C  Z9H D   1      -0.446  28.204 -61.8890  0.00  0.00     0.000 C
ATOM     17   S  Z9H D   1      -0.596  30.089 -62.5700  0.00  0.00     0.000 S
ATOM     18   O  Z9H D   1      -0.718  28.612 -63.2080  0.00  0.00     0.000 O
ATOM     19   O  Z9H D   1       0.723  30.452 -62.1380  0.00  0.00     0.000 O
ATOM     20   O  Z9H D   1      -1.771  30.405 -61.8350  0.00  0.00     0.000 OA
ATOM     21   O  Z9H D   1      -0.828  30.444 -63.9400  0.00  0.00     0.000 OA
ENDBRANCH 5 16
BRANCH 1 22
ATOM     22  O4  GU1 D   2       0.480  23.671 -62.0170  0.00  0.00     0.000 O
BRANCH 22 26
ATOM     23  C1  GU1 D   2       0.707  21.380 -58.6010  0.00  0.00     0.000 C
ATOM     24  C2  GU1 D   2      -0.460  21.048 -59.5170  0.00  0.00     0.000 C
ATOM     25  C3  GU1 D   2      -0.222  21.659 -60.8680  0.00  0.00     0.000 C
ATOM     26  C4  GU1 D   2       0.073  23.147 -60.7470  0.00  0.00     0.000 C
ATOM     27  C5  GU1 D   2       1.190  23.379 -59.7260  0.00  0.00     0.000 C
ATOM     28  O5  GU1 D   2       0.851  22.790 -58.4740  0.00  0.00     0.000 O
ATOM     29   O  GU1 D   2      -0.622  19.645 -59.6860  0.00  0.00     0.000 O
ATOM     30   C  GU1 D   2      -1.598  19.071 -58.8280  0.00  0.00     0.000 C
ATOM     31   C  GU1 D   2      -1.336  20.441 -62.6200  0.00  0.00     0.000 C
ATOM     32   O  GU1 D   2      -1.405  21.489 -61.6560  0.00  0.00     0.000 O
BRANCH 27 33
ATOM     33   C  GU1 D   2       1.422  24.854 -59.4960  0.00  0.00     0.000 C
ATOM     34   O  GU1 D   2       0.556  25.494 -58.9360  0.00  0.00     0.000 OA
ATOM     35   O  GU1 D   2       2.459  25.383 -59.8620  0.00  0.00     0.000 O
ENDBRANCH 27 33
BRANCH 23 36
ATOM     36  O4  GU6 D   3       0.610  21.121 -57.1860  0.00  0.00     0.000 O
BRANCH 36 40
ATOM     37  C1  GU6 D   3       2.438  21.504 -53.5520  0.00  0.00     0.000 C
ATOM     38  C2  GU6 D   3       1.441  22.614 -53.8630  0.00  0.00     0.000 C
ATOM     39  C3  GU6 D   3       0.634  22.241 -55.0790  0.00  0.00     0.000 C
ATOM     40  C4  GU6 D   3       1.063  21.068 -55.8490  0.00  0.00     0.000 C
ATOM     41  C5  GU6 D   3       2.626  21.015 -55.8930  0.00  0.00     0.000 C
ATOM     42  O5  GU6 D   3       3.297  21.342 -54.6700  0.00  0.00     0.000 O
BRANCH 38 43
ATOM     43   O  GU6 D   3       0.581  22.833 -52.7610  0.00  0.00     0.000 O
ATOM     44   S  GU6 D   3       0.598  24.258 -52.2240  0.00  0.00     0.000 S
ATOM     45   O  GU6 D   3       1.763  24.410 -51.3350  0.00  0.00     0.000 OA
ATOM     46   O  GU6 D   3       0.724  25.188 -53.3610  0.00  0.00     0.000 O
ATOM     47   O  GU6 D   3      -0.651  24.507 -51.5110  0.00  0.00     0.000 OA
ENDBRANCH 38 43
BRANCH 39 48
ATOM     48   O  GU6 D   3      -0.617  22.851 -55.3360  0.00  0.00     0.000 O
ATOM     49   S  GU6 D   3      -2.032  22.328 -55.0910  0.00  0.00     0.000 S
ATOM     50   O  GU6 D   3      -2.192  21.946 -53.6830  0.00  0.00     0.000 OA
ATOM     51   O  GU6 D   3      -2.876  23.482 -55.4280  0.00  0.00     0.000 OA
ATOM     52   O  GU6 D   3      -2.268  21.156 -55.9630  0.00  0.00     0.000 O
ENDBRANCH 39 48
BRANCH 41 53
ATOM     53   C  GU6 D   3       3.530  20.654 -57.0410  0.00  0.00     0.000 C
ATOM     54   O  GU6 D   3       4.753  20.961 -56.4240  0.00  0.00     0.000 O
ATOM     55   S  GU6 D   3       6.066  20.880 -57.2160  0.00  0.00     0.000 S
ATOM     56   O  GU6 D   3       6.004  21.933 -58.2550  0.00  0.00     0.000 O
ATOM     57   O  GU6 D   3       7.184  21.124 -56.2940  0.00  0.00     0.000 OA
ATOM     58   O  GU6 D   3       6.127  19.533 -57.8260  0.00  0.00     0.000 OA
ENDBRANCH 41 53
BRANCH 37 59
ATOM     59  O4  Z9K D   4       2.089  20.185 -53.0830  0.00  0.00     0.000 O
BRANCH 59 63
ATOM     60  C1  Z9K D   4       1.071  17.323 -50.5890  0.00  0.00     0.000 C
ATOM     61  C2  Z9K D   4       1.321  18.502 -49.6080  0.00  0.00     0.000 C
ATOM     62  C3  Z9K D   4       1.551  19.699 -50.6290  0.00  0.00     0.000 C
ATOM     63  C4  Z9K D   4       2.492  19.477 -51.8740  0.00  0.00     0.000 C
ATOM     64  C5  Z9K D   4       2.624  18.029 -52.3700  0.00  0.00     0.000 C
ATOM     65  O5  Z9K D   4       1.321  17.464 -52.0650  0.00  0.00     0.000 O
ATOM     66   O  Z9K D   4       2.047  20.895 -50.0000  0.00  0.00     0.000 O
ATOM     67   C  Z9K D   4       1.039  21.733 -49.4580  0.00  0.00     0.000 C
BRANCH 61 68
ATOM     68   O  Z9K D   4       0.106  18.764 -48.9620  0.00  0.00     0.000 O
ATOM     69   O  Z9K D   4       2.091  19.167 -47.3990  0.00  0.00     0.000 OA
ATOM     70   S  Z9K D   4       1.036  18.260 -47.7350  0.00  0.00     0.000 S
ATOM     71   O  Z9K D   4       1.143  16.834 -47.7870  0.00  0.00     0.000 OA
ATOM     72   O  Z9K D   4      -0.176  18.621 -47.0730  0.00  0.00     0.000 OA
ENDBRANCH 61 68
BRANCH 64 73
ATOM     73   C  Z9K D   4       3.126  17.992 -53.8290  0.00  0.00     0.000 C
ATOM     74   O  Z9K D   4       2.333  17.767 -54.7890  0.00  0.00     0.000 O
ATOM     75   O  Z9K D   4       4.331  18.188 -54.1180  0.00  0.00     0.000 OA
ENDBRANCH 64 73
BRANCH 60 76
ATOM     76  O4  Z9L D   5       1.574  15.978 -50.5170  0.00  0.00     0.000 O
BRANCH 76 80
ATOM     77  C1  Z9L D   5       0.375  12.196 -51.0010  0.00  0.00     0.000 C
ATOM     78  C2  Z9L D   5       1.699  12.386 -51.8850  0.00  0.00     0.000 C
ATOM     79  C3  Z9L D   5       2.453  13.797 -51.3350  0.00  0.00     0.000 C
ATOM     80  C4  Z9L D   5       1.155  14.795 -51.1480  0.00  0.00     0.000 C
ATOM     81  C5  Z9L D   5      -0.280  14.541 -50.4590  0.00  0.00     0.000 C
ATOM     82  O5  Z9L D   5      -0.689  13.222 -50.8520  0.00  0.00     0.000 O
ATOM     83   C  Z9L D   5      -0.326  11.505 -48.7820  0.00  0.00     0.000 C
ATOM     84   C  Z9L D   5      -0.326  11.505 -48.7820  0.00  0.00     0.000 C
BRANCH 78 85
ATOM     85   O  Z9L D   5       2.536  11.299 -51.6480  0.00  0.00     0.000 O
ATOM     86   O  Z9L D   5       2.871   9.867 -52.8910  0.00  0.00     0.000 OA
ATOM     87   S  Z9L D   5       2.113  11.047 -53.1770  0.00  0.00     0.000 S
ATOM     88   O  Z9L D   5       2.908  11.782 -54.1290  0.00  0.00     0.000 OA
ATOM     89   O  Z9L D   5       0.783  10.593 -53.3990  0.00  0.00     0.000 OA
ENDBRANCH 78 85
BRANCH 79 90
ATOM     90   O  Z9L D   5       3.169  14.419 -52.3530  0.00  0.00     0.000 O
ATOM     91   S  Z9L D   5       4.282  14.404 -51.2140  0.00  0.00     0.000 S
ATOM     92   O  Z9L D   5       4.705  13.191 -50.5660  0.00  0.00     0.000 OA
ATOM     93   O  Z9L D   5       4.248  15.655 -50.4970  0.00  0.00     0.000 O
ATOM     94   O  Z9L D   5       5.125  14.593 -52.3510  0.00  0.00     0.000 OA
ENDBRANCH 79 90
BRANCH 81 95
ATOM     95   C  Z9L D   5      -1.403  15.784 -50.5410  0.00  0.00     0.000 C
ATOM     96   S  Z9L D   5      -3.022  16.453 -51.4890  0.00  0.00     0.000 S
ATOM     97   O  Z9L D   5      -1.717  15.673 -51.9030  0.00  0.00     0.000 O
ATOM     98   O  Z9L D   5      -2.625  17.812 -51.2220  0.00  0.00     0.000 OA
ATOM     99   O  Z9L D   5      -3.911  15.757 -50.6220  0.00  0.00     0.000 OA
ATOM    100   O  Z9L D   5      -3.283  16.324 -52.9020  0.00  0.00     0.000 O
ENDBRANCH 81 95
ENDBRANCH 76 80
ENDBRANCH 60 76
ENDBRANCH 59 63
ENDBRANCH 37 59
ENDBRANCH 36 40
ENDBRANCH 23 36
ENDBRANCH 22 26
ENDBRANCH 1 22
TORSDOF 19
ENDMDL
MODEL 2
REMARK VINA RESULT:      -7.8      2.302      5.690
ROOT
ATOM      1  C1  Z9H D   1       1.237  27.724 -62.1810  0.00  0.00     0.000 C
ATOM      2  C2  Z9H D   1       0.199  28.674 -62.8250  0.00  0.00     0.000 C
ATOM      3  C3  Z9H D   1      -0.920  27.624 -63.1060  0.00  0.00     0.000 C
ATOM      4  C4  Z9H D   1      -0.446  26.313 -63.8590  0.00  0.00     0.000 C
ATOM      5  C5  Z9H D   1       0.834  25.488 -63.4370  0.00  0.00     0.000 C
ATOM      6  O5  Z9H D   1       1.678  26.529 -62.8840  0.00  0.00     0.000 O
ATOM      7   O  Z9H D   1      -2.035  28.210 -63.7810  0.00  0.00     0.000 O
ATOM      8   C  Z9H D   1      -3.145  28.567 -62.9400  0.00  0.00     0.000 C
ATOM      9   O  Z9H D   1      -1.561  25.415 -63.8150  0.00  0.00     0.000 O
ATOM     10   C  Z9H D   1      -2.360  25.365 -65.0010  0.00  0.00     0.000 C
ENDROOT
BRANCH 2 11
ATOM     11   O  Z9H D   1      -0.256  29.405 -61.7160  0.00  0.00     0.000 O
ATOM     12   O  Z9H D   1       0.024  31.255 -61.4790  0.00  0.00     0.000 OA
ATOM     13   S  Z9H D   1       0.437  30.511 -62.6210  0.00  0.00     0.000 S
ATOM     14   O  Z9H D   1      -0.382  30.724 -63.7800  0.00  0.00     0.000 OA
ATOM     15   O  Z9H D   1       1.875  30.366 -62.6340  0.00  0.00     0.000 O
ENDBRANCH 2 11
BRANCH 5 16
ATOM     16   C  Z9H D   1       1.408  24.426 -64.5970  0.00  0.00     0.000 C
ATOM     17   S  Z9H D   1       1.424  24.015 -66.5640  0.00  0.00     0.000 S
ATOM     18   O  Z9H D   1       1.527  25.346 -65.6560  0.00  0.00     0.000 O
ATOM     19   O  Z9H D   1       0.146  23.364 -66.5350  0.00  0.00     0.000 O
ATOM     20   O  Z9H D   1       2.658  23.311 -66.5450  0.00  0.00     0.000 OA
ATOM     21   O  Z9H D   1       1.499  25.002 -67.6010  0.00  0.00     0.000 OA
ENDBRANCH 5 16
BRANCH 1 22
ATOM     22  O4  GU1 D   2       0.825  27.140 -60.8930  0.00  0.00     0.000 O
BRANCH 22 26
ATOM     23  C1  GU1 D   2       2.287  25.525 -57.3960  0.00  0.00     0.000 C
ATOM     24  C2  GU1 D   2       3.250  26.450 -58.1250  0.00  0.00     0.000 C
ATOM     25  C3  GU1 D   2       2.493  27.256 -59.1400  0.00  0.00     0.000 C
ATOM     26  C4  GU1 D   2       1.682  26.352 -60.0570  0.00  0.00     0.000 C
ATOM     27  C5  GU1 D   2       0.826  25.392 -59.2250  0.00  0.00     0.000 C
ATOM     28  O5  GU1 D   2       1.643  24.655 -58.3190  0.00  0.00     0.000 O
ATOM     29   O  GU1 D   2       3.898  27.352 -57.2360  0.00  0.00     0.000 O
ATOM     30   C  GU1 D   2       5.188  26.924 -56.8220  0.00  0.00     0.000 C
ATOM     31   C  GU1 D   2       3.558  29.365 -59.5990  0.00  0.00     0.000 C
ATOM     32   O  GU1 D   2       3.435  27.985 -59.9330  0.00  0.00     0.000 O
BRANCH 27 33
ATOM     33   C  GU1 D   2       0.102  24.402 -60.1050  0.00  0.00     0.000 C
ATOM     34   O  GU1 D   2      -1.106  24.484 -60.1940  0.00  0.00     0.000 OA
ATOM     35   O  GU1 D   2       0.721  23.544 -60.7140  0.00  0.00     0.000 O
ENDBRANCH 27 33
BRANCH 23 36
ATOM     36  O4  GU6 D   3       2.797  24.477 -56.5480  0.00  0.00     0.000 O
BRANCH 36 40
ATOM     37  C1  GU6 D   3       3.357  21.177 -54.2060  0.00  0.00     0.000 C
ATOM     38  C2  GU6 D   3       2.736  22.358 -53.4710  0.00  0.00     0.000 C
ATOM     39  C3  GU6 D   3       2.324  23.411 -54.4660  0.00  0.00     0.000 C
ATOM     40  C4  GU6 D   3       2.765  23.246 -55.8550  0.00  0.00     0.000 C
ATOM     41  C5  GU6 D   3       4.218  22.666 -55.8770  0.00  0.00     0.000 C
ATOM     42  O5  GU6 D   3       4.493  21.636 -54.9220  0.00  0.00     0.000 O
BRANCH 38 43
ATOM     43   O  GU6 D   3       1.615  21.941 -52.7160  0.00  0.00     0.000 O
ATOM     44   S  GU6 D   3       1.918  21.638 -51.2550  0.00  0.00     0.000 S
ATOM     45   O  GU6 D   3       2.475  20.277 -51.1650  0.00  0.00     0.000 OA
ATOM     46   O  GU6 D   3       2.915  22.609 -50.7690  0.00  0.00     0.000 O
ATOM     47   O  GU6 D   3       0.685  21.759 -50.4840  0.00  0.00     0.000 OA
ENDBRANCH 38 43
BRANCH 39 48
ATOM     48   O  GU6 D   3       1.360  24.391 -54.1300  0.00  0.00     0.000 O
ATOM     49   S  GU6 D   3       1.505  25.662 -53.2940  0.00  0.00     0.000 S
ATOM     50   O  GU6 D   3       2.579  26.503 -53.8350  0.00  0.00     0.000 OA
ATOM     51   O  GU6 D   3       0.195  26.310 -53.4460  0.00  0.00     0.000 OA
ATOM     52   O  GU6 D   3       1.812  25.285 -51.8960  0.00  0.00     0.000 O
ENDBRANCH 39 48
BRANCH 41 53
ATOM     53   C  GU6 D   3       5.370  23.030 -56.7750  0.00  0.00     0.000 C
ATOM     54   O  GU6 D   3       5.752  21.727 -57.1330  0.00  0.00     0.000 O
ATOM     55   S  GU6 D   3       7.003  21.490 -57.9890  0.00  0.00     0.000 S
ATOM     56   O  GU6 D   3       8.165  21.907 -57.1710  0.00  0.00     0.000 O
ATOM     57   O  GU6 D   3       7.084  20.058 -58.3140  0.00  0.00     0.000 OA
ATOM     58   O  GU6 D   3       6.873  22.332 -59.1990  0.00  0.00     0.000 OA
ENDBRANCH 41 53
BRANCH 37 59
ATOM     59  O4  Z9K D   4       2.642  20.270 -55.0710  0.00  0.00     0.000 O
BRANCH 59 63
ATOM     60  C1  Z9K D   4       1.739  17.190 -52.8030  0.00  0.00     0.000 C
ATOM     61  C2  Z9K D   4       3.142  16.777 -53.3280  0.00  0.00     0.000 C
ATOM     62  C3  Z9K D   4       3.580  18.101 -54.0920  0.00  0.00     0.000 C
ATOM     63  C4  Z9K D   4       2.546  18.816 -55.0420  0.00  0.00     0.000 C
ATOM     64  C5  Z9K D   4       1.062  18.591 -54.7160  0.00  0.00     0.000 C
ATOM     65  O5  Z9K D   4       1.067  18.452 -53.2710  0.00  0.00     0.000 O
ATOM     66   O  Z9K D   4       4.762  17.930 -54.8940  0.00  0.00     0.000 O
ATOM     67   C  Z9K D   4       5.980  18.099 -54.1870  0.00  0.00     0.000 C
BRANCH 61 68
ATOM     68   O  Z9K D   4       3.983  16.670 -52.2120  0.00  0.00     0.000 O
ATOM     69   O  Z9K D   4       4.604  14.955 -54.0070  0.00  0.00     0.000 OA
ATOM     70   S  Z9K D   4       3.945  15.143 -52.7500  0.00  0.00     0.000 S
ATOM     71   O  Z9K D   4       2.708  14.541 -52.3570  0.00  0.00     0.000 OA
ATOM     72   O  Z9K D   4       4.875  15.065 -51.6700  0.00  0.00     0.000 OA
ENDBRANCH 61 68
BRANCH 64 73
ATOM     73   C  Z9K D   4       0.186  19.692 -55.3520  0.00  0.00     0.000 C
ATOM     74   O  Z9K D   4       0.076  19.797 -56.6080  0.00  0.00     0.000 O
ATOM     75   O  Z9K D   4      -0.451  20.516 -54.6530  0.00  0.00     0.000 OA
ENDBRANCH 64 73
BRANCH 60 76
ATOM     76  O4  Z9L D   5       0.527  16.416 -52.7860  0.00  0.00     0.000 O
BRANCH 76 80
ATOM     77  C1  Z9L D   5      -2.756  15.510 -50.6950  0.00  0.00     0.000 C
ATOM     78  C2  Z9L D   5      -3.233  16.338 -51.9830  0.00  0.00     0.000 C
ATOM     79  C3  Z9L D   5      -1.943  16.319 -53.0770  0.00  0.00     0.000 C
ATOM     80  C4  Z9L D   5      -0.668  16.580 -52.0670  0.00  0.00     0.000 C
ATOM     81  C5  Z9L D   5      -0.295  15.914 -50.6460  0.00  0.00     0.000 C
ATOM     82  O5  Z9L D   5      -1.526  15.805 -49.9160  0.00  0.00     0.000 O
ATOM     83   C  Z9L D   5      -2.380  13.229 -49.9540  0.00  0.00     0.000 C
ATOM     84   C  Z9L D   5      -2.380  13.229 -49.9540  0.00  0.00     0.000 C
BRANCH 78 85
ATOM     85   O  Z9L D   5      -4.319  15.673 -52.5460  0.00  0.00     0.000 O
ATOM     86   O  Z9L D   5      -6.139  16.302 -52.5150  0.00  0.00     0.000 OA
ATOM     87   S  Z9L D   5      -5.004  17.039 -52.0490  0.00  0.00     0.000 S
ATOM     88   O  Z9L D   5      -4.861  18.132 -52.9790  0.00  0.00     0.000 OA
ATOM     89   O  Z9L D   5      -5.197  17.178 -50.6470  0.00  0.00     0.000 OA
ENDBRANCH 78 85
BRANCH 79 90
ATOM     90   O  Z9L D   5      -1.937  17.461 -53.8730  0.00  0.00     0.000 O
ATOM     91   S  Z9L D   5      -2.050  16.347 -55.0060  0.00  0.00     0.000 S
ATOM     92   O  Z9L D   5      -3.105  15.369 -55.0210  0.00  0.00     0.000 OA
ATOM     93   O  Z9L D   5      -0.731  16.024 -55.4900  0.00  0.00     0.000 O
ATOM     94   O  Z9L D   5      -2.507  17.475 -55.7510  0.00  0.00     0.000 OA
ENDBRANCH 79 90
BRANCH 81 95
ATOM     95   C  Z9L D   5       1.057  16.506 -49.8500  0.00  0.00     0.000 C
ATOM     96   S  Z9L D   5       1.706  17.829 -48.5110  0.00  0.00     0.000 S
ATOM     97   O  Z9L D   5       0.596  17.811 -49.6280  0.00  0.00     0.000 O
ATOM     98   O  Z9L D   5       2.975  17.903 -49.1880  0.00  0.00     0.000 OA
ATOM     99   O  Z9L D   5       1.500  16.938 -47.4190  0.00  0.00     0.000 OA
ATOM    100   O  Z9L D   5       1.202  19.169 -48.3390  0.00  0.00     0.000 O
ENDBRANCH 81 95
ENDBRANCH 76 80
ENDBRANCH 60 76
ENDBRANCH 59 63
ENDBRANCH 37 59
ENDBRANCH 36 40
ENDBRANCH 23 36
ENDBRANCH 22 26
ENDBRANCH 1 22
TORSDOF 19
ENDMDL
MODEL 3
REMARK VINA RESULT:      -7.8      3.966      8.315
ROOT
ATOM      1  C1  Z9H D   1       4.888  25.050 -56.7790  0.00  0.00     0.000 C
ATOM      2  C2  Z9H D   1       4.651  26.123 -57.8690  0.00  0.00     0.000 C
ATOM      3  C3  Z9H D   1       4.753  25.195 -59.1180  0.00  0.00     0.000 C
ATOM      4  C4  Z9H D   1       6.031  24.261 -59.1680  0.00  0.00     0.000 C
ATOM      5  C5  Z9H D   1       6.516  23.394 -57.9380  0.00  0.00     0.000 C
ATOM      6  O5  Z9H D   1       6.071  24.205 -56.8220  0.00  0.00     0.000 O
ATOM      7   O  Z9H D   1       4.631  25.936 -60.3340  0.00  0.00     0.000 O
ATOM      8   C  Z9H D   1       3.326  25.923 -60.9360  0.00  0.00     0.000 C
ATOM      9   O  Z9H D   1       5.813  23.360 -60.2590  0.00  0.00     0.000 O
ATOM     10   C  Z9H D   1       6.470  23.703 -61.4830  0.00  0.00     0.000 C
ENDROOT
BRANCH 2 11
ATOM     11   O  Z9H D   1       3.280  26.390 -57.7220  0.00  0.00     0.000 O
ATOM     12   O  Z9H D   1       2.579  28.040 -57.1380  0.00  0.00     0.000 OA
ATOM     13   S  Z9H D   1       3.963  27.771 -57.3360  0.00  0.00     0.000 S
ATOM     14   O  Z9H D   1       4.503  28.357 -58.5300  0.00  0.00     0.000 OA
ATOM     15   O  Z9H D   1       4.648  27.692 -56.0670  0.00  0.00     0.000 O
ENDBRANCH 2 11
BRANCH 5 16
ATOM     16   C  Z9H D   1       8.093  22.842 -58.0380  0.00  0.00     0.000 C
ATOM     17   S  Z9H D   1       9.332  21.346 -57.5190  0.00  0.00     0.000 S
ATOM     18   O  Z9H D   1       7.813  21.463 -58.0530  0.00  0.00     0.000 O
ATOM     19   O  Z9H D   1       9.546  21.855 -56.1950  0.00  0.00     0.000 O
ATOM     20   O  Z9H D   1      10.245  21.550 -58.5900  0.00  0.00     0.000 OA
ATOM     21   O  Z9H D   1       8.973  19.958 -57.5090  0.00  0.00     0.000 OA
ENDBRANCH 5 16
BRANCH 1 22
ATOM     22  O4  GU1 D   2       3.832  24.028 -56.6760  0.00  0.00     0.000 O
BRANCH 22 26
ATOM     23  C1  GU1 D   2       1.618  21.681 -54.1140  0.00  0.00     0.000 C
ATOM     24  C2  GU1 D   2       1.870  23.100 -53.6260  0.00  0.00     0.000 C
ATOM     25  C3  GU1 D   2       2.333  23.947 -54.7750  0.00  0.00     0.000 C
ATOM     26  C4  GU1 D   2       3.523  23.308 -55.4760  0.00  0.00     0.000 C
ATOM     27  C5  GU1 D   2       3.203  21.853 -55.8320  0.00  0.00     0.000 C
ATOM     28  O5  GU1 D   2       2.807  21.131 -54.6700  0.00  0.00     0.000 O
ATOM     29   O  GU1 D   2       0.696  23.692 -53.0820  0.00  0.00     0.000 O
ATOM     30   C  GU1 D   2       0.610  23.604 -51.6670  0.00  0.00     0.000 C
ATOM     31   C  GU1 D   2       1.788  26.270 -54.4650  0.00  0.00     0.000 C
ATOM     32   O  GU1 D   2       2.734  25.222 -54.2650  0.00  0.00     0.000 O
BRANCH 27 33
ATOM     33   C  GU1 D   2       4.407  21.157 -56.4210  0.00  0.00     0.000 C
ATOM     34   O  GU1 D   2       5.390  21.013 -55.7230  0.00  0.00     0.000 OA
ATOM     35   O  GU1 D   2       4.387  20.747 -57.5710  0.00  0.00     0.000 O
ENDBRANCH 27 33
BRANCH 23 36
ATOM     36  O4  GU6 D   3       1.403  20.619 -53.1630  0.00  0.00     0.000 O
BRANCH 36 40
ATOM     37  C1  GU6 D   3      -0.136  17.362 -51.2360  0.00  0.00     0.000 C
ATOM     38  C2  GU6 D   3       0.857  18.162 -50.4020  0.00  0.00     0.000 C
ATOM     39  C3  GU6 D   3       1.152  19.471 -51.0870  0.00  0.00     0.000 C
ATOM     40  C4  GU6 D   3       0.656  19.651 -52.4560  0.00  0.00     0.000 C
ATOM     41  C5  GU6 D   3       0.786  18.304 -53.2400  0.00  0.00     0.000 C
ATOM     42  O5  GU6 D   3       0.436  17.121 -52.5130  0.00  0.00     0.000 O
BRANCH 38 43
ATOM     43   O  GU6 D   3       0.341  18.400 -49.1070  0.00  0.00     0.000 O
ATOM     44   S  GU6 D   3       0.924  17.503 -48.0230  0.00  0.00     0.000 S
ATOM     45   O  GU6 D   3       0.222  16.209 -48.0570  0.00  0.00     0.000 OA
ATOM     46   O  GU6 D   3       2.355  17.291 -48.3070  0.00  0.00     0.000 O
ATOM     47   O  GU6 D   3       0.763  18.161 -46.7300  0.00  0.00     0.000 OA
ENDBRANCH 38 43
BRANCH 39 48
ATOM     48   O  GU6 D   3       1.679  20.566 -50.3630  0.00  0.00     0.000 O
ATOM     49   S  GU6 D   3       3.132  20.940 -50.0690  0.00  0.00     0.000 S
ATOM     50   O  GU6 D   3       3.891  21.042 -51.3200  0.00  0.00     0.000 OA
ATOM     51   O  GU6 D   3       3.012  22.248 -49.4110  0.00  0.00     0.000 OA
ATOM     52   O  GU6 D   3       3.727  19.901 -49.1990  0.00  0.00     0.000 O
ENDBRANCH 39 48
BRANCH 41 53
ATOM     53   C  GU6 D   3       1.214  18.075 -54.6650  0.00  0.00     0.000 C
ATOM     54   O  GU6 D   3       0.184  18.793 -55.2920  0.00  0.00     0.000 O
ATOM     55   S  GU6 D   3       0.060  18.801 -56.8220  0.00  0.00     0.000 S
ATOM     56   O  GU6 D   3      -0.275  17.417 -57.2300  0.00  0.00     0.000 O
ATOM     57   O  GU6 D   3      -1.016  19.729 -57.1990  0.00  0.00     0.000 OA
ATOM     58   O  GU6 D   3       1.373  19.214 -57.3660  0.00  0.00     0.000 OA
ENDBRANCH 41 53
BRANCH 37 59
ATOM     59  O4  Z9K D   4      -1.519  17.719 -51.4460  0.00  0.00     0.000 O
BRANCH 59 63
ATOM     60  C1  Z9K D   4      -3.122  14.173 -50.8950  0.00  0.00     0.000 C
ATOM     61  C2  Z9K D   4      -3.169  14.287 -52.4440  0.00  0.00     0.000 C
ATOM     62  C3  Z9K D   4      -2.355  15.634 -52.6710  0.00  0.00     0.000 C
ATOM     63  C4  Z9K D   4      -2.670  16.884 -51.7640  0.00  0.00     0.000 C
ATOM     64  C5  Z9K D   4      -3.250  16.580 -50.3740  0.00  0.00     0.000 C
ATOM     65  O5  Z9K D   4      -2.633  15.309 -50.0390  0.00  0.00     0.000 O
ATOM     66   O  Z9K D   4      -2.437  16.127 -54.0200  0.00  0.00     0.000 O
ATOM     67   C  Z9K D   4      -1.486  15.564 -54.9090  0.00  0.00     0.000 C
BRANCH 61 68
ATOM     68   O  Z9K D   4      -2.372  13.255 -52.9560  0.00  0.00     0.000 O
ATOM     69   O  Z9K D   4      -4.317  13.792 -54.5310  0.00  0.00     0.000 OA
ATOM     70   S  Z9K D   4      -3.832  12.874 -53.5440  0.00  0.00     0.000 S
ATOM     71   O  Z9K D   4      -4.612  12.276 -52.5040  0.00  0.00     0.000 OA
ATOM     72   O  Z9K D   4      -2.994  11.883 -54.1380  0.00  0.00     0.000 OA
ENDBRANCH 61 68
BRANCH 64 73
ATOM     73   C  Z9K D   4      -3.048  17.777 -49.4210  0.00  0.00     0.000 C
ATOM     74   O  Z9K D   4      -3.287  18.961 -49.7960  0.00  0.00     0.000 O
ATOM     75   O  Z9K D   4      -2.647  17.622 -48.2410  0.00  0.00     0.000 OA
ENDBRANCH 64 73
BRANCH 60 76
ATOM     76  O4  Z9L D   5      -4.178  13.798 -49.9930  0.00  0.00     0.000 O
BRANCH 76 80
ATOM     77  C1  Z9L D   5      -5.085  11.397 -46.9300  0.00  0.00     0.000 C
ATOM     78  C2  Z9L D   5      -5.263  12.905 -46.4130  0.00  0.00     0.000 C
ATOM     79  C3  Z9L D   5      -5.334  13.885 -47.7900  0.00  0.00     0.000 C
ATOM     80  C4  Z9L D   5      -4.145  13.218 -48.7150  0.00  0.00     0.000 C
ATOM     81  C5  Z9L D   5      -3.815  11.677 -49.0580  0.00  0.00     0.000 C
ATOM     82  O5  Z9L D   5      -4.001  10.943 -47.8390  0.00  0.00     0.000 O
ATOM     83   C  Z9L D   5      -6.352   9.592 -47.9440  0.00  0.00     0.000 C
ATOM     84   C  Z9L D   5      -6.352   9.592 -47.9440  0.00  0.00     0.000 C
BRANCH 78 85
ATOM     85   O  Z9L D   5      -6.473  12.988 -45.7310  0.00  0.00     0.000 O
ATOM     86   O  Z9L D   5      -6.656  13.229 -43.8290  0.00  0.00     0.000 OA
ATOM     87   S  Z9L D   5      -5.420  13.269 -44.5490  0.00  0.00     0.000 S
ATOM     88   O  Z9L D   5      -4.986  14.642 -44.4720  0.00  0.00     0.000 OA
ATOM     89   O  Z9L D   5      -4.678  12.149 -44.0830  0.00  0.00     0.000 OA
ENDBRANCH 78 85
BRANCH 79 90
ATOM     90   O  Z9L D   5      -4.838  15.159 -47.5320  0.00  0.00     0.000 O
ATOM     91   S  Z9L D   5      -6.313  15.537 -48.0010  0.00  0.00     0.000 S
ATOM     92   O  Z9L D   5      -7.485  14.993 -47.3680  0.00  0.00     0.000 OA
ATOM     93   O  Z9L D   5      -6.303  15.838 -49.4110  0.00  0.00     0.000 O
ATOM     94   O  Z9L D   5      -5.980  16.741 -47.3110  0.00  0.00     0.000 OA
ENDBRANCH 79 90
BRANCH 81 95
ATOM     95   C  Z9L D   5      -2.444  11.370 -49.9740  0.00  0.00     0.000 C
ATOM     96   S  Z9L D   5      -0.517  10.872 -49.9010  0.00  0.00     0.000 S
ATOM     97   O  Z9L D   5      -1.485  11.753 -49.0260  0.00  0.00     0.000 O
ATOM     98   O  Z9L D   5      -0.274  11.606 -51.1170  0.00  0.00     0.000 OA
ATOM     99   O  Z9L D   5      -0.799   9.477 -49.9220  0.00  0.00     0.000 OA
ATOM    100   O  Z9L D   5       0.429  11.313 -48.9060  0.00  0.00     0.000 O
ENDBRANCH 81 95
ENDBRANCH 76 80
ENDBRANCH 60 76
ENDBRANCH 59 63
ENDBRANCH 37 59
ENDBRANCH 36 40
ENDBRANCH 23 36
ENDBRANCH 22 26
ENDBRANCH 1 22
TORSDOF 19
ENDMDL
MODEL 4
REMARK VINA RESULT:      -7.8      4.150      7.270
ROOT
ATOM      1  C1  Z9H D   1       5.230  23.577 -56.5310  0.00  0.00     0.000 C
ATOM      2  C2  Z9H D   1       5.153  24.583 -57.7030  0.00  0.00     0.000 C
ATOM      3  C3  Z9H D   1       5.856  23.713 -58.7900  0.00  0.00     0.000 C
ATOM      4  C4  Z9H D   1       7.243  23.079 -58.3590  0.00  0.00     0.000 C
ATOM      5  C5  Z9H D   1       7.459  22.325 -56.9870  0.00  0.00     0.000 C
ATOM      6  O5  Z9H D   1       6.508  23.009 -56.1310  0.00  0.00     0.000 O
ATOM      7   O  Z9H D   1       5.995  24.422 -60.0230  0.00  0.00     0.000 O
ATOM      8   C  Z9H D   1       4.998  24.132 -61.0160  0.00  0.00     0.000 C
ATOM      9   O  Z9H D   1       7.592  22.164 -59.4030  0.00  0.00     0.000 O
ATOM     10   C  Z9H D   1       8.533  22.654 -60.3630  0.00  0.00     0.000 C
ENDROOT
BRANCH 2 11
ATOM     11   O  Z9H D   1       3.788  24.545 -58.0310  0.00  0.00     0.000 O
ATOM     12   O  Z9H D   1       2.623  26.022 -57.8930  0.00  0.00     0.000 OA
ATOM     13   S  Z9H D   1       4.019  26.059 -57.6090  0.00  0.00     0.000 S
ATOM     14   O  Z9H D   1       4.801  26.697 -58.6290  0.00  0.00     0.000 OA
ATOM     15   O  Z9H D   1       4.241  26.189 -56.1880  0.00  0.00     0.000 O
ENDBRANCH 2 11
BRANCH 5 16
ATOM     16   C  Z9H D   1       9.057  22.129 -56.5300  0.00  0.00     0.000 C
ATOM     17   S  Z9H D   1      10.962  22.391 -57.1130  0.00  0.00     0.000 S
ATOM     18   O  Z9H D   1       9.590  23.235 -57.2180  0.00  0.00     0.000 O
ATOM     19   O  Z9H D   1      10.990  21.186 -57.8920  0.00  0.00     0.000 O
ATOM     20   O  Z9H D   1      11.495  22.482 -55.7990  0.00  0.00     0.000 OA
ATOM     21   O  Z9H D   1      11.438  23.520 -57.8570  0.00  0.00     0.000 OA
ENDBRANCH 5 16
BRANCH 1 22
ATOM     22  O4  GU1 D   2       4.438  22.348 -56.7160  0.00  0.00     0.000 O
BRANCH 22 26
ATOM     23  C1  GU1 D   2       1.856  19.738 -54.8480  0.00  0.00     0.000 C
ATOM     24  C2  GU1 D   2       1.806  21.167 -54.3290  0.00  0.00     0.000 C
ATOM     25  C3  GU1 D   2       2.482  22.077 -55.3140  0.00  0.00     0.000 C
ATOM     26  C4  GU1 D   2       3.882  21.581 -55.6410  0.00  0.00     0.000 C
ATOM     27  C5  GU1 D   2       3.833  20.106 -56.0520  0.00  0.00     0.000 C
ATOM     28  O5  GU1 D   2       3.204  19.327 -55.0370  0.00  0.00     0.000 O
ATOM     29   O  GU1 D   2       0.471  21.621 -54.1480  0.00  0.00     0.000 O
ATOM     30   C  GU1 D   2      -0.001  21.502 -52.8130  0.00  0.00     0.000 C
ATOM     31   C  GU1 D   2       1.626  24.324 -55.2040  0.00  0.00     0.000 C
ATOM     32   O  GU1 D   2       2.583  23.380 -54.7300  0.00  0.00     0.000 O
BRANCH 27 33
ATOM     33   C  GU1 D   2       5.222  19.552 -56.2660  0.00  0.00     0.000 C
ATOM     34   O  GU1 D   2       5.554  19.246 -57.3930  0.00  0.00     0.000 OA
ATOM     35   O  GU1 D   2       5.990  19.420 -55.3260  0.00  0.00     0.000 O
ENDBRANCH 27 33
BRANCH 23 36
ATOM     36  O4  GU6 D   3       1.497  18.644 -53.9810  0.00  0.00     0.000 O
BRANCH 36 40
ATOM     37  C1  GU6 D   3      -0.676  17.416 -50.7450  0.00  0.00     0.000 C
ATOM     38  C2  GU6 D   3      -1.496  18.151 -51.7980  0.00  0.00     0.000 C
ATOM     39  C3  GU6 D   3      -0.677  18.316 -53.0510  0.00  0.00     0.000 C
ATOM     40  C4  GU6 D   3       0.749  17.978 -52.9830  0.00  0.00     0.000 C
ATOM     41  C5  GU6 D   3       1.327  18.424 -51.5990  0.00  0.00     0.000 C
ATOM     42  O5  GU6 D   3       0.488  18.179 -50.4650  0.00  0.00     0.000 O
BRANCH 38 43
ATOM     43   O  GU6 D   3      -2.684  17.441 -52.0880  0.00  0.00     0.000 O
ATOM     44   S  GU6 D   3      -3.965  18.200 -51.7650  0.00  0.00     0.000 S
ATOM     45   O  GU6 D   3      -4.242  18.060 -50.3250  0.00  0.00     0.000 OA
ATOM     46   O  GU6 D   3      -3.764  19.623 -52.0900  0.00  0.00     0.000 O
ATOM     47   O  GU6 D   3      -5.052  17.652 -52.5710  0.00  0.00     0.000 OA
ENDBRANCH 38 43
BRANCH 39 48
ATOM     48   O  GU6 D   3      -1.298  18.562 -54.2980  0.00  0.00     0.000 O
ATOM     49   S  GU6 D   3      -1.632  17.596 -55.4350  0.00  0.00     0.000 S
ATOM     50   O  GU6 D   3      -2.448  16.485 -54.9310  0.00  0.00     0.000 OA
ATOM     51   O  GU6 D   3      -2.394  18.433 -56.3710  0.00  0.00     0.000 OA
ATOM     52   O  GU6 D   3      -0.370  17.078 -56.0100  0.00  0.00     0.000 O
ENDBRANCH 39 48
BRANCH 41 53
ATOM     53   C  GU6 D   3       2.653  19.064 -51.2880  0.00  0.00     0.000 C
ATOM     54   O  GU6 D   3       2.488  19.178 -49.8980  0.00  0.00     0.000 O
ATOM     55   S  GU6 D   3       3.542  19.896 -49.0450  0.00  0.00     0.000 S
ATOM     56   O  GU6 D   3       3.519  21.321 -49.4480  0.00  0.00     0.000 O
ATOM     57   O  GU6 D   3       3.178  19.750 -47.6290  0.00  0.00     0.000 OA
ATOM     58   O  GU6 D   3       4.851  19.277 -49.3530  0.00  0.00     0.000 OA
ENDBRANCH 41 53
BRANCH 37 59
ATOM     59  O4  Z9K D   4      -0.273  16.033 -50.8260  0.00  0.00     0.000 O
BRANCH 59 63
ATOM     60  C1  Z9K D   4      -1.180  12.351 -49.7920  0.00  0.00     0.000 C
ATOM     61  C2  Z9K D   4      -1.653  13.140 -48.5410  0.00  0.00     0.000 C
ATOM     62  C3  Z9K D   4      -1.456  14.638 -49.0360  0.00  0.00     0.000 C
ATOM     63  C4  Z9K D   4      -0.121  15.032 -49.7770  0.00  0.00     0.000 C
ATOM     64  C5  Z9K D   4       0.604  13.894 -50.5110  0.00  0.00     0.000 C
ATOM     65  O5  Z9K D   4      -0.488  13.038 -50.9380  0.00  0.00     0.000 O
ATOM     66   O  Z9K D   4      -1.594  15.609 -47.9830  0.00  0.00     0.000 O
ATOM     67   C  Z9K D   4      -2.930  16.013 -47.7310  0.00  0.00     0.000 C
BRANCH 61 68
ATOM     68   O  Z9K D   4      -3.036  12.942 -48.4280  0.00  0.00     0.000 O
ATOM     69   O  Z9K D   4      -1.958  13.265 -46.1300  0.00  0.00     0.000 OA
ATOM     70   S  Z9K D   4      -2.492  12.301 -47.0440  0.00  0.00     0.000 S
ATOM     71   O  Z9K D   4      -1.940  11.009 -47.3140  0.00  0.00     0.000 OA
ATOM     72   O  Z9K D   4      -3.908  12.191 -46.8980  0.00  0.00     0.000 OA
ENDBRANCH 61 68
BRANCH 64 73
ATOM     73   C  Z9K D   4       1.567  14.455 -51.5780  0.00  0.00     0.000 C
ATOM     74   O  Z9K D   4       1.338  14.303 -52.8130  0.00  0.00     0.000 O
ATOM     75   O  Z9K D   4       2.606  15.086 -51.2650  0.00  0.00     0.000 OA
ENDBRANCH 64 73
BRANCH 60 76
ATOM     76  O4  Z9L D   5      -0.353  11.176 -49.8490  0.00  0.00     0.000 O
BRANCH 76 80
ATOM     77  C1  Z9L D   5       0.074   7.592 -51.5650  0.00  0.00     0.000 C
ATOM     78  C2  Z9L D   5       1.327   8.483 -52.0210  0.00  0.00     0.000 C
ATOM     79  C3  Z9L D   5       1.398   9.799 -50.9600  0.00  0.00     0.000 C
ATOM     80  C4  Z9L D   5      -0.196  10.198 -50.8450  0.00  0.00     0.000 C
ATOM     81  C5  Z9L D   5      -1.499   9.277 -50.6150  0.00  0.00     0.000 C
ATOM     82  O5  Z9L D   5      -1.312   8.104 -51.4210  0.00  0.00     0.000 O
ATOM     83   C  Z9L D   5      -0.591   6.021 -49.8380  0.00  0.00     0.000 C
ATOM     84   C  Z9L D   5      -0.591   6.021 -49.8380  0.00  0.00     0.000 C
BRANCH 78 85
ATOM     85   O  Z9L D   5       2.479   7.716 -51.8740  0.00  0.00     0.000 O
ATOM     86   O  Z9L D   5       3.554   7.043 -53.3240  0.00  0.00     0.000 OA
ATOM     87   S  Z9L D   5       2.443   7.935 -53.4650  0.00  0.00     0.000 S
ATOM     88   O  Z9L D   5       3.019   9.185 -53.8940  0.00  0.00     0.000 OA
ATOM     89   O  Z9L D   5       1.461   7.198 -54.1830  0.00  0.00     0.000 OA
ENDBRANCH 78 85
BRANCH 79 90
ATOM     90   O  Z9L D   5       1.947  10.920 -51.5780  0.00  0.00     0.000 O
ATOM     91   S  Z9L D   5       2.972  10.752 -50.3720  0.00  0.00     0.000 S
ATOM     92   O  Z9L D   5       3.699   9.531 -50.1420  0.00  0.00     0.000 OA
ATOM     93   O  Z9L D   5       2.555  11.584 -49.2710  0.00  0.00     0.000 O
ATOM     94   O  Z9L D   5       3.770  11.562 -51.2350  0.00  0.00     0.000 OA
ENDBRANCH 79 90
BRANCH 81 95
ATOM     95   C  Z9L D   5      -2.994  10.038 -50.6460  0.00  0.00     0.000 C
ATOM     96   S  Z9L D   5      -4.569  10.482 -51.7810  0.00  0.00     0.000 S
ATOM     97   O  Z9L D   5      -3.015  10.371 -52.0080  0.00  0.00     0.000 O
ATOM     98   O  Z9L D   5      -4.792  11.682 -51.0150  0.00  0.00     0.000 OA
ATOM     99   O  Z9L D   5      -5.237   9.265 -51.4620  0.00  0.00     0.000 OA
ATOM    100   O  Z9L D   5      -4.527  10.835 -53.1780  0.00  0.00     0.000 O
ENDBRANCH 81 95
ENDBRANCH 76 80
ENDBRANCH 60 76
ENDBRANCH 59 63
ENDBRANCH 37 59
ENDBRANCH 36 40
ENDBRANCH 23 36
ENDBRANCH 22 26
ENDBRANCH 1 22
TORSDOF 19
ENDMDL
MODEL 5
REMARK VINA RESULT:      -7.8     14.598     22.213
ROOT
ATOM      1  C1  Z9H D   1       5.915   5.904 -46.7040  0.00  0.00     0.000 C
ATOM      2  C2  Z9H D   1       4.809   5.466 -45.7150  0.00  0.00     0.000 C
ATOM      3  C3  Z9H D   1       3.622   5.400 -46.7250  0.00  0.00     0.000 C
ATOM      4  C4  Z9H D   1       3.432   6.684 -47.6340  0.00  0.00     0.000 C
ATOM      5  C5  Z9H D   1       4.624   7.382 -48.4030  0.00  0.00     0.000 C
ATOM      6  O5  Z9H D   1       5.741   7.091 -47.5260  0.00  0.00     0.000 O
ATOM      7   O  Z9H D   1       2.395   5.067 -46.0740  0.00  0.00     0.000 O
ATOM      8   C  Z9H D   1       2.010   3.684 -46.1550  0.00  0.00     0.000 C
ATOM      9   O  Z9H D   1       2.451   6.325 -48.6130  0.00  0.00     0.000 O
ATOM     10   C  Z9H D   1       1.118   6.771 -48.3430  0.00  0.00     0.000 C
ENDROOT
BRANCH 2 11
ATOM     11   O  Z9H D   1       5.152   4.128 -45.4660  0.00  0.00     0.000 O
ATOM     12   O  Z9H D   1       5.743   3.478 -43.7970  0.00  0.00     0.000 OA
ATOM     13   S  Z9H D   1       5.345   4.822 -44.0510  0.00  0.00     0.000 S
ATOM     14   O  Z9H D   1       4.050   5.152 -43.5300  0.00  0.00     0.000 OA
ATOM     15   O  Z9H D   1       6.495   5.698 -44.0380  0.00  0.00     0.000 O
ENDBRANCH 2 11
BRANCH 5 16
ATOM     16   C  Z9H D   1       4.312   8.940 -48.9290  0.00  0.00     0.000 C
ATOM     17   S  Z9H D   1       3.601  10.736 -48.3720  0.00  0.00     0.000 S
ATOM     18   O  Z9H D   1       4.541   9.604 -47.7090  0.00  0.00     0.000 O
ATOM     19   O  Z9H D   1       2.229  10.354 -48.5470  0.00  0.00     0.000 O
ATOM     20   O  Z9H D   1       4.334  11.476 -49.3400  0.00  0.00     0.000 OA
ATOM     21   O  Z9H D   1       3.830  11.341 -47.0930  0.00  0.00     0.000 OA
ENDBRANCH 5 16
BRANCH 1 22
ATOM     22  O4  GU1 D   2       6.251   4.910 -47.7380  0.00  0.00     0.000 O
BRANCH 22 26
ATOM     23  C1  GU1 D   2       9.254   3.155 -49.9460  0.00  0.00     0.000 C
ATOM     24  C2  GU1 D   2       9.550   3.295 -48.4610  0.00  0.00     0.000 C
ATOM     25  C3  GU1 D   2       8.274   3.578 -47.7230  0.00  0.00     0.000 C
ATOM     26  C4  GU1 D   2       7.548   4.771 -48.3290  0.00  0.00     0.000 C
ATOM     27  C5  GU1 D   2       7.393   4.577 -49.8410  0.00  0.00     0.000 C
ATOM     28  O5  GU1 D   2       8.662   4.348 -50.4470  0.00  0.00     0.000 O
ATOM     29   O  GU1 D   2      10.124   2.111 -47.9190  0.00  0.00     0.000 O
ATOM     30   C  GU1 D   2      11.542   2.144 -47.8380  0.00  0.00     0.000 C
ATOM     31   C  GU1 D   2       8.360   2.820 -45.4400  0.00  0.00     0.000 C
ATOM     32   O  GU1 D   2       8.595   3.882 -46.3620  0.00  0.00     0.000 O
BRANCH 27 33
ATOM     33   C  GU1 D   2       6.784   5.799 -50.4880  0.00  0.00     0.000 C
ATOM     34   O  GU1 D   2       7.408   6.839 -50.4590  0.00  0.00     0.000 OA
ATOM     35   O  GU1 D   2       5.692   5.734 -51.0310  0.00  0.00     0.000 O
ENDBRANCH 27 33
BRANCH 23 36
ATOM     36  O4  GU6 D   3      10.336   3.126 -50.8970  0.00  0.00     0.000 O
BRANCH 36 40
ATOM     37  C1  GU6 D   3      11.855   4.741 -54.3290  0.00  0.00     0.000 C
ATOM     38  C2  GU6 D   3      11.758   5.727 -53.1720  0.00  0.00     0.000 C
ATOM     39  C3  GU6 D   3      11.452   4.982 -51.8990  0.00  0.00     0.000 C
ATOM     40  C4  GU6 D   3      11.091   3.565 -52.0090  0.00  0.00     0.000 C
ATOM     41  C5  GU6 D   3      10.209   3.347 -53.2820  0.00  0.00     0.000 C
ATOM     42  O5  GU6 D   3      10.614   4.064 -54.4530  0.00  0.00     0.000 O
BRANCH 38 43
ATOM     43   O  GU6 D   3      12.966   6.449 -53.0300  0.00  0.00     0.000 O
ATOM     44   S  GU6 D   3      12.912   7.877 -53.5580  0.00  0.00     0.000 S
ATOM     45   O  GU6 D   3      13.110   7.845 -55.0170  0.00  0.00     0.000 OA
ATOM     46   O  GU6 D   3      11.583   8.439 -53.2560  0.00  0.00     0.000 O
ATOM     47   O  GU6 D   3      13.950   8.662 -52.8970  0.00  0.00     0.000 OA
ENDBRANCH 38 43
BRANCH 39 48
ATOM     48   O  GU6 D   3      11.726   5.559 -50.6360  0.00  0.00     0.000 O
ATOM     49   S  GU6 D   3      13.003   5.522 -49.7980  0.00  0.00     0.000 S
ATOM     50   O  GU6 D   3      14.138   6.020 -50.5830  0.00  0.00     0.000 OA
ATOM     51   O  GU6 D   3      12.694   6.424 -48.6800  0.00  0.00     0.000 OA
ATOM     52   O  GU6 D   3      13.256   4.127 -49.3710  0.00  0.00     0.000 O
ENDBRANCH 39 48
BRANCH 41 53
ATOM     53   C  GU6 D   3       8.996   2.472 -53.4550  0.00  0.00     0.000 C
ATOM     54   O  GU6 D   3       8.052   3.493 -53.6540  0.00  0.00     0.000 O
ATOM     55   S  GU6 D   3       6.560   3.159 -53.7790  0.00  0.00     0.000 S
ATOM     56   O  GU6 D   3       6.128   2.631 -52.4640  0.00  0.00     0.000 O
ATOM     57   O  GU6 D   3       5.830   4.391 -54.1090  0.00  0.00     0.000 OA
ATOM     58   O  GU6 D   3       6.427   2.130 -54.8350  0.00  0.00     0.000 OA
ENDBRANCH 41 53
BRANCH 37 59
ATOM     59  O4  Z9K D   4      12.898   3.757 -54.4950  0.00  0.00     0.000 O
BRANCH 59 63
ATOM     60  C1  Z9K D   4      15.902   5.697 -56.1260  0.00  0.00     0.000 C
ATOM     61  C2  Z9K D   4      15.106   5.260 -57.3860  0.00  0.00     0.000 C
ATOM     62  C3  Z9K D   4      13.803   4.639 -56.7200  0.00  0.00     0.000 C
ATOM     63  C4  Z9K D   4      13.959   3.665 -55.4900  0.00  0.00     0.000 C
ATOM     64  C5  Z9K D   4      15.225   3.850 -54.6400  0.00  0.00     0.000 C
ATOM     65  O5  Z9K D   4      15.479   5.275 -54.7450  0.00  0.00     0.000 O
ATOM     66   O  Z9K D   4      12.971   3.926 -57.6530  0.00  0.00     0.000 O
ATOM     67   C  Z9K D   4      12.053   4.743 -58.3610  0.00  0.00     0.000 C
BRANCH 61 68
ATOM     68   O  Z9K D   4      14.695   6.430 -58.0390  0.00  0.00     0.000 O
ATOM     69   O  Z9K D   4      15.025   4.510 -59.6990  0.00  0.00     0.000 OA
ATOM     70   S  Z9K D   4      15.600   5.712 -59.1750  0.00  0.00     0.000 S
ATOM     71   O  Z9K D   4      16.983   5.912 -58.8640  0.00  0.00     0.000 OA
ATOM     72   O  Z9K D   4      15.098   6.858 -59.8610  0.00  0.00     0.000 OA
ENDBRANCH 61 68
BRANCH 64 73
ATOM     73   C  Z9K D   4      15.040   3.231 -53.2380  0.00  0.00     0.000 C
ATOM     74   O  Z9K D   4      14.812   1.995 -53.0920  0.00  0.00     0.000 O
ATOM     75   O  Z9K D   4      15.113   3.924 -52.1940  0.00  0.00     0.000 OA
ENDBRANCH 64 73
BRANCH 60 76
ATOM     76  O4  Z9L D   5      17.309   5.555 -55.8620  0.00  0.00     0.000 O
BRANCH 76 80
ATOM     77  C1  Z9L D   5      20.624   7.400 -54.6080  0.00  0.00     0.000 C
ATOM     78  C2  Z9L D   5      20.224   6.335 -53.4780  0.00  0.00     0.000 C
ATOM     79  C3  Z9L D   5      19.130   5.259 -54.1910  0.00  0.00     0.000 C
ATOM     80  C4  Z9L D   5      18.180   6.297 -55.0480  0.00  0.00     0.000 C
ATOM     81  C5  Z9L D   5      18.568   7.528 -56.0140  0.00  0.00     0.000 C
ATOM     82  O5  Z9L D   5      19.649   8.221 -55.3710  0.00  0.00     0.000 O
ATOM     83   C  Z9L D   5      21.985   7.604 -56.6080  0.00  0.00     0.000 C
ATOM     84   C  Z9L D   5      21.985   7.604 -56.6080  0.00  0.00     0.000 C
BRANCH 78 85
ATOM     85   O  Z9L D   5      21.374   5.640 -53.1130  0.00  0.00     0.000 O
ATOM     86   O  Z9L D   5      22.307   5.847 -51.4410  0.00  0.00     0.000 OA
ATOM     87   S  Z9L D   5      21.058   6.464 -51.7700  0.00  0.00     0.000 S
ATOM     88   O  Z9L D   5      20.089   5.827 -50.9120  0.00  0.00     0.000 OA
ATOM     89   O  Z9L D   5      21.327   7.860 -51.8040  0.00  0.00     0.000 OA
ENDBRANCH 78 85
BRANCH 79 90
ATOM     90   O  Z9L D   5      18.242   4.742 -53.2520  0.00  0.00     0.000 O
ATOM     91   S  Z9L D   5      18.972   3.399 -53.6970  0.00  0.00     0.000 S
ATOM     92   O  Z9L D   5      20.400   3.236 -53.6200  0.00  0.00     0.000 OA
ATOM     93   O  Z9L D   5      18.209   2.764 -54.7420  0.00  0.00     0.000 O
ATOM     94   O  Z9L D   5      18.429   2.959 -52.4520  0.00  0.00     0.000 OA
ENDBRANCH 79 90
BRANCH 81 95
ATOM     95   C  Z9L D   5      17.308   8.432 -56.6530  0.00  0.00     0.000 C
ATOM     96   S  Z9L D   5      16.061   9.948 -56.3170  0.00  0.00     0.000 S
ATOM     97   O  Z9L D   5      16.704   8.806 -55.4440  0.00  0.00     0.000 O
ATOM     98   O  Z9L D   5      15.065   9.322 -57.1490  0.00  0.00     0.000 OA
ATOM     99   O  Z9L D   5      16.968  10.911 -56.8440  0.00  0.00     0.000 OA
ATOM    100   O  Z9L D   5      15.455  10.275 -55.0490  0.00  0.00     0.000 O
ENDBRANCH 81 95
ENDBRANCH 76 80
ENDBRANCH 60 76
ENDBRANCH 59 63
ENDBRANCH 37 59
ENDBRANCH 36 40
ENDBRANCH 23 36
ENDBRANCH 22 26
ENDBRANCH 1 22
TORSDOF 19
ENDMDL
MODEL 6
REMARK VINA RESULT:      -7.7     29.357     34.998
ROOT
ATOM      1  C1  Z9H D   1       5.111  39.793 -37.2860  0.00  0.00     0.000 C
ATOM      2  C2  Z9H D   1       5.850  40.168 -38.5930  0.00  0.00     0.000 C
ATOM      3  C3  Z9H D   1       5.223  41.580 -38.8050  0.00  0.00     0.000 C
ATOM      4  C4  Z9H D   1       3.641  41.639 -38.7250  0.00  0.00     0.000 C
ATOM      5  C5  Z9H D   1       2.809  40.960 -37.5660  0.00  0.00     0.000 C
ATOM      6  O5  Z9H D   1       3.658  39.836 -37.2230  0.00  0.00     0.000 O
ATOM      7   O  Z9H D   1       5.682  42.183 -40.0170  0.00  0.00     0.000 O
ATOM      8   C  Z9H D   1       6.755  43.128 -39.8660  0.00  0.00     0.000 C
ATOM      9   O  Z9H D   1       3.304  43.031 -38.7270  0.00  0.00     0.000 O
ATOM     10   C  Z9H D   1       2.894  43.564 -39.9900  0.00  0.00     0.000 C
ENDROOT
BRANCH 2 11
ATOM     11   O  Z9H D   1       7.153  40.412 -38.1310  0.00  0.00     0.000 O
ATOM     12   O  Z9H D   1       8.644  39.333 -38.5460  0.00  0.00     0.000 OA
ATOM     13   S  Z9H D   1       7.327  39.125 -39.0460  0.00  0.00     0.000 S
ATOM     14   O  Z9H D   1       7.157  39.518 -40.4150  0.00  0.00     0.000 OA
ATOM     15   O  Z9H D   1       6.736  37.954 -38.4370  0.00  0.00     0.000 O
ENDBRANCH 2 11
BRANCH 5 16
ATOM     16   C  Z9H D   1       1.180  40.753 -37.8910  0.00  0.00     0.000 C
ATOM     17   S  Z9H D   1      -0.135  39.954 -39.1850  0.00  0.00     0.000 S
ATOM     18   O  Z9H D   1       1.269  39.501 -38.5290  0.00  0.00     0.000 O
ATOM     19   O  Z9H D   1      -0.045  41.054 -40.1020  0.00  0.00     0.000 O
ATOM     20   O  Z9H D   1      -1.186  39.813 -38.2380  0.00  0.00     0.000 OA
ATOM     21   O  Z9H D   1       0.034  38.692 -39.8420  0.00  0.00     0.000 OA
ENDBRANCH 5 16
BRANCH 1 22
ATOM     22  O4  GU1 D   2       5.454  40.625 -36.1200  0.00  0.00     0.000 O
BRANCH 22 26
ATOM     23  C1  GU1 D   2       6.066  40.566 -32.0460  0.00  0.00     0.000 C
ATOM     24  C2  GU1 D   2       6.392  39.263 -32.7610  0.00  0.00     0.000 C
ATOM     25  C3  GU1 D   2       6.500  39.519 -34.2360  0.00  0.00     0.000 C
ATOM     26  C4  GU1 D   2       5.256  40.223 -34.7590  0.00  0.00     0.000 C
ATOM     27  C5  GU1 D   2       4.958  41.461 -33.9080  0.00  0.00     0.000 C
ATOM     28  O5  GU1 D   2       4.843  41.105 -32.5330  0.00  0.00     0.000 O
ATOM     29   O  GU1 D   2       7.622  38.704 -32.3150  0.00  0.00     0.000 O
ATOM     30   C  GU1 D   2       7.471  37.703 -31.3190  0.00  0.00     0.000 C
ATOM     31   C  GU1 D   2       7.952  37.937 -35.3250  0.00  0.00     0.000 C
ATOM     32   O  GU1 D   2       6.628  38.260 -34.9050  0.00  0.00     0.000 O
BRANCH 27 33
ATOM     33   C  GU1 D   2       3.662  42.113 -34.3280  0.00  0.00     0.000 C
ATOM     34   O  GU1 D   2       3.714  43.132 -34.9840  0.00  0.00     0.000 OA
ATOM     35   O  GU1 D   2       2.589  41.620 -34.0150  0.00  0.00     0.000 O
ENDBRANCH 27 33
BRANCH 23 36
ATOM     36  O4  GU6 D   3       5.670  40.548 -30.6610  0.00  0.00     0.000 O
BRANCH 36 40
ATOM     37  C1  GU6 D   3       6.096  42.370 -27.0280  0.00  0.00     0.000 C
ATOM     38  C2  GU6 D   3       5.240  43.153 -28.0160  0.00  0.00     0.000 C
ATOM     39  C3  GU6 D   3       4.922  42.286 -29.2060  0.00  0.00     0.000 C
ATOM     40  C4  GU6 D   3       5.627  41.005 -29.3240  0.00  0.00     0.000 C
ATOM     41  C5  GU6 D   3       7.107  41.177 -28.8470  0.00  0.00     0.000 C
ATOM     42  O5  GU6 D   3       7.297  41.982 -27.6780  0.00  0.00     0.000 O
BRANCH 38 43
ATOM     43   O  GU6 D   3       4.043  43.588 -27.4010  0.00  0.00     0.000 O
ATOM     44   S  GU6 D   3       4.058  45.043 -26.9530  0.00  0.00     0.000 S
ATOM     45   O  GU6 D   3       4.747  45.126 -25.6540  0.00  0.00     0.000 OA
ATOM     46   O  GU6 D   3       4.799  45.835 -27.9520  0.00  0.00     0.000 O
ATOM     47   O  GU6 D   3       2.682  45.520 -26.8570  0.00  0.00     0.000 OA
ENDBRANCH 38 43
BRANCH 39 48
ATOM     48   O  GU6 D   3       3.823  42.582 -30.0470  0.00  0.00     0.000 O
ATOM     49   S  GU6 D   3       2.382  42.077 -29.9930  0.00  0.00     0.000 S
ATOM     50   O  GU6 D   3       1.801  42.347 -28.6730  0.00  0.00     0.000 OA
ATOM     51   O  GU6 D   3       1.714  42.864 -31.0380  0.00  0.00     0.000 OA
ATOM     52   O  GU6 D   3       2.373  40.622 -30.2620  0.00  0.00     0.000 O
ENDBRANCH 39 48
BRANCH 41 53
ATOM     53   C  GU6 D   3       8.366  40.601 -29.4380  0.00  0.00     0.000 C
ATOM     54   O  GU6 D   3       9.261  41.575 -28.9670  0.00  0.00     0.000 O
ATOM     55   S  GU6 D   3      10.737  41.541 -29.3840  0.00  0.00     0.000 S
ATOM     56   O  GU6 D   3      10.776  41.807 -30.8400  0.00  0.00     0.000 O
ATOM     57   O  GU6 D   3      11.456  42.590 -28.6450  0.00  0.00     0.000 OA
ATOM     58   O  GU6 D   3      11.250  40.188 -29.0750  0.00  0.00     0.000 OA
ENDBRANCH 41 53
BRANCH 37 59
ATOM     59  O4  Z9K D   4       5.643  41.240 -26.2530  0.00  0.00     0.000 O
BRANCH 59 63
ATOM     60  C1  Z9K D   4       3.802  42.567 -23.0450  0.00  0.00     0.000 C
ATOM     61  C2  Z9K D   4       5.287  42.654 -22.5970  0.00  0.00     0.000 C
ATOM     62  C3  Z9K D   4       6.033  42.294 -23.9550  0.00  0.00     0.000 C
ATOM     63  C4  Z9K D   4       5.522  41.073 -24.8110  0.00  0.00     0.000 C
ATOM     64  C5  Z9K D   4       4.039  40.706 -24.6450  0.00  0.00     0.000 C
ATOM     65  O5  Z9K D   4       3.418  41.991 -24.3800  0.00  0.00     0.000 O
ATOM     66   O  Z9K D   4       7.443  42.063 -23.7860  0.00  0.00     0.000 O
ATOM     67   C  Z9K D   4       8.238  43.237 -23.8210  0.00  0.00     0.000 C
BRANCH 61 68
ATOM     68   O  Z9K D   4       5.561  44.005 -22.3440  0.00  0.00     0.000 O
ATOM     69   O  Z9K D   4       6.938  42.479 -20.8190  0.00  0.00     0.000 OA
ATOM     70   S  Z9K D   4       5.794  43.337 -20.8870  0.00  0.00     0.000 S
ATOM     71   O  Z9K D   4       4.522  43.084 -20.2820  0.00  0.00     0.000 OA
ATOM     72   O  Z9K D   4       6.164  44.698 -20.6640  0.00  0.00     0.000 OA
ENDBRANCH 61 68
BRANCH 64 73
ATOM     73   C  Z9K D   4       3.542  39.875 -25.8470  0.00  0.00     0.000 C
ATOM     74   O  Z9K D   4       2.705  40.348 -26.6700  0.00  0.00     0.000 O
ATOM     75   O  Z9K D   4       3.951  38.707 -26.0570  0.00  0.00     0.000 OA
ENDBRANCH 64 73
BRANCH 60 76
ATOM     76  O4  Z9L D   5       2.690  41.983 -22.3450  0.00  0.00     0.000 O
BRANCH 76 80
ATOM     77  C1  Z9L D   5      -1.152  42.400 -21.3260  0.00  0.00     0.000 C
ATOM     78  C2  Z9L D   5      -1.076  41.204 -22.3930  0.00  0.00     0.000 C
ATOM     79  C3  Z9L D   5       0.545  40.726 -22.4720  0.00  0.00     0.000 C
ATOM     80  C4  Z9L D   5       1.306  42.187 -22.4660  0.00  0.00     0.000 C
ATOM     81  C5  Z9L D   5       1.080  43.490 -21.5430  0.00  0.00     0.000 C
ATOM     82  O5  Z9L D   5      -0.339  43.641 -21.3970  0.00  0.00     0.000 O
ATOM     83   C  Z9L D   5      -1.094  42.794 -18.9320  0.00  0.00     0.000 C
ATOM     84   C  Z9L D   5      -1.094  42.794 -18.9320  0.00  0.00     0.000 C
BRANCH 78 85
ATOM     85   O  Z9L D   5      -1.841  40.146 -21.9110  0.00  0.00     0.000 O
ATOM     86   O  Z9L D   5      -3.539  39.591 -22.6310  0.00  0.00     0.000 OA
ATOM     87   S  Z9L D   5      -2.691  40.594 -23.1990  0.00  0.00     0.000 S
ATOM     88   O  Z9L D   5      -2.216  40.026 -24.4360  0.00  0.00     0.000 OA
ATOM     89   O  Z9L D   5      -3.421  41.810 -23.0850  0.00  0.00     0.000 OA
ENDBRANCH 78 85
BRANCH 79 90
ATOM     90   O  Z9L D   5       0.865  40.223 -23.7300  0.00  0.00     0.000 O
ATOM     91   S  Z9L D   5       1.251  38.965 -22.8330  0.00  0.00     0.000 S
ATOM     92   O  Z9L D   5       0.313  38.340 -21.9380  0.00  0.00     0.000 OA
ATOM     93   O  Z9L D   5       2.656  39.018 -22.5160  0.00  0.00     0.000 O
ATOM     94   O  Z9L D   5       1.128  38.313 -24.0970  0.00  0.00     0.000 OA
ENDBRANCH 79 90
BRANCH 81 95
ATOM     95   C  Z9L D   5       1.997  44.850 -21.8940  0.00  0.00     0.000 C
ATOM     96   S  Z9L D   5       2.011  46.601 -22.8440  0.00  0.00     0.000 S
ATOM     97   O  Z9L D   5       1.400  45.176 -23.1200  0.00  0.00     0.000 O
ATOM     98   O  Z9L D   5       3.433  46.488 -23.0450  0.00  0.00     0.000 OA
ATOM     99   O  Z9L D   5       1.474  47.298 -21.7240  0.00  0.00     0.000 OA
ATOM    100   O  Z9L D   5       1.390  46.872 -24.1170  0.00  0.00     0.000 O
ENDBRANCH 81 95
ENDBRANCH 76 80
ENDBRANCH 60 76
ENDBRANCH 59 63
ENDBRANCH 37 59
ENDBRANCH 36 40
ENDBRANCH 23 36
ENDBRANCH 22 26
ENDBRANCH 1 22
TORSDOF 19
ENDMDL
MODEL 7
REMARK VINA RESULT:      -7.7      4.297     14.410
ROOT
ATOM      1  C1  Z9H D   1       1.200  10.205 -49.0270  0.00  0.00     0.000 C
ATOM      2  C2  Z9H D   1       1.664   8.780 -49.4110  0.00  0.00     0.000 C
ATOM      3  C3  Z9H D   1       0.328   8.272 -50.0360  0.00  0.00     0.000 C
ATOM      4  C4  Z9H D   1      -0.964   8.490 -49.1460  0.00  0.00     0.000 C
ATOM      5  C5  Z9H D   1      -1.305   9.862 -48.4390  0.00  0.00     0.000 C
ATOM      6  O5  Z9H D   1       0.020  10.398 -48.1990  0.00  0.00     0.000 O
ATOM      7   O  Z9H D   1       0.425   6.907 -50.4470  0.00  0.00     0.000 O
ATOM      8   C  Z9H D   1       0.686   6.701 -51.8450  0.00  0.00     0.000 C
ATOM      9   O  Z9H D   1      -2.075   8.161 -49.9870  0.00  0.00     0.000 O
ATOM     10   C  Z9H D   1      -2.620   6.851 -49.8060  0.00  0.00     0.000 C
ENDROOT
BRANCH 2 11
ATOM     11   O  Z9H D   1       2.508   9.031 -50.5040  0.00  0.00     0.000 O
ATOM     12   O  Z9H D   1       4.362   8.689 -50.5120  0.00  0.00     0.000 OA
ATOM     13   S  Z9H D   1       3.487   8.394 -49.4280  0.00  0.00     0.000 S
ATOM     14   O  Z9H D   1       3.171   7.000 -49.2990  0.00  0.00     0.000 OA
ATOM     15   O  Z9H D   1       3.729   9.297 -48.3260  0.00  0.00     0.000 O
ENDBRANCH 2 11
BRANCH 5 16
ATOM     16   C  Z9H D   1      -2.440   9.764 -47.2130  0.00  0.00     0.000 C
ATOM     17   S  Z9H D   1      -2.790   9.043 -45.3690  0.00  0.00     0.000 S
ATOM     18   O  Z9H D   1      -1.547   9.743 -46.1250  0.00  0.00     0.000 O
ATOM     19   O  Z9H D   1      -3.120   7.730 -45.8420  0.00  0.00     0.000 O
ATOM     20   O  Z9H D   1      -3.766  10.017 -45.0270  0.00  0.00     0.000 OA
ATOM     21   O  Z9H D   1      -1.821   9.005 -44.3130  0.00  0.00     0.000 OA
ENDBRANCH 5 16
BRANCH 1 22
ATOM     22  O4  GU1 D   2       0.870  11.077 -50.1690  0.00  0.00     0.000 O
BRANCH 22 26
ATOM     23  C1  GU1 D   2       1.143  14.905 -51.6670  0.00  0.00     0.000 C
ATOM     24  C2  GU1 D   2       2.324  14.466 -50.8140  0.00  0.00     0.000 C
ATOM     25  C3  GU1 D   2       2.295  12.973 -50.6560  0.00  0.00     0.000 C
ATOM     26  C4  GU1 D   2       0.943  12.507 -50.1360  0.00  0.00     0.000 C
ATOM     27  C5  GU1 D   2      -0.180  13.087 -51.0010  0.00  0.00     0.000 C
ATOM     28  O5  GU1 D   2      -0.081  14.508 -51.0590  0.00  0.00     0.000 O
ATOM     29   O  GU1 D   2       3.568  14.827 -51.4020  0.00  0.00     0.000 O
ATOM     30   C  GU1 D   2       4.113  16.037 -50.8960  0.00  0.00     0.000 C
ATOM     31   C  GU1 D   2       4.491  12.061 -50.2840  0.00  0.00     0.000 C
ATOM     32   O  GU1 D   2       3.303  12.600 -49.7110  0.00  0.00     0.000 O
BRANCH 27 33
ATOM     33   C  GU1 D   2      -1.538  12.740 -50.4380  0.00  0.00     0.000 C
ATOM     34   O  GU1 D   2      -2.255  11.998 -51.0760  0.00  0.00     0.000 OA
ATOM     35   O  GU1 D   2      -1.899  13.196 -49.3640  0.00  0.00     0.000 O
ENDBRANCH 27 33
BRANCH 23 36
ATOM     36  O4  GU6 D   3       0.803  16.302 -51.7640  0.00  0.00     0.000 O
BRANCH 36 40
ATOM     37  C1  GU6 D   3       0.615  20.285 -52.6550  0.00  0.00     0.000 C
ATOM     38  C2  GU6 D   3       0.538  19.980 -51.1640  0.00  0.00     0.000 C
ATOM     39  C3  GU6 D   3       0.886  18.535 -50.9250  0.00  0.00     0.000 C
ATOM     40  C4  GU6 D   3       1.006  17.660 -52.0970  0.00  0.00     0.000 C
ATOM     41  C5  GU6 D   3      -0.084  18.045 -53.1500  0.00  0.00     0.000 C
ATOM     42  O5  GU6 D   3      -0.306  19.448 -53.3360  0.00  0.00     0.000 O
BRANCH 38 43
ATOM     43   O  GU6 D   3       1.420  20.816 -50.4390  0.00  0.00     0.000 O
ATOM     44   S  GU6 D   3       1.058  22.295 -50.4760  0.00  0.00     0.000 S
ATOM     45   O  GU6 D   3       1.563  22.868 -51.7360  0.00  0.00     0.000 OA
ATOM     46   O  GU6 D   3      -0.410  22.422 -50.4330  0.00  0.00     0.000 O
ATOM     47   O  GU6 D   3       1.652  22.954 -49.3170  0.00  0.00     0.000 OA
ENDBRANCH 38 43
BRANCH 39 48
ATOM     48   O  GU6 D   3       1.310  18.090 -49.6510  0.00  0.00     0.000 O
ATOM     49   S  GU6 D   3       0.486  17.712 -48.4200  0.00  0.00     0.000 S
ATOM     50   O  GU6 D   3      -0.492  16.673 -48.7660  0.00  0.00     0.000 OA
ATOM     51   O  GU6 D   3       1.498  17.199 -47.4870  0.00  0.00     0.000 OA
ATOM     52   O  GU6 D   3      -0.212  18.918 -47.9210  0.00  0.00     0.000 O
ENDBRANCH 39 48
BRANCH 41 53
ATOM     53   C  GU6 D   3      -0.928  17.145 -54.0120  0.00  0.00     0.000 C
ATOM     54   O  GU6 D   3      -0.369  17.490 -55.2530  0.00  0.00     0.000 O
ATOM     55   S  GU6 D   3      -0.954  16.925 -56.5550  0.00  0.00     0.000 S
ATOM     56   O  GU6 D   3      -2.314  17.494 -56.6940  0.00  0.00     0.000 O
ATOM     57   O  GU6 D   3      -0.098  17.345 -57.6740  0.00  0.00     0.000 OA
ATOM     58   O  GU6 D   3      -1.005  15.453 -56.4100  0.00  0.00     0.000 OA
ENDBRANCH 41 53
BRANCH 37 59
ATOM     59  O4  Z9K D   4       1.830  20.310 -53.4330  0.00  0.00     0.000 O
BRANCH 59 63
ATOM     60  C1  Z9K D   4       3.939  22.533 -55.8950  0.00  0.00     0.000 C
ATOM     61  C2  Z9K D   4       2.493  22.856 -56.3610  0.00  0.00     0.000 C
ATOM     62  C3  Z9K D   4       1.642  22.103 -55.2490  0.00  0.00     0.000 C
ATOM     63  C4  Z9K D   4       2.044  20.635 -54.8380  0.00  0.00     0.000 C
ATOM     64  C5  Z9K D   4       3.519  20.257 -55.0420  0.00  0.00     0.000 C
ATOM     65  O5  Z9K D   4       4.208  21.516 -54.8190  0.00  0.00     0.000 O
ATOM     66   O  Z9K D   4       0.239  22.028 -55.5600  0.00  0.00     0.000 O
ATOM     67   C  Z9K D   4      -0.510  23.167 -55.1660  0.00  0.00     0.000 C
BRANCH 61 68
ATOM     68   O  Z9K D   4       2.290  24.227 -56.1500  0.00  0.00     0.000 O
ATOM     69   O  Z9K D   4       0.894  23.376 -58.1190  0.00  0.00     0.000 OA
ATOM     70   S  Z9K D   4       2.074  24.098 -57.7510  0.00  0.00     0.000 S
ATOM     71   O  Z9K D   4       3.352  23.993 -58.3860  0.00  0.00     0.000 OA
ATOM     72   O  Z9K D   4       1.775  25.473 -57.5100  0.00  0.00     0.000 OA
ENDBRANCH 61 68
BRANCH 64 73
ATOM     73   C  Z9K D   4       3.899  19.040 -54.1730  0.00  0.00     0.000 C
ATOM     74   O  Z9K D   4       4.691  19.155 -53.1930  0.00  0.00     0.000 O
ATOM     75   O  Z9K D   4       3.435  17.895 -54.3990  0.00  0.00     0.000 OA
ENDBRANCH 64 73
BRANCH 60 76
ATOM     76  O4  Z9L D   5       5.073  22.154 -56.6940  0.00  0.00     0.000 O
BRANCH 76 80
ATOM     77  C1  Z9L D   5       8.892  22.912 -57.5950  0.00  0.00     0.000 C
ATOM     78  C2  Z9L D   5       8.870  21.545 -56.7560  0.00  0.00     0.000 C
ATOM     79  C3  Z9L D   5       7.272  20.990 -56.7750  0.00  0.00     0.000 C
ATOM     80  C4  Z9L D   5       6.447  22.395 -56.5280  0.00  0.00     0.000 C
ATOM     81  C5  Z9L D   5       6.614  23.848 -57.2060  0.00  0.00     0.000 C
ATOM     82  O5  Z9L D   5       8.026  24.085 -57.3130  0.00  0.00     0.000 O
ATOM     83   C  Z9L D   5       8.815  23.719 -59.8830  0.00  0.00     0.000 C
ATOM     84   C  Z9L D   5       8.815  23.719 -59.8830  0.00  0.00     0.000 C
BRANCH 78 85
ATOM     85   O  Z9L D   5       9.681  20.623 -57.4110  0.00  0.00     0.000 O
ATOM     86   O  Z9L D   5      11.410  20.038 -56.7970  0.00  0.00     0.000 OA
ATOM     87   S  Z9L D   5      10.520  20.888 -56.0670  0.00  0.00     0.000 S
ATOM     88   O  Z9L D   5      10.084  20.095 -54.9440  0.00  0.00     0.000 OA
ATOM     89   O  Z9L D   5      11.190  22.139 -55.9740  0.00  0.00     0.000 OA
ENDBRANCH 78 85
BRANCH 79 90
ATOM     90   O  Z9L D   5       6.976  20.260 -55.6270  0.00  0.00     0.000 O
ATOM     91   S  Z9L D   5       6.750  19.131 -56.7280  0.00  0.00     0.000 S
ATOM     92   O  Z9L D   5       7.772  18.758 -57.6700  0.00  0.00     0.000 OA
ATOM     93   O  Z9L D   5       5.356  19.092 -57.0930  0.00  0.00     0.000 O
ATOM     94   O  Z9L D   5       6.909  18.298 -55.5800  0.00  0.00     0.000 OA
ENDBRANCH 79 90
BRANCH 81 95
ATOM     95   C  Z9L D   5       5.638  25.084 -56.6270  0.00  0.00     0.000 C
ATOM     96   S  Z9L D   5       5.475  27.056 -56.3990  0.00  0.00     0.000 S
ATOM     97   O  Z9L D   5       6.650  26.009 -56.3320  0.00  0.00     0.000 O
ATOM     98   O  Z9L D   5       4.678  26.860 -55.2150  0.00  0.00     0.000 OA
ATOM     99   O  Z9L D   5       4.872  27.230 -57.6770  0.00  0.00     0.000 OA
ATOM    100   O  Z9L D   5       6.553  27.958 -56.0780  0.00  0.00     0.000 O
ENDBRANCH 81 95
ENDBRANCH 76 80
ENDBRANCH 60 76
ENDBRANCH 59 63
ENDBRANCH 37 59
ENDBRANCH 36 40
ENDBRANCH 23 36
ENDBRANCH 22 26
ENDBRANCH 1 22
TORSDOF 19
ENDMDL
MODEL 8
REMARK VINA RESULT:      -7.7      3.410      6.703
ROOT
ATOM      1  C1  Z9H D   1      -1.471  19.443 -60.3890  0.00  0.00     0.000 C
ATOM      2  C2  Z9H D   1      -2.556  20.230 -61.1630  0.00  0.00     0.000 C
ATOM      3  C3  Z9H D   1      -3.799  19.412 -60.6980  0.00  0.00     0.000 C
ATOM      4  C4  Z9H D   1      -3.675  17.840 -60.8540  0.00  0.00     0.000 C
ATOM      5  C5  Z9H D   1      -2.408  17.022 -60.3790  0.00  0.00     0.000 C
ATOM      6  O5  Z9H D   1      -1.353  18.002 -60.5480  0.00  0.00     0.000 O
ATOM      7   O  Z9H D   1      -4.999  19.880 -61.3170  0.00  0.00     0.000 O
ATOM      8   C  Z9H D   1      -5.795  20.772 -60.5210  0.00  0.00     0.000 C
ATOM      9   O  Z9H D   1      -4.810  17.291 -60.1780  0.00  0.00     0.000 O
ATOM     10   C  Z9H D   1      -5.908  16.918 -61.0170  0.00  0.00     0.000 C
ENDROOT
BRANCH 2 11
ATOM     11   O  Z9H D   1      -2.617  21.431 -60.4390  0.00  0.00     0.000 O
ATOM     12   O  Z9H D   1      -2.109  23.112 -61.1290  0.00  0.00     0.000 OA
ATOM     13   S  Z9H D   1      -2.097  21.894 -61.8670  0.00  0.00     0.000 S
ATOM     14   O  Z9H D   1      -3.179  21.772 -62.8020  0.00  0.00     0.000 OA
ATOM     15   O  Z9H D   1      -0.739  21.463 -62.1070  0.00  0.00     0.000 O
ENDBRANCH 2 11
BRANCH 5 16
ATOM     16   C  Z9H D   1      -2.277  15.482 -61.0220  0.00  0.00     0.000 C
ATOM     17   S  Z9H D   1      -2.352  14.415 -62.7240  0.00  0.00     0.000 S
ATOM     18   O  Z9H D   1      -1.745  15.842 -62.2740  0.00  0.00     0.000 O
ATOM     19   O  Z9H D   1      -3.785  14.344 -62.7290  0.00  0.00     0.000 O
ATOM     20   O  Z9H D   1      -1.521  13.360 -62.2580  0.00  0.00     0.000 OA
ATOM     21   O  Z9H D   1      -1.832  14.856 -63.9850  0.00  0.00     0.000 OA
ENDBRANCH 5 16
BRANCH 1 22
ATOM     22  O4  GU1 D   2      -1.562  19.544 -58.9220  0.00  0.00     0.000 O
BRANCH 22 26
ATOM     23  C1  GU1 D   2       0.575  19.829 -55.4120  0.00  0.00     0.000 C
ATOM     24  C2  GU1 D   2       1.161  20.605 -56.5820  0.00  0.00     0.000 C
ATOM     25  C3  GU1 D   2       0.123  20.739 -57.6580  0.00  0.00     0.000 C
ATOM     26  C4  GU1 D   2      -0.449  19.380 -58.0350  0.00  0.00     0.000 C
ATOM     27  C5  GU1 D   2      -0.914  18.640 -56.7770  0.00  0.00     0.000 C
ATOM     28  O5  GU1 D   2       0.151  18.539 -55.8360  0.00  0.00     0.000 O
ATOM     29   O  GU1 D   2       1.577  21.911 -56.2000  0.00  0.00     0.000 O
ATOM     30   C  GU1 D   2       2.963  22.009 -55.9050  0.00  0.00     0.000 C
ATOM     31   C  GU1 D   2       0.475  22.696 -59.0140  0.00  0.00     0.000 C
ATOM     32   O  GU1 D   2       0.743  21.311 -58.8150  0.00  0.00     0.000 O
BRANCH 27 33
ATOM     33   C  GU1 D   2      -1.376  17.241 -57.1060  0.00  0.00     0.000 C
ATOM     34   O  GU1 D   2      -0.568  16.459 -57.5660  0.00  0.00     0.000 OA
ATOM     35   O  GU1 D   2      -2.533  16.906 -56.9090  0.00  0.00     0.000 O
ENDBRANCH 27 33
BRANCH 23 36
ATOM     36  O4  GU6 D   3       1.437  19.354 -54.3580  0.00  0.00     0.000 O
BRANCH 36 40
ATOM     37  C1  GU6 D   3       3.223  17.358 -51.2730  0.00  0.00     0.000 C
ATOM     38  C2  GU6 D   3       2.631  18.706 -50.8780  0.00  0.00     0.000 C
ATOM     39  C3  GU6 D   3       1.771  19.228 -51.9990  0.00  0.00     0.000 C
ATOM     40  C4  GU6 D   3       1.825  18.522 -53.2840  0.00  0.00     0.000 C
ATOM     41  C5  GU6 D   3       3.293  18.059 -53.5660  0.00  0.00     0.000 C
ATOM     42  O5  GU6 D   3       4.008  17.534 -52.4420  0.00  0.00     0.000 O
BRANCH 38 43
ATOM     43   O  GU6 D   3       1.863  18.585 -49.6960  0.00  0.00     0.000 O
ATOM     44   S  GU6 D   3       2.681  18.594 -48.4110  0.00  0.00     0.000 S
ATOM     45   O  GU6 D   3       3.221  17.241 -48.1900  0.00  0.00     0.000 OA
ATOM     46   O  GU6 D   3       3.795  19.546 -48.5680  0.00  0.00     0.000 O
ATOM     47   O  GU6 D   3       1.819  19.010 -47.3090  0.00  0.00     0.000 OA
ENDBRANCH 38 43
BRANCH 39 48
ATOM     48   O  GU6 D   3       0.781  20.209 -51.7590  0.00  0.00     0.000 O
ATOM     49   S  GU6 D   3       0.923  21.717 -51.5560  0.00  0.00     0.000 S
ATOM     50   O  GU6 D   3       1.636  22.314 -52.6910  0.00  0.00     0.000 OA
ATOM     51   O  GU6 D   3      -0.470  22.179 -51.5020  0.00  0.00     0.000 OA
ATOM     52   O  GU6 D   3       1.670  21.965 -50.3020  0.00  0.00     0.000 O
ENDBRANCH 39 48
BRANCH 41 53
ATOM     53   C  GU6 D   3       4.058  18.073 -54.8610  0.00  0.00     0.000 C
ATOM     54   O  GU6 D   3       5.158  18.829 -54.4240  0.00  0.00     0.000 O
ATOM     55   S  GU6 D   3       6.249  19.259 -55.4140  0.00  0.00     0.000 S
ATOM     56   O  GU6 D   3       5.617  20.207 -56.3610  0.00  0.00     0.000 O
ATOM     57   O  GU6 D   3       7.329  19.916 -54.6640  0.00  0.00     0.000 OA
ATOM     58   O  GU6 D   3       6.714  18.040 -56.1130  0.00  0.00     0.000 OA
ENDBRANCH 41 53
BRANCH 37 59
ATOM     59  O4  Z9K D   4       2.469  16.140 -51.4410  0.00  0.00     0.000 O
BRANCH 59 63
ATOM     60  C1  Z9K D   4       0.014  13.108 -50.9590  0.00  0.00     0.000 C
ATOM     61  C2  Z9K D   4      -0.575  14.135 -49.9530  0.00  0.00     0.000 C
ATOM     62  C3  Z9K D   4       0.304  15.419 -50.2840  0.00  0.00     0.000 C
ATOM     63  C4  Z9K D   4       1.863  15.260 -50.4500  0.00  0.00     0.000 C
ATOM     64  C5  Z9K D   4       2.357  13.875 -50.8930  0.00  0.00     0.000 C
ATOM     65  O5  Z9K D   4       1.271  13.400 -51.7320  0.00  0.00     0.000 O
ATOM     66   O  Z9K D   4       0.140  16.482 -49.3280  0.00  0.00     0.000 O
ATOM     67   C  Z9K D   4      -0.961  17.338 -49.5870  0.00  0.00     0.000 C
BRANCH 61 68
ATOM     68   O  Z9K D   4      -1.877  14.429 -50.3800  0.00  0.00     0.000 O
ATOM     69   O  Z9K D   4      -1.673  14.615 -47.8360  0.00  0.00     0.000 OA
ATOM     70   S  Z9K D   4      -2.140  13.795 -48.9130  0.00  0.00     0.000 S
ATOM     71   O  Z9K D   4      -2.022  12.372 -48.9920  0.00  0.00     0.000 OA
ATOM     72   O  Z9K D   4      -3.452  14.187 -49.3190  0.00  0.00     0.000 OA
ENDBRANCH 61 68
BRANCH 64 73
ATOM     73   C  Z9K D   4       3.775  13.965 -51.4960  0.00  0.00     0.000 C
ATOM     74   O  Z9K D   4       3.965  13.866 -52.7430  0.00  0.00     0.000 O
ATOM     75   O  Z9K D   4       4.789  14.145 -50.7770  0.00  0.00     0.000 OA
ENDBRANCH 64 73
BRANCH 60 76
ATOM     76  O4  Z9L D   5       0.334  11.724 -50.7390  0.00  0.00     0.000 O
BRANCH 76 80
ATOM     77  C1  Z9L D   5      -0.402   8.051 -52.1320  0.00  0.00     0.000 C
ATOM     78  C2  Z9L D   5       1.188   8.261 -52.1780  0.00  0.00     0.000 C
ATOM     79  C3  Z9L D   5       1.531   9.587 -51.1860  0.00  0.00     0.000 C
ATOM     80  C4  Z9L D   5       0.317  10.618 -51.6050  0.00  0.00     0.000 C
ATOM     81  C5  Z9L D   5      -1.265  10.365 -51.7890  0.00  0.00     0.000 C
ATOM     82  O5  Z9L D   5      -1.397   9.103 -52.4600  0.00  0.00     0.000 O
ATOM     83   C  Z9L D   5      -2.148   7.201 -50.6770  0.00  0.00     0.000 C
ATOM     84   C  Z9L D   5      -2.148   7.201 -50.6770  0.00  0.00     0.000 C
BRANCH 78 85
ATOM     85   O  Z9L D   5       1.789   7.125 -51.6450  0.00  0.00     0.000 O
ATOM     86   O  Z9L D   5       2.725   5.786 -52.6660  0.00  0.00     0.000 OA
ATOM     87   S  Z9L D   5       2.216   7.016 -53.1910  0.00  0.00     0.000 S
ATOM     88   O  Z9L D   5       3.384   7.792 -53.5270  0.00  0.00     0.000 OA
ATOM     89   O  Z9L D   5       1.194   6.638 -54.1050  0.00  0.00     0.000 OA
ENDBRANCH 78 85
BRANCH 79 90
ATOM     90   O  Z9L D   5       2.667  10.265 -51.6200  0.00  0.00     0.000 O
ATOM     91   S  Z9L D   5       3.119   9.909 -50.1350  0.00  0.00     0.000 S
ATOM     92   O  Z9L D   5       3.137   8.559 -49.6370  0.00  0.00     0.000 OA
ATOM     93   O  Z9L D   5       2.812  11.017 -49.2640  0.00  0.00     0.000 O
ATOM     94   O  Z9L D   5       4.402  10.165 -50.7070  0.00  0.00     0.000 OA
ENDBRANCH 79 90
BRANCH 81 95
ATOM     95   C  Z9L D   5      -2.194  11.656 -52.3230  0.00  0.00     0.000 C
ATOM     96   S  Z9L D   5      -3.109  12.458 -53.8990  0.00  0.00     0.000 S
ATOM     97   O  Z9L D   5      -1.775  11.657 -53.6610  0.00  0.00     0.000 O
ATOM     98   O  Z9L D   5      -2.904  13.776 -53.3570  0.00  0.00     0.000 OA
ATOM     99   O  Z9L D   5      -4.315  11.737 -53.6610  0.00  0.00     0.000 OA
ATOM    100   O  Z9L D   5      -2.619  12.442 -55.2560  0.00  0.00     0.000 O
ENDBRANCH 81 95
ENDBRANCH 76 80
ENDBRANCH 60 76
ENDBRANCH 59 63
ENDBRANCH 37 59
ENDBRANCH 36 40
ENDBRANCH 23 36
ENDBRANCH 22 26
ENDBRANCH 1 22
TORSDOF 19
ENDMDL
MODEL 9
REMARK VINA RESULT:      -7.6     38.303     45.437
ROOT
ATOM      1  C1  Z9H D   1       4.070  47.505 -11.4420  0.00  0.00     0.000 C
ATOM      2  C2  Z9H D   1       4.000  47.089  -9.9540  0.00  0.00     0.000 C
ATOM      3  C3  Z9H D   1       2.478  47.341  -9.7240  0.00  0.00     0.000 C
ATOM      4  C4  Z9H D   1       1.946  48.758 -10.1950  0.00  0.00     0.000 C
ATOM      5  C5  Z9H D   1       2.287  49.384 -11.6050  0.00  0.00     0.000 C
ATOM      6  O5  Z9H D   1       3.593  48.812 -11.8650  0.00  0.00     0.000 O
ATOM      7   O  Z9H D   1       2.102  47.095  -8.3680  0.00  0.00     0.000 O
ATOM      8   C  Z9H D   1       1.513  45.808  -8.1170  0.00  0.00     0.000 C
ATOM      9   O  Z9H D   1       0.520  48.690 -10.0960  0.00  0.00     0.000 O
ATOM     10   C  Z9H D   1      -0.047  49.277  -8.9200  0.00  0.00     0.000 C
ENDROOT
BRANCH 2 11
ATOM     11   O  Z9H D   1       4.132  45.694 -10.0330  0.00  0.00     0.000 O
ATOM     12   O  Z9H D   1       5.588  44.725  -9.3280  0.00  0.00     0.000 OA
ATOM     13   S  Z9H D   1       5.418  46.134  -9.2130  0.00  0.00     0.000 S
ATOM     14   O  Z9H D   1       4.997  46.563  -7.9090  0.00  0.00     0.000 OA
ATOM     15   O  Z9H D   1       6.373  46.827 -10.0470  0.00  0.00     0.000 O
ENDBRANCH 2 11
BRANCH 5 16
ATOM     16   C  Z9H D   1       2.016  51.031 -11.7340  0.00  0.00     0.000 C
ATOM     17   S  Z9H D   1       2.893  52.804 -12.0910  0.00  0.00     0.000 S
ATOM     18   O  Z9H D   1       3.000  51.312 -12.6990  0.00  0.00     0.000 O
ATOM     19   O  Z9H D   1       3.376  52.942 -10.7470  0.00  0.00     0.000 O
ATOM     20   O  Z9H D   1       1.716  53.443 -12.5650  0.00  0.00     0.000 OA
ATOM     21   O  Z9H D   1       3.928  53.020 -13.0580  0.00  0.00     0.000 OA
ENDBRANCH 5 16
BRANCH 1 22
ATOM     22  O4  GU1 D   2       3.320  46.635 -12.3640  0.00  0.00     0.000 O
BRANCH 22 26
ATOM     23  C1  GU1 D   2       3.279  45.020 -16.1540  0.00  0.00     0.000 C
ATOM     24  C2  GU1 D   2       4.666  45.261 -15.5760  0.00  0.00     0.000 C
ATOM     25  C3  GU1 D   2       4.556  45.477 -14.0940  0.00  0.00     0.000 C
ATOM     26  C4  GU1 D   2       3.549  46.572 -13.7770  0.00  0.00     0.000 C
ATOM     27  C5  GU1 D   2       2.223  46.287 -14.4890  0.00  0.00     0.000 C
ATOM     28  O5  GU1 D   2       2.433  46.132 -15.8900  0.00  0.00     0.000 O
ATOM     29   O  GU1 D   2       5.536  44.159 -15.8020  0.00  0.00     0.000 O
ATOM     30   C  GU1 D   2       6.375  44.312 -16.9380  0.00  0.00     0.000 C
ATOM     31   C  GU1 D   2       6.572  44.850 -12.9380  0.00  0.00     0.000 C
ATOM     32   O  GU1 D   2       5.838  45.877 -13.6000  0.00  0.00     0.000 O
BRANCH 27 33
ATOM     33   C  GU1 D   2       1.242  47.419 -14.2900  0.00  0.00     0.000 C
ATOM     34   O  GU1 D   2       0.271  47.224 -13.5890  0.00  0.00     0.000 OA
ATOM     35   O  GU1 D   2       1.429  48.502 -14.8210  0.00  0.00     0.000 O
ENDBRANCH 27 33
BRANCH 23 36
ATOM     36  O4  GU6 D   3       3.082  45.029 -17.5810  0.00  0.00     0.000 O
BRANCH 36 40
ATOM     37  C1  GU6 D   3       1.755  43.101 -20.9310  0.00  0.00     0.000 C
ATOM     38  C2  GU6 D   3       1.037  44.416 -20.6480  0.00  0.00     0.000 C
ATOM     39  C3  GU6 D   3       1.771  45.170 -19.5710  0.00  0.00     0.000 C
ATOM     40  C4  GU6 D   3       2.843  44.467 -18.8560  0.00  0.00     0.000 C
ATOM     41  C5  GU6 D   3       2.431  42.975 -18.6330  0.00  0.00     0.000 C
ATOM     42  O5  GU6 D   3       1.781  42.335 -19.7370  0.00  0.00     0.000 O
BRANCH 38 43
ATOM     43   O  GU6 D   3       0.960  45.202 -21.8210  0.00  0.00     0.000 O
ATOM     44   S  GU6 D   3      -0.459  45.462 -22.3120  0.00  0.00     0.000 S
ATOM     45   O  GU6 D   3      -0.912  44.289 -23.0780  0.00  0.00     0.000 OA
ATOM     46   O  GU6 D   3      -1.334  45.652 -21.1410  0.00  0.00     0.000 O
ATOM     47   O  GU6 D   3      -0.458  46.667 -23.1360  0.00  0.00     0.000 OA
ENDBRANCH 38 43
BRANCH 39 48
ATOM     48   O  GU6 D   3       1.597  46.565 -19.4130  0.00  0.00     0.000 O
ATOM     49   S  GU6 D   3       2.501  47.721 -19.8400  0.00  0.00     0.000 S
ATOM     50   O  GU6 D   3       2.784  47.637 -21.2770  0.00  0.00     0.000 OA
ATOM     51   O  GU6 D   3       1.694  48.908 -19.5260  0.00  0.00     0.000 OA
ATOM     52   O  GU6 D   3       3.763  47.652 -19.0700  0.00  0.00     0.000 O
ENDBRANCH 39 48
BRANCH 41 53
ATOM     53   C  GU6 D   3       2.636  42.107 -17.4210  0.00  0.00     0.000 C
ATOM     54   O  GU6 D   3       1.349  42.236 -16.8740  0.00  0.00     0.000 O
ATOM     55   S  GU6 D   3       1.017  41.616 -15.5100  0.00  0.00     0.000 S
ATOM     56   O  GU6 D   3       1.823  42.342 -14.5020  0.00  0.00     0.000 O
ATOM     57   O  GU6 D   3      -0.420  41.793 -15.2520  0.00  0.00     0.000 OA
ATOM     58   O  GU6 D   3       1.402  40.188 -15.5720  0.00  0.00     0.000 OA
ENDBRANCH 41 53
BRANCH 37 59
ATOM     59  O4  Z9K D   4       3.055  42.983 -21.5460  0.00  0.00     0.000 O
BRANCH 59 63
ATOM     60  C1  Z9K D   4       3.934  41.021 -24.8360  0.00  0.00     0.000 C
ATOM     61  C2  Z9K D   4       3.331  39.887 -23.9610  0.00  0.00     0.000 C
ATOM     62  C3  Z9K D   4       2.811  40.717 -22.7090  0.00  0.00     0.000 C
ATOM     63  C4  Z9K D   4       3.747  41.812 -22.0700  0.00  0.00     0.000 C
ATOM     64  C5  Z9K D   4       4.789  42.440 -23.0090  0.00  0.00     0.000 C
ATOM     65  O5  Z9K D   4       4.119  42.413 -24.2970  0.00  0.00     0.000 O
ATOM     66   O  Z9K D   4       2.407  39.887 -21.6040  0.00  0.00     0.000 O
ATOM     67   C  Z9K D   4       1.069  39.423 -21.6790  0.00  0.00     0.000 C
BRANCH 61 68
ATOM     68   O  Z9K D   4       2.190  39.418 -24.6250  0.00  0.00     0.000 O
ATOM     69   O  Z9K D   4       3.267  37.571 -23.2190  0.00  0.00     0.000 OA
ATOM     70   S  Z9K D   4       3.103  38.083 -24.5470  0.00  0.00     0.000 S
ATOM     71   O  Z9K D   4       4.124  38.158 -25.5460  0.00  0.00     0.000 OA
ATOM     72   O  Z9K D   4       1.898  37.596 -25.1350  0.00  0.00     0.000 OA
ENDBRANCH 61 68
BRANCH 64 73
ATOM     73   C  Z9K D   4       5.280  43.794 -22.4570  0.00  0.00     0.000 C
ATOM     74   O  Z9K D   4       6.018  43.855 -21.4310  0.00  0.00     0.000 O
ATOM     75   O  Z9K D   4       4.975  44.882 -23.0040  0.00  0.00     0.000 OA
ENDBRANCH 64 73
BRANCH 60 76
ATOM     76  O4  Z9L D   5       5.167  41.020 -25.5750  0.00  0.00     0.000 O
BRANCH 76 80
ATOM     77  C1  Z9L D   5       6.896  41.644 -29.1240  0.00  0.00     0.000 C
ATOM     78  C2  Z9L D   5       7.338  42.853 -28.1670  0.00  0.00     0.000 C
ATOM     79  C3  Z9L D   5       7.004  42.364 -26.5820  0.00  0.00     0.000 C
ATOM     80  C4  Z9L D   5       5.530  41.654 -26.7750  0.00  0.00     0.000 C
ATOM     81  C5  Z9L D   5       5.001  40.605 -27.8790  0.00  0.00     0.000 C
ATOM     82  O5  Z9L D   5       5.541  41.037 -29.1370  0.00  0.00     0.000 O
ATOM     83   C  Z9L D   5       7.621  39.438 -29.8300  0.00  0.00     0.000 C
ATOM     84   C  Z9L D   5       7.621  39.438 -29.8300  0.00  0.00     0.000 C
BRANCH 78 85
ATOM     85   O  Z9L D   5       8.711  43.036 -28.3080  0.00  0.00     0.000 O
ATOM     86   O  Z9L D   5       9.544  44.550 -29.1580  0.00  0.00     0.000 OA
ATOM     87   S  Z9L D   5       8.143  44.418 -28.8980  0.00  0.00     0.000 S
ATOM     88   O  Z9L D   5       7.854  45.406 -27.8880  0.00  0.00     0.000 OA
ATOM     89   O  Z9L D   5       7.529  44.355 -30.1800  0.00  0.00     0.000 OA
ENDBRANCH 78 85
BRANCH 79 90
ATOM     90   O  Z9L D   5       6.711  43.454 -25.7670  0.00  0.00     0.000 O
ATOM     91   S  Z9L D   5       8.047  42.946 -25.0640  0.00  0.00     0.000 S
ATOM     92   O  Z9L D   5       9.286  42.796 -25.7820  0.00  0.00     0.000 OA
ATOM     93   O  Z9L D   5       7.708  42.063 -23.9760  0.00  0.00     0.000 O
ATOM     94   O  Z9L D   5       8.015  44.278 -24.5520  0.00  0.00     0.000 OA
ENDBRANCH 79 90
BRANCH 81 95
ATOM     95   C  Z9L D   5       3.384  40.166 -27.8110  0.00  0.00     0.000 C
ATOM     96   S  Z9L D   5       1.697  40.006 -28.8570  0.00  0.00     0.000 S
ATOM     97   O  Z9L D   5       2.910  41.009 -28.8260  0.00  0.00     0.000 O
ATOM     98   O  Z9L D   5       0.926  40.251 -27.6660  0.00  0.00     0.000 OA
ATOM     99   O  Z9L D   5       2.000  38.682 -29.2850  0.00  0.00     0.000 OA
ATOM    100   O  Z9L D   5       1.253  40.917 -29.8830  0.00  0.00     0.000 O
ENDBRANCH 81 95
ENDBRANCH 76 80
ENDBRANCH 60 76
ENDBRANCH 59 63
ENDBRANCH 37 59
ENDBRANCH 36 40
ENDBRANCH 23 36
ENDBRANCH 22 26
ENDBRANCH 1 22
TORSDOF 19
ENDMDL
MODEL 10
REMARK VINA RESULT:      -7.5      3.910      8.481
ROOT
ATOM      1  C1  Z9H D   1       4.827  24.217 -56.2300  0.00  0.00     0.000 C
ATOM      2  C2  Z9H D   1       4.672  25.435 -57.1710  0.00  0.00     0.000 C
ATOM      3  C3  Z9H D   1       4.916  24.702 -58.5260  0.00  0.00     0.000 C
ATOM      4  C4  Z9H D   1       6.214  23.795 -58.5840  0.00  0.00     0.000 C
ATOM      5  C5  Z9H D   1       6.597  22.762 -57.4510  0.00  0.00     0.000 C
ATOM      6  O5  Z9H D   1       6.027  23.396 -56.2790  0.00  0.00     0.000 O
ATOM      7   O  Z9H D   1       4.895  25.612 -59.6280  0.00  0.00     0.000 O
ATOM      8   C  Z9H D   1       3.655  25.677 -60.3500  0.00  0.00     0.000 C
ATOM      9   O  Z9H D   1       6.122  23.063 -59.8100  0.00  0.00     0.000 O
ATOM     10   C  Z9H D   1       6.886  23.587 -60.9010  0.00  0.00     0.000 C
ENDROOT
BRANCH 2 11
ATOM     11   O  Z9H D   1       3.289  25.667 -57.1240  0.00  0.00     0.000 O
ATOM     12   O  Z9H D   1       2.499  27.234 -56.4310  0.00  0.00     0.000 OA
ATOM     13   S  Z9H D   1       3.902  27.006 -56.5290  0.00  0.00     0.000 S
ATOM     14   O  Z9H D   1       4.533  27.726 -57.5980  0.00  0.00     0.000 OA
ATOM     15   O  Z9H D   1       4.471  26.796 -55.2180  0.00  0.00     0.000 O
ENDBRANCH 2 11
BRANCH 5 16
ATOM     16   C  Z9H D   1       8.188  22.243 -57.4740  0.00  0.00     0.000 C
ATOM     17   S  Z9H D   1       9.969  22.486 -58.3740  0.00  0.00     0.000 S
ATOM     18   O  Z9H D   1       8.780  23.456 -57.8720  0.00  0.00     0.000 O
ATOM     19   O  Z9H D   1       9.630  21.643 -59.4840  0.00  0.00     0.000 O
ATOM     20   O  Z9H D   1      10.741  22.044 -57.2660  0.00  0.00     0.000 OA
ATOM     21   O  Z9H D   1      10.499  23.748 -58.8010  0.00  0.00     0.000 OA
ENDBRANCH 5 16
BRANCH 1 22
ATOM     22  O4  GU1 D   2       3.789  23.182 -56.3820  0.00  0.00     0.000 O
BRANCH 22 26
ATOM     23  C1  GU1 D   2       1.340  20.539 -54.3850  0.00  0.00     0.000 C
ATOM     24  C2  GU1 D   2       1.570  21.863 -53.6710  0.00  0.00     0.000 C
ATOM     25  C3  GU1 D   2       2.138  22.858 -54.6400  0.00  0.00     0.000 C
ATOM     26  C4  GU1 D   2       3.373  22.300 -55.3320  0.00  0.00     0.000 C
ATOM     27  C5  GU1 D   2       3.064  20.923 -55.9260  0.00  0.00     0.000 C
ATOM     28  O5  GU1 D   2       2.563  20.047 -54.9200  0.00  0.00     0.000 O
ATOM     29   O  GU1 D   2       0.364  22.397 -53.1400  0.00  0.00     0.000 O
ATOM     30   C  GU1 D   2       0.160  22.103 -51.7650  0.00  0.00     0.000 C
ATOM     31   C  GU1 D   2       1.601  25.123 -54.0300  0.00  0.00     0.000 C
ATOM     32   O  GU1 D   2       2.512  24.033 -53.9140  0.00  0.00     0.000 O
BRANCH 27 33
ATOM     33   C  GU1 D   2       4.303  20.291 -56.5150  0.00  0.00     0.000 C
ATOM     34   O  GU1 D   2       4.300  20.002 -57.6940  0.00  0.00     0.000 OA
ATOM     35   O  GU1 D   2       5.284  20.081 -55.8180  0.00  0.00     0.000 O
ENDBRANCH 27 33
BRANCH 23 36
ATOM     36  O4  GU6 D   3       1.034  19.354 -53.6240  0.00  0.00     0.000 O
BRANCH 36 40
ATOM     37  C1  GU6 D   3       0.797  15.276 -53.7230  0.00  0.00     0.000 C
ATOM     38  C2  GU6 D   3       2.201  15.808 -53.4650  0.00  0.00     0.000 C
ATOM     39  C3  GU6 D   3       2.136  17.285 -53.1780  0.00  0.00     0.000 C
ATOM     40  C4  GU6 D   3       0.858  17.968 -53.4060  0.00  0.00     0.000 C
ATOM     41  C5  GU6 D   3       0.173  17.383 -54.6850  0.00  0.00     0.000 C
ATOM     42  O5  GU6 D   3       0.251  15.961 -54.8400  0.00  0.00     0.000 O
BRANCH 38 43
ATOM     43   O  GU6 D   3       2.798  15.130 -52.3770  0.00  0.00     0.000 O
ATOM     44   S  GU6 D   3       4.128  14.463 -52.7030  0.00  0.00     0.000 S
ATOM     45   O  GU6 D   3       3.856  13.168 -53.3510  0.00  0.00     0.000 OA
ATOM     46   O  GU6 D   3       4.873  15.330 -53.6350  0.00  0.00     0.000 O
ATOM     47   O  GU6 D   3       4.884  14.291 -51.4670  0.00  0.00     0.000 OA
ENDBRANCH 38 43
BRANCH 39 48
ATOM     48   O  GU6 D   3       3.190  17.940 -52.4980  0.00  0.00     0.000 O
ATOM     49   S  GU6 D   3       3.303  18.352 -51.0300  0.00  0.00     0.000 S
ATOM     50   O  GU6 D   3       3.090  17.190 -50.1610  0.00  0.00     0.000 OA
ATOM     51   O  GU6 D   3       4.683  18.846 -50.9290  0.00  0.00     0.000 OA
ATOM     52   O  GU6 D   3       2.288  19.391 -50.7450  0.00  0.00     0.000 O
ENDBRANCH 39 48
BRANCH 41 53
ATOM     53   C  GU6 D   3      -0.573  18.104 -55.7740  0.00  0.00     0.000 C
ATOM     54   O  GU6 D   3       0.463  18.145 -56.7210  0.00  0.00     0.000 O
ATOM     55   S  GU6 D   3       0.279  18.900 -58.0440  0.00  0.00     0.000 S
ATOM     56   O  GU6 D   3       0.156  20.336 -57.7030  0.00  0.00     0.000 O
ATOM     57   O  GU6 D   3       1.461  18.665 -58.8860  0.00  0.00     0.000 OA
ATOM     58   O  GU6 D   3      -0.963  18.394 -58.6700  0.00  0.00     0.000 OA
ENDBRANCH 41 53
BRANCH 37 59
ATOM     59  O4  Z9K D   4      -0.246  15.174 -52.7300  0.00  0.00     0.000 O
BRANCH 59 63
ATOM     60  C1  Z9K D   4      -2.184  13.658 -49.6650  0.00  0.00     0.000 C
ATOM     61  C2  Z9K D   4      -1.208  12.499 -50.0080  0.00  0.00     0.000 C
ATOM     62  C3  Z9K D   4      -0.305  13.184 -51.1230  0.00  0.00     0.000 C
ATOM     63  C4  Z9K D   4      -0.999  14.015 -52.2690  0.00  0.00     0.000 C
ATOM     64  C5  Z9K D   4      -2.366  14.627 -51.9260  0.00  0.00     0.000 C
ATOM     65  O5  Z9K D   4      -2.247  14.904 -50.5060  0.00  0.00     0.000 O
ATOM     66   O  Z9K D   4       0.554  12.256 -51.8090  0.00  0.00     0.000 O
ATOM     67   C  Z9K D   4       1.789  12.009 -51.1560  0.00  0.00     0.000 C
BRANCH 61 68
ATOM     68   O  Z9K D   4      -0.382  12.313 -48.8920  0.00  0.00     0.000 O
ATOM     69   O  Z9K D   4      -0.806  10.102 -50.1070  0.00  0.00     0.000 OA
ATOM     70   S  Z9K D   4      -1.161  10.896 -48.9700  0.00  0.00     0.000 S
ATOM     71   O  Z9K D   4      -2.482  11.061 -48.4460  0.00  0.00     0.000 OA
ATOM     72   O  Z9K D   4      -0.247  10.685 -47.8950  0.00  0.00     0.000 OA
ENDBRANCH 61 68
BRANCH 64 73
ATOM     73   C  Z9K D   4      -2.703  15.789 -52.8830  0.00  0.00     0.000 C
ATOM     74   O  Z9K D   4      -2.667  16.992 -52.4920  0.00  0.00     0.000 O
ATOM     75   O  Z9K D   4      -3.018  15.589 -54.0820  0.00  0.00     0.000 OA
ENDBRANCH 64 73
BRANCH 60 76
ATOM     76  O4  Z9L D   5      -3.604  13.597 -49.4450  0.00  0.00     0.000 O
BRANCH 76 80
ATOM     77  C1  Z9L D   5      -5.944  14.818 -46.4450  0.00  0.00     0.000 C
ATOM     78  C2  Z9L D   5      -6.832  14.860 -47.7800  0.00  0.00     0.000 C
ATOM     79  C3  Z9L D   5      -6.017  13.930 -48.9340  0.00  0.00     0.000 C
ATOM     80  C4  Z9L D   5      -4.461  14.409 -48.6850  0.00  0.00     0.000 C
ATOM     81  C5  Z9L D   5      -3.620  14.594 -47.3210  0.00  0.00     0.000 C
ATOM     82  O5  Z9L D   5      -4.512  15.205 -46.3770  0.00  0.00     0.000 O
ATOM     83   C  Z9L D   5      -5.377  13.338 -44.6070  0.00  0.00     0.000 C
ATOM     84   C  Z9L D   5      -5.377  13.338 -44.6070  0.00  0.00     0.000 C
BRANCH 78 85
ATOM     85   O  Z9L D   5      -8.060  14.268 -47.5010  0.00  0.00     0.000 O
ATOM     86   O  Z9L D   5      -9.730  15.212 -47.3300  0.00  0.00     0.000 OA
ATOM     87   S  Z9L D   5      -8.490  15.798 -47.7400  0.00  0.00     0.000 S
ATOM     88   O  Z9L D   5      -8.678  16.139 -49.1280  0.00  0.00     0.000 OA
ATOM     89   O  Z9L D   5      -8.153  16.719 -46.7090  0.00  0.00     0.000 OA
ENDBRANCH 78 85
BRANCH 79 90
ATOM     90   O  Z9L D   5      -6.271  14.387 -50.2250  0.00  0.00     0.000 O
ATOM     91   S  Z9L D   5      -6.734  12.871 -50.3820  0.00  0.00     0.000 S
ATOM     92   O  Z9L D   5      -7.734  12.279 -49.5330  0.00  0.00     0.000 OA
ATOM     93   O  Z9L D   5      -5.638  12.087 -50.8930  0.00  0.00     0.000 O
ATOM     94   O  Z9L D   5      -7.412  13.432 -51.5060  0.00  0.00     0.000 OA
ENDBRANCH 79 90
BRANCH 81 95
ATOM     95   C  Z9L D   5      -2.061  15.197 -47.4540  0.00  0.00     0.000 C
ATOM     96   S  Z9L D   5      -0.961  16.856 -47.5350  0.00  0.00     0.000 S
ATOM     97   O  Z9L D   5      -2.376  16.418 -48.0680  0.00  0.00     0.000 O
ATOM     98   O  Z9L D   5       0.016  16.176 -48.3470  0.00  0.00     0.000 OA
ATOM     99   O  Z9L D   5      -0.827  16.926 -46.1190  0.00  0.00     0.000 OA
ATOM    100   O  Z9L D   5      -1.332  18.081 -48.1990  0.00  0.00     0.000 O
ENDBRANCH 81 95
ENDBRANCH 76 80
ENDBRANCH 60 76
ENDBRANCH 59 63
ENDBRANCH 37 59
ENDBRANCH 36 40
ENDBRANCH 23 36
ENDBRANCH 22 26
ENDBRANCH 1 22
TORSDOF 19
ENDMDL
MODEL 11
REMARK VINA RESULT:      -7.5     14.254     19.873
ROOT
ATOM      1  C1  Z9H D   1      16.858   6.467 -55.8490  0.00  0.00     0.000 C
ATOM      2  C2  Z9H D   1      18.276   7.086 -55.8190  0.00  0.00     0.000 C
ATOM      3  C3  Z9H D   1      17.862   8.589 -55.7930  0.00  0.00     0.000 C
ATOM      4  C4  Z9H D   1      16.814   9.024 -56.8990  0.00  0.00     0.000 C
ATOM      5  C5  Z9H D   1      15.493   8.211 -57.2050  0.00  0.00     0.000 C
ATOM      6  O5  Z9H D   1      15.905   6.860 -56.8760  0.00  0.00     0.000 O
ATOM      7   O  Z9H D   1      19.003   9.449 -55.8240  0.00  0.00     0.000 O
ATOM      8   C  Z9H D   1      19.422   9.962 -54.5490  0.00  0.00     0.000 C
ATOM      9   O  Z9H D   1      16.420  10.357 -56.5580  0.00  0.00     0.000 O
ATOM     10   C  Z9H D   1      17.071  11.400 -57.2910  0.00  0.00     0.000 C
ENDROOT
BRANCH 2 11
ATOM     11   O  Z9H D   1      18.691   6.798 -54.5090  0.00  0.00     0.000 O
ATOM     12   O  Z9H D   1      20.098   5.618 -54.0790  0.00  0.00     0.000 OA
ATOM     13   S  Z9H D   1      19.697   5.955 -55.4030  0.00  0.00     0.000 S
ATOM     14   O  Z9H D   1      20.587   6.866 -56.0640  0.00  0.00     0.000 OA
ATOM     15   O  Z9H D   1      19.040   4.832 -56.0320  0.00  0.00     0.000 O
ENDBRANCH 2 11
BRANCH 5 16
ATOM     16   C  Z9H D   1      14.765   8.567 -58.6700  0.00  0.00     0.000 C
ATOM     17   S  Z9H D   1      13.411   7.933 -60.0130  0.00  0.00     0.000 S
ATOM     18   O  Z9H D   1      13.508   7.995 -58.4030  0.00  0.00     0.000 O
ATOM     19   O  Z9H D   1      14.319   7.012 -60.6360  0.00  0.00     0.000 O
ATOM     20   O  Z9H D   1      13.127   9.223 -60.5370  0.00  0.00     0.000 OA
ATOM     21   O  Z9H D   1      12.163   7.311 -59.6800  0.00  0.00     0.000 OA
ENDBRANCH 5 16
BRANCH 1 22
ATOM     22  O4  GU1 D   2      16.055   6.700 -54.6360  0.00  0.00     0.000 O
BRANCH 22 26
ATOM     23  C1  GU1 D   2      12.952   5.140 -52.4200  0.00  0.00     0.000 C
ATOM     24  C2  GU1 D   2      13.644   4.146 -53.3390  0.00  0.00     0.000 C
ATOM     25  C3  GU1 D   2      14.960   4.714 -53.7860  0.00  0.00     0.000 C
ATOM     26  C4  GU1 D   2      14.778   6.099 -54.3890  0.00  0.00     0.000 C
ATOM     27  C5  GU1 D   2      13.981   6.988 -53.4300  0.00  0.00     0.000 C
ATOM     28  O5  GU1 D   2      12.740   6.374 -53.0950  0.00  0.00     0.000 O
ATOM     29   O  GU1 D   2      13.893   2.905 -52.6900  0.00  0.00     0.000 O
ATOM     30   C  GU1 D   2      12.909   1.913 -52.9490  0.00  0.00     0.000 C
ATOM     31   C  GU1 D   2      16.553   2.992 -54.3240  0.00  0.00     0.000 C
ATOM     32   O  GU1 D   2      15.511   3.849 -54.7840  0.00  0.00     0.000 O
BRANCH 27 33
ATOM     33   C  GU1 D   2      13.681   8.331 -54.0520  0.00  0.00     0.000 C
ATOM     34   O  GU1 D   2      13.127   8.356 -55.1320  0.00  0.00     0.000 OA
ATOM     35   O  GU1 D   2      13.986   9.364 -53.4770  0.00  0.00     0.000 O
ENDBRANCH 27 33
BRANCH 23 36
ATOM     36  O4  GU6 D   3      11.572   4.943 -52.0520  0.00  0.00     0.000 O
BRANCH 36 40
ATOM     37  C1  GU6 D   3       8.604   2.363 -50.9450  0.00  0.00     0.000 C
ATOM     38  C2  GU6 D   3       9.945   2.086 -50.2780  0.00  0.00     0.000 C
ATOM     39  C3  GU6 D   3      10.884   3.235 -50.5350  0.00  0.00     0.000 C
ATOM     40  C4  GU6 D   3      10.467   4.252 -51.5070  0.00  0.00     0.000 C
ATOM     41  C5  GU6 D   3       9.721   3.562 -52.6970  0.00  0.00     0.000 C
ATOM     42  O5  GU6 D   3       8.815   2.512 -52.3410  0.00  0.00     0.000 O
BRANCH 38 43
ATOM     43   O  GU6 D   3       9.779   1.899 -48.8860  0.00  0.00     0.000 O
ATOM     44   S  GU6 D   3      10.306   0.570 -48.3620  0.00  0.00     0.000 S
ATOM     45   O  GU6 D   3       9.292  -0.468 -48.6140  0.00  0.00     0.000 OA
ATOM     46   O  GU6 D   3      11.543   0.234 -49.0900  0.00  0.00     0.000 O
ATOM     47   O  GU6 D   3      10.586   0.704 -46.9360  0.00  0.00     0.000 OA
ENDBRANCH 38 43
BRANCH 39 48
ATOM     48   O  GU6 D   3      12.010   3.452 -49.7060  0.00  0.00     0.000 O
ATOM     49   S  GU6 D   3      12.201   4.431 -48.5480  0.00  0.00     0.000 S
ATOM     50   O  GU6 D   3      11.150   4.237 -47.5430  0.00  0.00     0.000 OA
ATOM     51   O  GU6 D   3      13.520   4.063 -48.0150  0.00  0.00     0.000 OA
ATOM     52   O  GU6 D   3      12.149   5.813 -49.0740  0.00  0.00     0.000 O
ENDBRANCH 39 48
BRANCH 41 53
ATOM     53   C  GU6 D   3       9.810   3.858 -54.1700  0.00  0.00     0.000 C
ATOM     54   O  GU6 D   3       8.433   3.874 -54.4450  0.00  0.00     0.000 O
ATOM     55   S  GU6 D   3       7.929   4.030 -55.8860  0.00  0.00     0.000 S
ATOM     56   O  GU6 D   3       8.346   2.812 -56.6180  0.00  0.00     0.000 O
ATOM     57   O  GU6 D   3       6.464   4.145 -55.8590  0.00  0.00     0.000 OA
ATOM     58   O  GU6 D   3       8.575   5.237 -56.4490  0.00  0.00     0.000 OA
ENDBRANCH 41 53
BRANCH 37 59
ATOM     59  O4  Z9K D   4       7.673   3.389 -50.5400  0.00  0.00     0.000 O
BRANCH 59 63
ATOM     60  C1  Z9K D   4       4.653   4.334 -48.2090  0.00  0.00     0.000 C
ATOM     61  C2  Z9K D   4       4.358   2.835 -48.4910  0.00  0.00     0.000 C
ATOM     62  C3  Z9K D   4       5.673   2.412 -49.2780  0.00  0.00     0.000 C
ATOM     63  C4  Z9K D   4       6.221   3.351 -50.4190  0.00  0.00     0.000 C
ATOM     64  C5  Z9K D   4       5.863   4.840 -50.2980  0.00  0.00     0.000 C
ATOM     65  O5  Z9K D   4       5.809   5.042 -48.8610  0.00  0.00     0.000 O
ATOM     66   O  Z9K D   4       5.579   1.110 -49.8850  0.00  0.00     0.000 O
ATOM     67   C  Z9K D   4       5.916   0.036 -49.0220  0.00  0.00     0.000 C
BRANCH 61 68
ATOM     68   O  Z9K D   4       4.405   2.168 -47.2600  0.00  0.00     0.000 O
ATOM     69   O  Z9K D   4       2.677   1.108 -48.8220  0.00  0.00     0.000 OA
ATOM     70   S  Z9K D   4       2.856   1.968 -47.6910  0.00  0.00     0.000 S
ATOM     71   O  Z9K D   4       2.142   3.182 -47.4430  0.00  0.00     0.000 OA
ATOM     72   O  Z9K D   4       2.940   1.210 -46.4840  0.00  0.00     0.000 OA
ENDBRANCH 61 68
BRANCH 64 73
ATOM     73   C  Z9K D   4       6.827   5.707 -51.1340  0.00  0.00     0.000 C
ATOM     74   O  Z9K D   4       6.745   5.749 -52.3960  0.00  0.00     0.000 O
ATOM     75   O  Z9K D   4       7.722   6.406 -50.5970  0.00  0.00     0.000 OA
ENDBRANCH 64 73
BRANCH 60 76
ATOM     76  O4  Z9L D   5       3.760   5.456 -48.3120  0.00  0.00     0.000 O
BRANCH 76 80
ATOM     77  C1  Z9L D   5       2.701   8.854 -46.4940  0.00  0.00     0.000 C
ATOM     78  C2  Z9L D   5       3.176   9.243 -47.9760  0.00  0.00     0.000 C
ATOM     79  C3  Z9L D   5       3.179   7.811 -48.8760  0.00  0.00     0.000 C
ATOM     80  C4  Z9L D   5       3.843   6.759 -47.7950  0.00  0.00     0.000 C
ATOM     81  C5  Z9L D   5       3.531   6.517 -46.2320  0.00  0.00     0.000 C
ATOM     82  O5  Z9L D   5       3.347   7.816 -45.6500  0.00  0.00     0.000 O
ATOM     83   C  Z9L D   5       0.701   8.266 -45.2500  0.00  0.00     0.000 C
ATOM     84   C  Z9L D   5       0.701   8.266 -45.2500  0.00  0.00     0.000 C
BRANCH 78 85
ATOM     85   O  Z9L D   5       2.238  10.118 -48.5140  0.00  0.00     0.000 O
ATOM     86   O  Z9L D   5       2.570  11.964 -48.9520  0.00  0.00     0.000 OA
ATOM     87   S  Z9L D   5       3.562  11.029 -48.5170  0.00  0.00     0.000 S
ATOM     88   O  Z9L D   5       4.409  10.820 -49.6660  0.00  0.00     0.000 OA
ATOM     89   O  Z9L D   5       4.003  11.510 -47.2530  0.00  0.00     0.000 OA
ENDBRANCH 78 85
BRANCH 79 90
ATOM     90   O  Z9L D   5       4.135   7.849 -49.8870  0.00  0.00     0.000 O
ATOM     91   S  Z9L D   5       2.836   7.552 -50.7590  0.00  0.00     0.000 S
ATOM     92   O  Z9L D   5       1.675   8.401 -50.7250  0.00  0.00     0.000 OA
ATOM     93   O  Z9L D   5       2.709   6.129 -50.9570  0.00  0.00     0.000 O
ATOM     94   O  Z9L D   5       3.691   8.046 -51.7890  0.00  0.00     0.000 OA
ENDBRANCH 79 90
BRANCH 81 95
ATOM     95   C  Z9L D   5       4.489   5.406 -45.4190  0.00  0.00     0.000 C
ATOM     96   S  Z9L D   5       6.065   5.187 -44.2210  0.00  0.00     0.000 S
ATOM     97   O  Z9L D   5       5.680   6.146 -45.4090  0.00  0.00     0.000 O
ATOM     98   O  Z9L D   5       6.336   3.897 -44.8020  0.00  0.00     0.000 OA
ATOM     99   O  Z9L D   5       5.281   5.318 -43.0400  0.00  0.00     0.000 OA
ATOM    100   O  Z9L D   5       7.275   5.971 -44.2690  0.00  0.00     0.000 O
ENDBRANCH 81 95
ENDBRANCH 76 80
ENDBRANCH 60 76
ENDBRANCH 59 63
ENDBRANCH 37 59
ENDBRANCH 36 40
ENDBRANCH 23 36
ENDBRANCH 22 26
ENDBRANCH 1 22
TORSDOF 19
ENDMDL
MODEL 12
REMARK VINA RESULT:      -7.5     29.181     36.608
ROOT
ATOM      1  C1  Z9H D   1       3.082  44.306 -22.2090  0.00  0.00     0.000 C
ATOM      2  C2  Z9H D   1       3.227  44.801 -20.7510  0.00  0.00     0.000 C
ATOM      3  C3  Z9H D   1       3.059  43.427 -20.0320  0.00  0.00     0.000 C
ATOM      4  C4  Z9H D   1       1.797  42.578 -20.4770  0.00  0.00     0.000 C
ATOM      5  C5  Z9H D   1       1.411  42.332 -21.9900  0.00  0.00     0.000 C
ATOM      6  O5  Z9H D   1       1.914  43.539 -22.6150  0.00  0.00     0.000 O
ATOM      7   O  Z9H D   1       3.086  43.570 -18.6110  0.00  0.00     0.000 O
ATOM      8   C  Z9H D   1       4.349  43.283 -17.9870  0.00  0.00     0.000 C
ATOM      9   O  Z9H D   1       1.959  41.293 -19.8680  0.00  0.00     0.000 O
ATOM     10   C  Z9H D   1       1.216  41.083 -18.6630  0.00  0.00     0.000 C
ENDROOT
BRANCH 2 11
ATOM     11   O  Z9H D   1       4.598  45.089 -20.6740  0.00  0.00     0.000 O
ATOM     12   O  Z9H D   1       5.306  46.818 -20.4190  0.00  0.00     0.000 OA
ATOM     13   S  Z9H D   1       3.917  46.506 -20.4500  0.00  0.00     0.000 S
ATOM     14   O  Z9H D   1       3.293  46.507 -19.1580  0.00  0.00     0.000 OA
ATOM     15   O  Z9H D   1       3.315  47.007 -21.6650  0.00  0.00     0.000 O
ENDBRANCH 2 11
BRANCH 5 16
ATOM     16   C  Z9H D   1      -0.159  41.810 -22.2440  0.00  0.00     0.000 C
ATOM     17   S  Z9H D   1      -1.280  40.350 -23.0520  0.00  0.00     0.000 S
ATOM     18   O  Z9H D   1       0.090  40.425 -22.2020  0.00  0.00     0.000 O
ATOM     19   O  Z9H D   1      -1.196  40.889 -24.3790  0.00  0.00     0.000 O
ATOM     20   O  Z9H D   1      -2.398  40.551 -22.1990  0.00  0.00     0.000 OA
ATOM     21   O  Z9H D   1      -0.948  38.956 -23.0180  0.00  0.00     0.000 OA
ENDBRANCH 5 16
BRANCH 1 22
ATOM     22  O4  GU1 D   2       4.161  43.415 -22.6710  0.00  0.00     0.000 O
BRANCH 22 26
ATOM     23  C1  GU1 D   2       6.350  42.429 -26.0180  0.00  0.00     0.000 C
ATOM     24  C2  GU1 D   2       5.641  43.773 -26.0910  0.00  0.00     0.000 C
ATOM     25  C3  GU1 D   2       5.213  44.184 -24.7120  0.00  0.00     0.000 C
ATOM     26  C4  GU1 D   2       4.399  43.085 -24.0440  0.00  0.00     0.000 C
ATOM     27  C5  GU1 D   2       5.155  41.755 -24.1170  0.00  0.00     0.000 C
ATOM     28  O5  GU1 D   2       5.485  41.443 -25.4680  0.00  0.00     0.000 O
ATOM     29   O  GU1 D   2       6.484  44.791 -26.6170  0.00  0.00     0.000 O
ATOM     30   C  GU1 D   2       6.303  45.026 -28.0060  0.00  0.00     0.000 C
ATOM     31   C  GU1 D   2       5.054  46.576 -24.4890  0.00  0.00     0.000 C
ATOM     32   O  GU1 D   2       4.397  45.355 -24.8220  0.00  0.00     0.000 O
BRANCH 27 33
ATOM     33   C  GU1 D   2       4.321  40.622 -23.5700  0.00  0.00     0.000 C
ATOM     34   O  GU1 D   2       4.611  40.162 -22.4850  0.00  0.00     0.000 OA
ATOM     35   O  GU1 D   2       3.375  40.184 -24.2060  0.00  0.00     0.000 O
ENDBRANCH 27 33
BRANCH 23 36
ATOM     36  O4  GU6 D   3       6.640  41.701 -27.2280  0.00  0.00     0.000 O
BRANCH 36 40
ATOM     37  C1  GU6 D   3       8.176  40.803 -30.9060  0.00  0.00     0.000 C
ATOM     38  C2  GU6 D   3       7.318  39.696 -30.3070  0.00  0.00     0.000 C
ATOM     39  C3  GU6 D   3       6.588  40.221 -29.0990  0.00  0.00     0.000 C
ATOM     40  C4  GU6 D   3       6.969  41.544 -28.5930  0.00  0.00     0.000 C
ATOM     41  C5  GU6 D   3       8.518  41.725 -28.7180  0.00  0.00     0.000 C
ATOM     42  O5  GU6 D   3       9.109  41.234 -29.9270  0.00  0.00     0.000 O
BRANCH 38 43
ATOM     43   O  GU6 D   3       6.391  39.213 -31.2600  0.00  0.00     0.000 O
ATOM     44   S  GU6 D   3       6.919  38.083 -32.1350  0.00  0.00     0.000 S
ATOM     45   O  GU6 D   3       7.721  38.669 -33.2230  0.00  0.00     0.000 OA
ATOM     46   O  GU6 D   3       7.774  37.210 -31.3110  0.00  0.00     0.000 O
ATOM     47   O  GU6 D   3       5.786  37.325 -32.6580  0.00  0.00     0.000 OA
ENDBRANCH 38 43
BRANCH 39 48
ATOM     48   O  GU6 D   3       5.427  39.573 -28.6130  0.00  0.00     0.000 O
ATOM     49   S  GU6 D   3       3.953  39.905 -28.8380  0.00  0.00     0.000 S
ATOM     50   O  GU6 D   3       3.660  39.960 -30.2750  0.00  0.00     0.000 OA
ATOM     51   O  GU6 D   3       3.257  38.781 -28.1970  0.00  0.00     0.000 OA
ATOM     52   O  GU6 D   3       3.654  41.212 -28.2100  0.00  0.00     0.000 O
ENDBRANCH 39 48
BRANCH 41 53
ATOM     53   C  GU6 D   3       9.479  42.359 -27.7490  0.00  0.00     0.000 C
ATOM     54   O  GU6 D   3       9.368  43.681 -28.2080  0.00  0.00     0.000 O
ATOM     55   S  GU6 D   3      10.256  44.786 -27.6200  0.00  0.00     0.000 S
ATOM     56   O  GU6 D   3      11.648  44.470 -28.0140  0.00  0.00     0.000 O
ATOM     57   O  GU6 D   3       9.835  46.076 -28.1870  0.00  0.00     0.000 OA
ATOM     58   O  GU6 D   3      10.096  44.742 -26.1490  0.00  0.00     0.000 OA
ENDBRANCH 41 53
BRANCH 37 59
ATOM     59  O4  Z9K D   4       7.665  41.984 -31.5610  0.00  0.00     0.000 O
BRANCH 59 63
ATOM     60  C1  Z9K D   4       8.497  41.548 -35.3770  0.00  0.00     0.000 C
ATOM     61  C2  Z9K D   4       9.807  42.200 -34.8560  0.00  0.00     0.000 C
ATOM     62  C3  Z9K D   4       9.539  42.205 -33.2890  0.00  0.00     0.000 C
ATOM     63  C4  Z9K D   4       8.136  42.681 -32.7510  0.00  0.00     0.000 C
ATOM     64  C5  Z9K D   4       6.953  42.517 -33.7170  0.00  0.00     0.000 C
ATOM     65  O5  Z9K D   4       7.315  41.332 -34.4730  0.00  0.00     0.000 O
ATOM     66   O  Z9K D   4      10.500  42.980 -32.5490  0.00  0.00     0.000 O
ATOM     67   C  Z9K D   4      11.682  42.275 -32.2070  0.00  0.00     0.000 C
BRANCH 61 68
ATOM     68   O  Z9K D   4      10.841  41.280 -35.0760  0.00  0.00     0.000 O
ATOM     69   O  Z9K D   4      11.688  43.687 -35.2710  0.00  0.00     0.000 OA
ATOM     70   S  Z9K D   4      11.296  42.523 -36.0090  0.00  0.00     0.000 S
ATOM     71   O  Z9K D   4      10.515  42.517 -37.2080  0.00  0.00     0.000 OA
ATOM     72   O  Z9K D   4      12.390  41.617 -36.1500  0.00  0.00     0.000 OA
ENDBRANCH 61 68
BRANCH 64 73
ATOM     73   C  Z9K D   4       5.613  42.529 -32.9510  0.00  0.00     0.000 C
ATOM     74   O  Z9K D   4       4.857  41.514 -32.9380  0.00  0.00     0.000 O
ATOM     75   O  Z9K D   4       5.226  43.536 -32.3100  0.00  0.00     0.000 OA
ENDBRANCH 64 73
BRANCH 60 76
ATOM     76  O4  Z9L D   5       7.702  41.924 -36.5150  0.00  0.00     0.000 O
BRANCH 76 80
ATOM     77  C1  Z9L D   5       5.725  40.521 -39.6920  0.00  0.00     0.000 C
ATOM     78  C2  Z9L D   5       4.640  41.198 -38.7250  0.00  0.00     0.000 C
ATOM     79  C3  Z9L D   5       5.497  42.175 -37.6420  0.00  0.00     0.000 C
ATOM     80  C4  Z9L D   5       6.773  41.198 -37.2780  0.00  0.00     0.000 C
ATOM     81  C5  Z9L D   5       7.736  40.323 -38.2300  0.00  0.00     0.000 C
ATOM     82  O5  Z9L D   5       6.888  39.725 -39.2220  0.00  0.00     0.000 O
ATOM     83   C  Z9L D   5       7.165  41.053 -41.5730  0.00  0.00     0.000 C
ATOM     84   C  Z9L D   5       7.165  41.053 -41.5730  0.00  0.00     0.000 C
BRANCH 78 85
ATOM     85   O  Z9L D   5       3.809  41.999 -39.5030  0.00  0.00     0.000 O
ATOM     86   O  Z9L D   5       1.967  41.614 -39.9130  0.00  0.00     0.000 OA
ATOM     87   S  Z9L D   5       2.786  40.860 -39.0140  0.00  0.00     0.000 S
ATOM     88   O  Z9L D   5       2.228  41.103 -37.7060  0.00  0.00     0.000 OA
ATOM     89   O  Z9L D   5       2.927  39.581 -39.6180  0.00  0.00     0.000 OA
ENDBRANCH 78 85
BRANCH 79 90
ATOM     90   O  Z9L D   5       4.836  42.278 -36.4210  0.00  0.00     0.000 O
ATOM     91   S  Z9L D   5       4.896  43.818 -36.8230  0.00  0.00     0.000 S
ATOM     92   O  Z9L D   5       4.360  44.311 -38.0650  0.00  0.00     0.000 OA
ATOM     93   O  Z9L D   5       6.060  44.423 -36.2260  0.00  0.00     0.000 O
ATOM     94   O  Z9L D   5       3.847  43.877 -35.8570  0.00  0.00     0.000 OA
ENDBRANCH 79 90
BRANCH 81 95
ATOM     95   C  Z9L D   5       8.890  39.363 -37.4830  0.00  0.00     0.000 C
ATOM     96   S  Z9L D   5      10.350  38.042 -37.7850  0.00  0.00     0.000 S
ATOM     97   O  Z9L D   5       8.954  38.347 -38.4480  0.00  0.00     0.000 O
ATOM     98   O  Z9L D   5      10.077  37.438 -36.5050  0.00  0.00     0.000 OA
ATOM     99   O  Z9L D   5      11.340  39.055 -37.9300  0.00  0.00     0.000 OA
ATOM    100   O  Z9L D   5      10.352  37.004 -38.7870  0.00  0.00     0.000 O
ENDBRANCH 81 95
ENDBRANCH 76 80
ENDBRANCH 60 76
ENDBRANCH 59 63
ENDBRANCH 37 59
ENDBRANCH 36 40
ENDBRANCH 23 36
ENDBRANCH 22 26
ENDBRANCH 1 22
TORSDOF 19
ENDMDL
MODEL 13
REMARK VINA RESULT:      -7.5     32.160     40.138
ROOT
ATOM      1  C1  Z9H D   1       6.454  10.523 -17.2930  0.00  0.00     0.000 C
ATOM      2  C2  Z9H D   1       6.991   9.268 -18.0220  0.00  0.00     0.000 C
ATOM      3  C3  Z9H D   1       6.504   8.193 -17.0020  0.00  0.00     0.000 C
ATOM      4  C4  Z9H D   1       6.882   8.472 -15.4890  0.00  0.00     0.000 C
ATOM      5  C5  Z9H D   1       6.664   9.872 -14.7880  0.00  0.00     0.000 C
ATOM      6  O5  Z9H D   1       6.816  10.781 -15.9080  0.00  0.00     0.000 O
ATOM      7   O  Z9H D   1       6.919   6.880 -17.3840  0.00  0.00     0.000 O
ATOM      8   C  Z9H D   1       5.927   6.095 -18.0670  0.00  0.00     0.000 C
ATOM      9   O  Z9H D   1       6.164   7.500 -14.7230  0.00  0.00     0.000 O
ATOM     10   C  Z9H D   1       6.918   6.354 -14.3170  0.00  0.00     0.000 C
ENDROOT
BRANCH 2 11
ATOM     11   O  Z9H D   1       6.111   9.164 -19.1110  0.00  0.00     0.000 O
ATOM     12   O  Z9H D   1       6.615   9.424 -20.9100  0.00  0.00     0.000 OA
ATOM     13   S  Z9H D   1       7.507   9.479 -19.8010  0.00  0.00     0.000 S
ATOM     14   O  Z9H D   1       8.344   8.321 -19.6720  0.00  0.00     0.000 OA
ATOM     15   O  Z9H D   1       7.927  10.840 -19.5590  0.00  0.00     0.000 O
ENDBRANCH 2 11
BRANCH 5 16
ATOM     16   C  Z9H D   1       7.518  10.093 -13.3650  0.00  0.00     0.000 C
ATOM     17   S  Z9H D   1       8.542  11.431 -12.2710  0.00  0.00     0.000 S
ATOM     18   O  Z9H D   1       7.191  11.445 -13.1530  0.00  0.00     0.000 O
ATOM     19   O  Z9H D   1       9.752  11.264 -13.0240  0.00  0.00     0.000 O
ATOM     20   O  Z9H D   1       8.306  10.794 -11.0230  0.00  0.00     0.000 OA
ATOM     21   O  Z9H D   1       8.185  12.813 -12.1300  0.00  0.00     0.000 OA
ENDBRANCH 5 16
BRANCH 1 22
ATOM     22  O4  GU1 D   2       4.986  10.608 -17.2060  0.00  0.00     0.000 O
BRANCH 22 26
ATOM     23  C1  GU1 D   2       1.786  13.198 -17.3560  0.00  0.00     0.000 C
ATOM     24  C2  GU1 D   2       2.999  13.632 -18.1640  0.00  0.00     0.000 C
ATOM     25  C3  GU1 D   2       3.922  12.462 -18.3430  0.00  0.00     0.000 C
ATOM     26  C4  GU1 D   2       4.262  11.827 -17.0030  0.00  0.00     0.000 C
ATOM     27  C5  GU1 D   2       2.977  11.524 -16.2260  0.00  0.00     0.000 C
ATOM     28  O5  GU1 D   2       2.190  12.704 -16.0840  0.00  0.00     0.000 O
ATOM     29   O  GU1 D   2       2.635  14.113 -19.4530  0.00  0.00     0.000 O
ATOM     30   C  GU1 D   2       2.527  15.527 -19.5300  0.00  0.00     0.000 C
ATOM     31   C  GU1 D   2       5.251  12.655 -20.3410  0.00  0.00     0.000 C
ATOM     32   O  GU1 D   2       5.133  12.929 -18.9470  0.00  0.00     0.000 O
BRANCH 27 33
ATOM     33   C  GU1 D   2       3.285  11.004 -14.8420  0.00  0.00     0.000 C
ATOM     34   O  GU1 D   2       3.748  11.774 -14.0260  0.00  0.00     0.000 OA
ATOM     35   O  GU1 D   2       3.067   9.838 -14.5540  0.00  0.00     0.000 O
ENDBRANCH 27 33
BRANCH 23 36
ATOM     36  O4  GU6 D   3       0.873  14.186 -16.8380  0.00  0.00     0.000 O
BRANCH 36 40
ATOM     37  C1  GU6 D   3      -2.399  16.609 -16.5020  0.00  0.00     0.000 C
ATOM     38  C2  GU6 D   3      -1.384  16.782 -15.3790  0.00  0.00     0.000 C
ATOM     39  C3  GU6 D   3      -0.111  16.059 -15.7340  0.00  0.00     0.000 C
ATOM     40  C4  GU6 D   3      -0.133  15.176 -16.9060  0.00  0.00     0.000 C
ATOM     41  C5  GU6 D   3      -1.508  14.433 -16.9760  0.00  0.00     0.000 C
ATOM     42  O5  GU6 D   3      -2.661  15.224 -16.6660  0.00  0.00     0.000 O
BRANCH 38 43
ATOM     43   O  GU6 D   3      -1.115  18.153 -15.1580  0.00  0.00     0.000 O
ATOM     44   S  GU6 D   3      -2.042  18.822 -14.1530  0.00  0.00     0.000 S
ATOM     45   O  GU6 D   3      -3.293  19.186 -14.8390  0.00  0.00     0.000 OA
ATOM     46   O  GU6 D   3      -2.337  17.863 -13.0730  0.00  0.00     0.000 O
ATOM     47   O  GU6 D   3      -1.373  19.999 -13.6070  0.00  0.00     0.000 OA
ENDBRANCH 38 43
BRANCH 39 48
ATOM     48   O  GU6 D   3       1.113  16.393 -15.1090  0.00  0.00     0.000 O
ATOM     49   S  GU6 D   3       1.617  16.069 -13.7030  0.00  0.00     0.000 S
ATOM     50   O  GU6 D   3       1.573  14.621 -13.4710  0.00  0.00     0.000 OA
ATOM     51   O  GU6 D   3       3.000  16.562 -13.7230  0.00  0.00     0.000 OA
ATOM     52   O  GU6 D   3       0.763  16.766 -12.7150  0.00  0.00     0.000 O
ENDBRANCH 39 48
BRANCH 41 53
ATOM     53   C  GU6 D   3      -1.793  13.001 -17.3390  0.00  0.00     0.000 C
ATOM     54   O  GU6 D   3      -2.070  13.201 -18.7010  0.00  0.00     0.000 O
ATOM     55   S  GU6 D   3      -2.550  12.037 -19.5770  0.00  0.00     0.000 S
ATOM     56   O  GU6 D   3      -3.889  11.648 -19.0750  0.00  0.00     0.000 O
ATOM     57   O  GU6 D   3      -2.633  12.501 -20.9700  0.00  0.00     0.000 OA
ATOM     58   O  GU6 D   3      -1.578  10.933 -19.4120  0.00  0.00     0.000 OA
ENDBRANCH 41 53
BRANCH 37 59
ATOM     59  O4  Z9K D   4      -2.282  17.183 -17.8210  0.00  0.00     0.000 O
BRANCH 59 63
ATOM     60  C1  Z9K D   4      -4.293  19.886 -19.8450  0.00  0.00     0.000 C
ATOM     61  C2  Z9K D   4      -5.443  18.976 -19.3330  0.00  0.00     0.000 C
ATOM     62  C3  Z9K D   4      -4.645  17.997 -18.3670  0.00  0.00     0.000 C
ATOM     63  C4  Z9K D   4      -3.286  17.371 -18.8610  0.00  0.00     0.000 C
ATOM     64  C5  Z9K D   4      -2.517  18.177 -19.9180  0.00  0.00     0.000 C
ATOM     65  O5  Z9K D   4      -2.850  19.550 -19.5830  0.00  0.00     0.000 O
ATOM     66   O  Z9K D   4      -5.428  16.875 -17.9210  0.00  0.00     0.000 O
ATOM     67   C  Z9K D   4      -6.224  17.133 -16.7760  0.00  0.00     0.000 C
BRANCH 61 68
ATOM     68   O  Z9K D   4      -6.256  19.766 -18.5080  0.00  0.00     0.000 O
ATOM     69   O  Z9K D   4      -7.626  17.973 -19.7150  0.00  0.00     0.000 OA
ATOM     70   S  Z9K D   4      -7.278  19.362 -19.6980  0.00  0.00     0.000 S
ATOM     71   O  Z9K D   4      -6.998  20.168 -20.8460  0.00  0.00     0.000 OA
ATOM     72   O  Z9K D   4      -8.120  20.087 -18.8020  0.00  0.00     0.000 OA
ENDBRANCH 61 68
BRANCH 64 73
ATOM     73   C  Z9K D   4      -1.031  17.762 -19.9520  0.00  0.00     0.000 C
ATOM     74   O  Z9K D   4      -0.129  18.515 -19.4820  0.00  0.00     0.000 O
ATOM     75   O  Z9K D   4      -0.661  16.665 -20.4380  0.00  0.00     0.000 OA
ENDBRANCH 64 73
BRANCH 60 76
ATOM     76  O4  Z9L D   5      -4.057  20.362 -21.1810  0.00  0.00     0.000 O
BRANCH 76 80
ATOM     77  C1  Z9L D   5      -3.188  23.586 -23.3780  0.00  0.00     0.000 C
ATOM     78  C2  Z9L D   5      -1.947  22.579 -23.5100  0.00  0.00     0.000 C
ATOM     79  C3  Z9L D   5      -2.491  21.066 -22.9830  0.00  0.00     0.000 C
ATOM     80  C4  Z9L D   5      -3.370  21.491 -21.6560  0.00  0.00     0.000 C
ATOM     81  C5  Z9L D   5      -4.462  22.659 -21.4450  0.00  0.00     0.000 C
ATOM     82  O5  Z9L D   5      -3.953  23.815 -22.1260  0.00  0.00     0.000 O
ATOM     83   C  Z9L D   5      -5.284  24.146 -24.4680  0.00  0.00     0.000 C
ATOM     84   C  Z9L D   5      -5.284  24.146 -24.4680  0.00  0.00     0.000 C
BRANCH 78 85
ATOM     85   O  Z9L D   5      -1.600  22.496 -24.8550  0.00  0.00     0.000 O
ATOM     86   O  Z9L D   5       0.052  23.135 -25.6130  0.00  0.00     0.000 OA
ATOM     87   S  Z9L D   5      -0.256  23.104 -24.2160  0.00  0.00     0.000 S
ATOM     88   O  Z9L D   5       0.625  22.108 -23.6600  0.00  0.00     0.000 OA
ATOM     89   O  Z9L D   5      -0.307  24.467 -23.8140  0.00  0.00     0.000 OA
ENDBRANCH 78 85
BRANCH 79 90
ATOM     90   O  Z9L D   5      -1.454  20.319 -22.4330  0.00  0.00     0.000 O
ATOM     91   S  Z9L D   5      -1.903  19.333 -23.6000  0.00  0.00     0.000 S
ATOM     92   O  Z9L D   5      -1.948  19.741 -24.9790  0.00  0.00     0.000 OA
ATOM     93   O  Z9L D   5      -2.847  18.375 -23.0790  0.00  0.00     0.000 O
ATOM     94   O  Z9L D   5      -0.597  18.812 -23.3550  0.00  0.00     0.000 OA
ENDBRANCH 79 90
BRANCH 81 95
ATOM     95   C  Z9L D   5      -5.092  22.852 -19.9020  0.00  0.00     0.000 C
ATOM     96   S  Z9L D   5      -4.967  23.902 -18.2150  0.00  0.00     0.000 S
ATOM     97   O  Z9L D   5      -3.943  23.370 -19.2860  0.00  0.00     0.000 O
ATOM     98   O  Z9L D   5      -5.412  22.758 -17.4610  0.00  0.00     0.000 OA
ATOM     99   O  Z9L D   5      -5.885  24.890 -18.6730  0.00  0.00     0.000 OA
ATOM    100   O  Z9L D   5      -3.750  24.396 -17.6180  0.00  0.00     0.000 O
ENDBRANCH 81 95
ENDBRANCH 76 80
ENDBRANCH 60 76
ENDBRANCH 59 63
ENDBRANCH 37 59
ENDBRANCH 36 40
ENDBRANCH 23 36
ENDBRANCH 22 26
ENDBRANCH 1 22
TORSDOF 19
ENDMDL
MODEL 14
REMARK VINA RESULT:      -7.4      4.082      8.592
ROOT
ATOM      1  C1  Z9H D   1       5.301  24.348 -56.3490  0.00  0.00     0.000 C
ATOM      2  C2  Z9H D   1       4.935  25.457 -57.3640  0.00  0.00     0.000 C
ATOM      3  C3  Z9H D   1       5.060  24.613 -58.6700  0.00  0.00     0.000 C
ATOM      4  C4  Z9H D   1       6.406  23.790 -58.8210  0.00  0.00     0.000 C
ATOM      5  C5  Z9H D   1       7.008  22.898 -57.6630  0.00  0.00     0.000 C
ATOM      6  O5  Z9H D   1       6.545  23.606 -56.4850  0.00  0.00     0.000 O
ATOM      7   O  Z9H D   1       4.830  25.408 -59.8340  0.00  0.00     0.000 O
ATOM      8   C  Z9H D   1       3.506  25.321 -60.3880  0.00  0.00     0.000 C
ATOM      9   O  Z9H D   1       6.215  22.937 -59.9550  0.00  0.00     0.000 O
ATOM     10   C  Z9H D   1       6.792  23.401 -61.1790  0.00  0.00     0.000 C
ENDROOT
BRANCH 2 11
ATOM     11   O  Z9H D   1       3.555  25.602 -57.1530  0.00  0.00     0.000 O
ATOM     12   O  Z9H D   1       2.741  27.177 -56.5100  0.00  0.00     0.000 OA
ATOM     13   S  Z9H D   1       4.133  27.032 -56.7740  0.00  0.00     0.000 S
ATOM     14   O  Z9H D   1       4.565  27.678 -57.9800  0.00  0.00     0.000 OA
ATOM     15   O  Z9H D   1       4.880  26.995 -55.5370  0.00  0.00     0.000 O
ENDBRANCH 2 11
BRANCH 5 16
ATOM     16   C  Z9H D   1       8.618  22.484 -57.8520  0.00  0.00     0.000 C
ATOM     17   S  Z9H D   1      10.239  22.733 -59.0140  0.00  0.00     0.000 S
ATOM     18   O  Z9H D   1       9.054  23.677 -58.4580  0.00  0.00     0.000 O
ATOM     19   O  Z9H D   1       9.825  21.744 -59.9680  0.00  0.00     0.000 O
ATOM     20   O  Z9H D   1      11.184  22.475 -57.9840  0.00  0.00     0.000 OA
ATOM     21   O  Z9H D   1      10.607  23.966 -59.6460  0.00  0.00     0.000 OA
ENDBRANCH 5 16
BRANCH 1 22
ATOM     22  O4  GU1 D   2       4.335  23.238 -56.2690  0.00  0.00     0.000 O
BRANCH 22 26
ATOM     23  C1  GU1 D   2       2.350  20.684 -53.7180  0.00  0.00     0.000 C
ATOM     24  C2  GU1 D   2       2.603  22.077 -53.1600  0.00  0.00     0.000 C
ATOM     25  C3  GU1 D   2       2.969  23.003 -54.2830  0.00  0.00     0.000 C
ATOM     26  C4  GU1 D   2       4.123  22.439 -55.0990  0.00  0.00     0.000 C
ATOM     27  C5  GU1 D   2       3.812  21.001 -55.5230  0.00  0.00     0.000 C
ATOM     28  O5  GU1 D   2       3.510  20.200 -54.3840  0.00  0.00     0.000 O
ATOM     29   O  GU1 D   2       1.455  22.604 -52.5050  0.00  0.00     0.000 O
ATOM     30   C  GU1 D   2       1.466  22.428 -51.0960  0.00  0.00     0.000 C
ATOM     31   C  GU1 D   2       2.396  25.289 -53.7940  0.00  0.00     0.000 C
ATOM     32   O  GU1 D   2       3.375  24.255 -53.7210  0.00  0.00     0.000 O
BRANCH 27 33
ATOM     33   C  GU1 D   2       4.989  20.373 -56.2310  0.00  0.00     0.000 C
ATOM     34   O  GU1 D   2       4.864  20.068 -57.3990  0.00  0.00     0.000 OA
ATOM     35   O  GU1 D   2       6.040  20.183 -55.6400  0.00  0.00     0.000 O
ENDBRANCH 27 33
BRANCH 23 36
ATOM     36  O4  GU6 D   3       2.222  19.561 -52.8240  0.00  0.00     0.000 O
BRANCH 36 40
ATOM     37  C1  GU6 D   3       1.334  15.613 -52.2650  0.00  0.00     0.000 C
ATOM     38  C2  GU6 D   3       2.742  15.998 -51.8280  0.00  0.00     0.000 C
ATOM     39  C3  GU6 D   3       2.875  17.498 -51.8180  0.00  0.00     0.000 C
ATOM     40  C4  GU6 D   3       1.786  18.282 -52.4100  0.00  0.00     0.000 C
ATOM     41  C5  GU6 D   3       1.242  17.548 -53.6800  0.00  0.00     0.000 C
ATOM     42  O5  GU6 D   3       1.109  16.126 -53.5690  0.00  0.00     0.000 O
BRANCH 38 43
ATOM     43   O  GU6 D   3       3.023  15.479 -50.5420  0.00  0.00     0.000 O
ATOM     44   S  GU6 D   3       3.865  14.210 -50.5460  0.00  0.00     0.000 S
ATOM     45   O  GU6 D   3       2.981  13.062 -50.8080  0.00  0.00     0.000 OA
ATOM     46   O  GU6 D   3       4.867  14.313 -51.6230  0.00  0.00     0.000 O
ATOM     47   O  GU6 D   3       4.532  14.084 -49.2540  0.00  0.00     0.000 OA
ENDBRANCH 38 43
BRANCH 39 48
ATOM     48   O  GU6 D   3       3.890  18.132 -51.0640  0.00  0.00     0.000 O
ATOM     49   S  GU6 D   3       3.837  18.737 -49.6610  0.00  0.00     0.000 S
ATOM     50   O  GU6 D   3       3.358  17.738 -48.6980  0.00  0.00     0.000 OA
ATOM     51   O  GU6 D   3       5.237  19.097 -49.4010  0.00  0.00     0.000 OA
ATOM     52   O  GU6 D   3       2.927  19.904 -49.6760  0.00  0.00     0.000 O
ENDBRANCH 39 48
BRANCH 41 53
ATOM     53   C  GU6 D   3       0.823  18.128 -55.0040  0.00  0.00     0.000 C
ATOM     54   O  GU6 D   3      -0.373  17.409 -55.1570  0.00  0.00     0.000 O
ATOM     55   S  GU6 D   3      -1.196  17.532 -56.4460  0.00  0.00     0.000 S
ATOM     56   O  GU6 D   3      -0.377  16.947 -57.5330  0.00  0.00     0.000 O
ATOM     57   O  GU6 D   3      -2.448  16.781 -56.2770  0.00  0.00     0.000 OA
ATOM     58   O  GU6 D   3      -1.435  18.974 -56.6780  0.00  0.00     0.000 OA
ENDBRANCH 41 53
BRANCH 37 59
ATOM     59  O4  Z9K D   4       0.135  15.848 -51.4980  0.00  0.00     0.000 O
BRANCH 59 63
ATOM     60  C1  Z9K D   4      -1.598  12.434 -50.6100  0.00  0.00     0.000 C
ATOM     61  C2  Z9K D   4      -2.069  12.638 -52.0770  0.00  0.00     0.000 C
ATOM     62  C3  Z9K D   4      -1.221  13.918 -52.4900  0.00  0.00     0.000 C
ATOM     63  C4  Z9K D   4      -1.138  15.138 -51.4950  0.00  0.00     0.000 C
ATOM     64  C5  Z9K D   4      -1.328  14.809 -50.0070  0.00  0.00     0.000 C
ATOM     65  O5  Z9K D   4      -0.774  13.472 -49.8990  0.00  0.00     0.000 O
ATOM     66   O  Z9K D   4      -1.631  14.491 -53.7450  0.00  0.00     0.000 O
ATOM     67   C  Z9K D   4      -1.032  13.896 -54.8840  0.00  0.00     0.000 C
BRANCH 61 68
ATOM     68   O  Z9K D   4      -1.558  11.569 -52.8250  0.00  0.00     0.000 O
ATOM     69   O  Z9K D   4      -3.808  12.359 -53.7550  0.00  0.00     0.000 OA
ATOM     70   S  Z9K D   4      -3.156  11.350 -52.9750  0.00  0.00     0.000 S
ATOM     71   O  Z9K D   4      -3.661  10.767 -51.7700  0.00  0.00     0.000 OA
ATOM     72   O  Z9K D   4      -2.625  10.323 -53.8130  0.00  0.00     0.000 OA
ENDBRANCH 61 68
BRANCH 64 73
ATOM     73   C  Z9K D   4      -0.745  15.929 -49.1190  0.00  0.00     0.000 C
ATOM     74   O  Z9K D   4      -1.382  17.002 -48.9140  0.00  0.00     0.000 O
ATOM     75   O  Z9K D   4       0.375  15.816 -48.5630  0.00  0.00     0.000 OA
ENDBRANCH 64 73
BRANCH 60 76
ATOM     76  O4  Z9L D   5      -2.388  12.105 -49.4550  0.00  0.00     0.000 O
BRANCH 76 80
ATOM     77  C1  Z9L D   5      -2.679   9.068 -46.8730  0.00  0.00     0.000 C
ATOM     78  C2  Z9L D   5      -2.822  10.421 -46.0240  0.00  0.00     0.000 C
ATOM     79  C3  Z9L D   5      -3.159  11.655 -47.1310  0.00  0.00     0.000 C
ATOM     80  C4  Z9L D   5      -2.119  11.278 -48.3510  0.00  0.00     0.000 C
ATOM     81  C5  Z9L D   5      -1.796   9.868 -49.0640  0.00  0.00     0.000 C
ATOM     82  O5  Z9L D   5      -1.748   8.888 -48.0160  0.00  0.00     0.000 O
ATOM     83   C  Z9L D   5      -4.032   7.423 -48.0380  0.00  0.00     0.000 C
ATOM     84   C  Z9L D   5      -4.032   7.423 -48.0380  0.00  0.00     0.000 C
BRANCH 78 85
ATOM     85   O  Z9L D   5      -3.902  10.276 -45.1590  0.00  0.00     0.000 O
ATOM     86   O  Z9L D   5      -3.769  10.055 -43.2500  0.00  0.00     0.000 OA
ATOM     87   S  Z9L D   5      -2.671  10.329 -44.1270  0.00  0.00     0.000 S
ATOM     88   O  Z9L D   5      -2.251  11.667 -43.7920  0.00  0.00     0.000 OA
ATOM     89   O  Z9L D   5      -1.846   9.172 -44.0660  0.00  0.00     0.000 OA
ENDBRANCH 78 85
BRANCH 79 90
ATOM     90   O  Z9L D   5      -2.673  12.882 -46.6870  0.00  0.00     0.000 O
ATOM     91   S  Z9L D   5      -4.207  13.259 -46.8870  0.00  0.00     0.000 S
ATOM     92   O  Z9L D   5      -5.270  12.538 -46.2370  0.00  0.00     0.000 OA
ATOM     93   O  Z9L D   5      -4.391  13.827 -48.2000  0.00  0.00     0.000 O
ATOM     94   O  Z9L D   5      -3.824  14.324 -46.0180  0.00  0.00     0.000 OA
ENDBRANCH 79 90
BRANCH 81 95
ATOM     95   C  Z9L D   5      -0.588   9.853 -50.2280  0.00  0.00     0.000 C
ATOM     96   S  Z9L D   5       1.333   9.459 -50.5730  0.00  0.00     0.000 S
ATOM     97   O  Z9L D   5       0.506  10.062 -49.3760  0.00  0.00     0.000 O
ATOM     98   O  Z9L D   5       1.361  10.463 -51.6050  0.00  0.00     0.000 OA
ATOM     99   O  Z9L D   5       1.076   8.091 -50.8760  0.00  0.00     0.000 OA
ATOM    100   O  Z9L D   5       2.421   9.712 -49.6610  0.00  0.00     0.000 O
ENDBRANCH 81 95
ENDBRANCH 76 80
ENDBRANCH 60 76
ENDBRANCH 59 63
ENDBRANCH 37 59
ENDBRANCH 36 40
ENDBRANCH 23 36
ENDBRANCH 22 26
ENDBRANCH 1 22
TORSDOF 19
ENDMDL
MODEL 15
REMARK VINA RESULT:      -7.4     14.167     20.740
ROOT
ATOM      1  C1  Z9H D   1      19.512   9.163 -54.5960  0.00  0.00     0.000 C
ATOM      2  C2  Z9H D   1      20.378   9.237 -55.8760  0.00  0.00     0.000 C
ATOM      3  C3  Z9H D   1      21.318   8.030 -55.5780  0.00  0.00     0.000 C
ATOM      4  C4  Z9H D   1      21.993   8.031 -54.1440  0.00  0.00     0.000 C
ATOM      5  C5  Z9H D   1      21.188   8.299 -52.8110  0.00  0.00     0.000 C
ATOM      6  O5  Z9H D   1      20.137   9.180 -53.2820  0.00  0.00     0.000 O
ATOM      7   O  Z9H D   1      22.310   7.872 -56.5940  0.00  0.00     0.000 O
ATOM      8   C  Z9H D   1      22.019   6.878 -57.5910  0.00  0.00     0.000 C
ATOM      9   O  Z9H D   1      22.621   6.752 -54.0090  0.00  0.00     0.000 O
ATOM     10   C  Z9H D   1      24.029   6.726 -54.2660  0.00  0.00     0.000 C
ENDROOT
BRANCH 2 11
ATOM     11   O  Z9H D   1      19.487   8.774 -56.8580  0.00  0.00     0.000 O
ATOM     12   O  Z9H D   1      18.858   9.820 -58.2950  0.00  0.00     0.000 OA
ATOM     13   S  Z9H D   1      19.797  10.262 -57.3200  0.00  0.00     0.000 S
ATOM     14   O  Z9H D   1      21.149  10.313 -57.7990  0.00  0.00     0.000 OA
ATOM     15   O  Z9H D   1      19.190  11.233 -56.4390  0.00  0.00     0.000 O
ENDBRANCH 2 11
BRANCH 5 16
ATOM     16   C  Z9H D   1      22.127   8.697 -51.4840  0.00  0.00     0.000 C
ATOM     17   S  Z9H D   1      22.596  10.173 -50.2030  0.00  0.00     0.000 S
ATOM     18   O  Z9H D   1      21.246   9.624 -50.8960  0.00  0.00     0.000 O
ATOM     19   O  Z9H D   1      23.529  10.787 -51.1040  0.00  0.00     0.000 O
ATOM     20   O  Z9H D   1      22.989   9.312 -49.1430  0.00  0.00     0.000 OA
ATOM     21   O  Z9H D   1      21.659  11.120 -49.6740  0.00  0.00     0.000 OA
ENDBRANCH 5 16
BRANCH 1 22
ATOM     22  O4  GU1 D   2      18.679   7.954 -54.4810  0.00  0.00     0.000 O
BRANCH 22 26
ATOM     23  C1  GU1 D   2      14.952   6.647 -53.3080  0.00  0.00     0.000 C
ATOM     24  C2  GU1 D   2      15.035   8.129 -53.6400  0.00  0.00     0.000 C
ATOM     25  C3  GU1 D   2      16.299   8.397 -54.4030  0.00  0.00     0.000 C
ATOM     26  C4  GU1 D   2      17.511   7.857 -53.6570  0.00  0.00     0.000 C
ATOM     27  C5  GU1 D   2      17.282   6.390 -53.2790  0.00  0.00     0.000 C
ATOM     28  O5  GU1 D   2      16.077   6.250 -52.5320  0.00  0.00     0.000 O
ATOM     29   O  GU1 D   2      13.936   8.558 -54.4350  0.00  0.00     0.000 O
ATOM     30   C  GU1 D   2      12.883   9.151 -53.6870  0.00  0.00     0.000 C
ATOM     31   C  GU1 D   2      16.100  10.321 -55.8360  0.00  0.00     0.000 C
ATOM     32   O  GU1 D   2      16.447   9.813 -54.5500  0.00  0.00     0.000 O
BRANCH 27 33
ATOM     33   C  GU1 D   2      18.416   5.861 -52.4330  0.00  0.00     0.000 C
ATOM     34   O  GU1 D   2      18.378   6.049 -51.2340  0.00  0.00     0.000 OA
ATOM     35   O  GU1 D   2      19.344   5.257 -52.9470  0.00  0.00     0.000 O
ENDBRANCH 27 33
BRANCH 23 36
ATOM     36  O4  GU6 D   3      13.963   6.171 -52.3730  0.00  0.00     0.000 O
BRANCH 36 40
ATOM     37  C1  GU6 D   3      10.774   3.813 -51.3940  0.00  0.00     0.000 C
ATOM     38  C2  GU6 D   3      11.858   3.862 -50.3250  0.00  0.00     0.000 C
ATOM     39  C3  GU6 D   3      12.843   4.953 -50.6540  0.00  0.00     0.000 C
ATOM     40  C4  GU6 D   3      12.740   5.589 -51.9720  0.00  0.00     0.000 C
ATOM     41  C5  GU6 D   3      12.367   4.513 -53.0440  0.00  0.00     0.000 C
ATOM     42  O5  GU6 D   3      11.385   3.549 -52.6470  0.00  0.00     0.000 O
BRANCH 38 43
ATOM     43   O  GU6 D   3      11.290   4.093 -49.0500  0.00  0.00     0.000 O
ATOM     44   S  GU6 D   3      10.981   2.828 -48.2600  0.00  0.00     0.000 S
ATOM     45   O  GU6 D   3       9.694   2.286 -48.7280  0.00  0.00     0.000 OA
ATOM     46   O  GU6 D   3      12.048   1.843 -48.5130  0.00  0.00     0.000 O
ATOM     47   O  GU6 D   3      10.934   3.160 -46.8400  0.00  0.00     0.000 OA
ENDBRANCH 38 43
BRANCH 39 48
ATOM     48   O  GU6 D   3      13.680   5.502 -49.6540  0.00  0.00     0.000 O
ATOM     49   S  GU6 D   3      14.895   4.899 -48.9520  0.00  0.00     0.000 S
ATOM     50   O  GU6 D   3      15.890   4.470 -49.9420  0.00  0.00     0.000 OA
ATOM     51   O  GU6 D   3      15.400   6.015 -48.1410  0.00  0.00     0.000 OA
ATOM     52   O  GU6 D   3      14.456   3.740 -48.1420  0.00  0.00     0.000 O
ENDBRANCH 39 48
BRANCH 41 53
ATOM     53   C  GU6 D   3      12.886   4.355 -54.4480  0.00  0.00     0.000 C
ATOM     54   O  GU6 D   3      11.691   4.640 -55.1270  0.00  0.00     0.000 O
ATOM     55   S  GU6 D   3      11.613   4.511 -56.6540  0.00  0.00     0.000 S
ATOM     56   O  GU6 D   3      11.777   3.073 -56.9700  0.00  0.00     0.000 O
ATOM     57   O  GU6 D   3      10.298   4.994 -57.0980  0.00  0.00     0.000 OA
ATOM     58   O  GU6 D   3      12.723   5.311 -57.2190  0.00  0.00     0.000 OA
ENDBRANCH 41 53
BRANCH 37 59
ATOM     59  O4  Z9K D   4       9.776   4.834 -51.6090  0.00  0.00     0.000 O
BRANCH 59 63
ATOM     60  C1  Z9K D   4       6.189   4.976 -50.0100  0.00  0.00     0.000 C
ATOM     61  C2  Z9K D   4       6.135   3.610 -50.7490  0.00  0.00     0.000 C
ATOM     62  C3  Z9K D   4       7.642   3.472 -51.2380  0.00  0.00     0.000 C
ATOM     63  C4  Z9K D   4       8.352   4.716 -51.8970  0.00  0.00     0.000 C
ATOM     64  C5  Z9K D   4       7.818   6.095 -51.4840  0.00  0.00     0.000 C
ATOM     65  O5  Z9K D   4       7.388   5.878 -50.1140  0.00  0.00     0.000 O
ATOM     66   O  Z9K D   4       7.841   2.395 -52.1710  0.00  0.00     0.000 O
ATOM     67   C  Z9K D   4       8.065   1.132 -51.5680  0.00  0.00     0.000 C
BRANCH 61 68
ATOM     68   O  Z9K D   4       5.946   2.622 -49.7740  0.00  0.00     0.000 O
ATOM     69   O  Z9K D   4       4.782   1.996 -51.9660  0.00  0.00     0.000 OA
ATOM     70   S  Z9K D   4       4.583   2.503 -50.6410  0.00  0.00     0.000 S
ATOM     71   O  Z9K D   4       3.705   3.573 -50.2790  0.00  0.00     0.000 OA
ATOM     72   O  Z9K D   4       4.444   1.436 -49.7030  0.00  0.00     0.000 OA
ENDBRANCH 61 68
BRANCH 64 73
ATOM     73   C  Z9K D   4       8.862   7.196 -51.7680  0.00  0.00     0.000 C
ATOM     74   O  Z9K D   4       9.318   7.923 -50.8380  0.00  0.00     0.000 O
ATOM     75   O  Z9K D   4       9.301   7.408 -52.9250  0.00  0.00     0.000 OA
ENDBRANCH 64 73
BRANCH 60 76
ATOM     76  O4  Z9L D   5       5.235   6.051 -50.0460  0.00  0.00     0.000 O
BRANCH 76 80
ATOM     77  C1  Z9L D   5       3.496   8.320 -47.2530  0.00  0.00     0.000 C
ATOM     78  C2  Z9L D   5       3.646   9.226 -48.5680  0.00  0.00     0.000 C
ATOM     79  C3  Z9L D   5       3.941   8.169 -49.8550  0.00  0.00     0.000 C
ATOM     80  C4  Z9L D   5       5.010   7.122 -49.1650  0.00  0.00     0.000 C
ATOM     81  C5  Z9L D   5       4.983   6.377 -47.7350  0.00  0.00     0.000 C
ATOM     82  O5  Z9L D   5       4.514   7.344 -46.7850  0.00  0.00     0.000 O
ATOM     83   C  Z9L D   5       1.923   6.824 -46.1650  0.00  0.00     0.000 C
ATOM     84   C  Z9L D   5       1.923   6.824 -46.1650  0.00  0.00     0.000 C
BRANCH 78 85
ATOM     85   O  Z9L D   5       2.436   9.880 -48.7820  0.00  0.00     0.000 O
ATOM     86   O  Z9L D   5       2.181  11.787 -48.7080  0.00  0.00     0.000 OA
ATOM     87   S  Z9L D   5       3.444  11.120 -48.6130  0.00  0.00     0.000 S
ATOM     88   O  Z9L D   5       4.144  11.470 -49.8240  0.00  0.00     0.000 OA
ATOM     89   O  Z9L D   5       3.908  11.384 -47.2940  0.00  0.00     0.000 OA
ENDBRANCH 78 85
BRANCH 79 90
ATOM     90   O  Z9L D   5       4.708   8.776 -50.8450  0.00  0.00     0.000 O
ATOM     91   S  Z9L D   5       3.406   8.426 -51.6930  0.00  0.00     0.000 S
ATOM     92   O  Z9L D   5       2.093   8.876 -51.3110  0.00  0.00     0.000 OA
ATOM     93   O  Z9L D   5       3.592   7.157 -52.3510  0.00  0.00     0.000 O
ATOM     94   O  Z9L D   5       3.966   9.428 -52.5410  0.00  0.00     0.000 OA
ENDBRANCH 79 90
BRANCH 81 95
ATOM     95   C  Z9L D   5       6.314   5.440 -47.3310  0.00  0.00     0.000 C
ATOM     96   S  Z9L D   5       7.045   4.134 -46.0170  0.00  0.00     0.000 S
ATOM     97   O  Z9L D   5       6.110   5.399 -45.9440  0.00  0.00     0.000 O
ATOM     98   O  Z9L D   5       8.379   4.617 -46.2670  0.00  0.00     0.000 OA
ATOM     99   O  Z9L D   5       6.518   3.014 -46.7220  0.00  0.00     0.000 OA
ATOM    100   O  Z9L D   5       6.813   4.153 -44.5940  0.00  0.00     0.000 O
ENDBRANCH 81 95
ENDBRANCH 76 80
ENDBRANCH 60 76
ENDBRANCH 59 63
ENDBRANCH 37 59
ENDBRANCH 36 40
ENDBRANCH 23 36
ENDBRANCH 22 26
ENDBRANCH 1 22
TORSDOF 19
ENDMDL
MODEL 16
REMARK VINA RESULT:      -7.4      6.265     13.992
ROOT
ATOM      1  C1  Z9H D   1       1.561  15.949 -50.4540  0.00  0.00     0.000 C
ATOM      2  C2  Z9H D   1       2.047  14.805 -51.3770  0.00  0.00     0.000 C
ATOM      3  C3  Z9H D   1       0.656  14.348 -51.9150  0.00  0.00     0.000 C
ATOM      4  C4  Z9H D   1      -0.446  14.082 -50.8080  0.00  0.00     0.000 C
ATOM      5  C5  Z9H D   1      -0.743  15.087 -49.6250  0.00  0.00     0.000 C
ATOM      6  O5  Z9H D   1       0.559  15.695 -49.4310  0.00  0.00     0.000 O
ATOM      7   O  Z9H D   1       0.773  13.218 -52.7820  0.00  0.00     0.000 O
ATOM      8   C  Z9H D   1       0.766  13.517 -54.1880  0.00  0.00     0.000 C
ATOM      9   O  Z9H D   1      -1.674  13.893 -51.5200  0.00  0.00     0.000 O
ATOM     10   C  Z9H D   1      -2.070  12.532 -51.7180  0.00  0.00     0.000 C
ENDROOT
BRANCH 2 11
ATOM     11   O  Z9H D   1       2.634  15.514 -52.4360  0.00  0.00     0.000 O
ATOM     12   O  Z9H D   1       4.486  15.543 -52.7950  0.00  0.00     0.000 OA
ATOM     13   S  Z9H D   1       3.872  14.790 -51.7530  0.00  0.00     0.000 S
ATOM     14   O  Z9H D   1       3.781  13.385 -52.0290  0.00  0.00     0.000 OA
ATOM     15   O  Z9H D   1       4.183  15.366 -50.4650  0.00  0.00     0.000 O
ENDBRANCH 2 11
BRANCH 5 16
ATOM     16   C  Z9H D   1      -1.600  14.438 -48.3420  0.00  0.00     0.000 C
ATOM     17   S  Z9H D   1      -3.083  14.785 -47.0310  0.00  0.00     0.000 S
ATOM     18   O  Z9H D   1      -2.835  15.060 -48.6020  0.00  0.00     0.000 O
ATOM     19   O  Z9H D   1      -2.251  15.550 -46.1470  0.00  0.00     0.000 O
ATOM     20   O  Z9H D   1      -3.397  13.416 -46.8160  0.00  0.00     0.000 OA
ATOM     21   O  Z9H D   1      -4.303  15.470 -47.3440  0.00  0.00     0.000 OA
ENDBRANCH 5 16
BRANCH 1 22
ATOM     22  O4  GU1 D   2       0.945  17.090 -51.1550  0.00  0.00     0.000 O
BRANCH 22 26
ATOM     23  C1  GU1 D   2       0.349  21.166 -51.1320  0.00  0.00     0.000 C
ATOM     24  C2  GU1 D   2       1.739  20.720 -50.7060  0.00  0.00     0.000 C
ATOM     25  C3  GU1 D   2       1.951  19.292 -51.1160  0.00  0.00     0.000 C
ATOM     26  C4  GU1 D   2       0.827  18.405 -50.6000  0.00  0.00     0.000 C
ATOM     27  C5  GU1 D   2      -0.530  18.996 -50.9940  0.00  0.00     0.000 C
ATOM     28  O5  GU1 D   2      -0.641  20.340 -50.5310  0.00  0.00     0.000 O
ATOM     29   O  GU1 D   2       2.758  21.511 -51.3060  0.00  0.00     0.000 O
ATOM     30   C  GU1 D   2       3.232  22.563 -50.4770  0.00  0.00     0.000 C
ATOM     31   C  GU1 D   2       4.278  18.788 -51.4680  0.00  0.00     0.000 C
ATOM     32   O  GU1 D   2       3.186  18.839 -50.5530  0.00  0.00     0.000 O
BRANCH 27 33
ATOM     33   C  GU1 D   2      -1.666  18.204 -50.3930  0.00  0.00     0.000 C
ATOM     34   O  GU1 D   2      -1.832  18.252 -49.1920  0.00  0.00     0.000 OA
ATOM     35   O  GU1 D   2      -2.400  17.535 -51.1040  0.00  0.00     0.000 O
ENDBRANCH 27 33
BRANCH 23 36
ATOM     36  O4  GU6 D   3      -0.192  22.409 -50.6430  0.00  0.00     0.000 O
BRANCH 36 40
ATOM     37  C1  GU6 D   3      -2.111  25.870 -51.6600  0.00  0.00     0.000 C
ATOM     38  C2  GU6 D   3      -2.979  24.623 -51.7800  0.00  0.00     0.000 C
ATOM     39  C3  GU6 D   3      -2.279  23.457 -51.1320  0.00  0.00     0.000 C
ATOM     40  C4  GU6 D   3      -0.881  23.640 -50.7280  0.00  0.00     0.000 C
ATOM     41  C5  GU6 D   3      -0.138  24.512 -51.7940  0.00  0.00     0.000 C
ATOM     42  O5  GU6 D   3      -0.875  25.625 -52.3130  0.00  0.00     0.000 O
BRANCH 38 43
ATOM     43   O  GU6 D   3      -4.237  24.832 -51.1680  0.00  0.00     0.000 O
ATOM     44   S  GU6 D   3      -5.362  25.161 -52.1410  0.00  0.00     0.000 S
ATOM     45   O  GU6 D   3      -5.293  26.595 -52.4700  0.00  0.00     0.000 OA
ATOM     46   O  GU6 D   3      -5.171  24.366 -53.3680  0.00  0.00     0.000 O
ATOM     47   O  GU6 D   3      -6.637  24.819 -51.5170  0.00  0.00     0.000 OA
ENDBRANCH 38 43
BRANCH 39 48
ATOM     48   O  GU6 D   3      -3.003  22.315 -50.7180  0.00  0.00     0.000 O
ATOM     49   S  GU6 D   3      -3.776  21.290 -51.5470  0.00  0.00     0.000 S
ATOM     50   O  GU6 D   3      -2.904  20.708 -52.5740  0.00  0.00     0.000 OA
ATOM     51   O  GU6 D   3      -4.168  20.283 -50.5510  0.00  0.00     0.000 OA
ATOM     52   O  GU6 D   3      -4.931  21.961 -52.1840  0.00  0.00     0.000 O
ENDBRANCH 39 48
BRANCH 41 53
ATOM     53   C  GU6 D   3       1.254  24.355 -52.3440  0.00  0.00     0.000 C
ATOM     54   O  GU6 D   3       1.327  25.577 -53.0310  0.00  0.00     0.000 O
ATOM     55   S  GU6 D   3       2.546  25.908 -53.9030  0.00  0.00     0.000 S
ATOM     56   O  GU6 D   3       2.534  24.953 -55.0350  0.00  0.00     0.000 O
ATOM     57   O  GU6 D   3       2.413  27.290 -54.3880  0.00  0.00     0.000 OA
ATOM     58   O  GU6 D   3       3.750  25.723 -53.0630  0.00  0.00     0.000 OA
ENDBRANCH 41 53
BRANCH 37 59
ATOM     59  O4  Z9K D   4      -1.816  26.559 -50.4270  0.00  0.00     0.000 O
BRANCH 59 63
ATOM     60  C1  Z9K D   4      -4.760  28.511 -48.7050  0.00  0.00     0.000 C
ATOM     61  C2  Z9K D   4      -4.510  29.391 -49.9610  0.00  0.00     0.000 C
ATOM     62  C3  Z9K D   4      -3.450  28.502 -50.7450  0.00  0.00     0.000 C
ATOM     63  C4  Z9K D   4      -2.243  27.869 -49.9530  0.00  0.00     0.000 C
ATOM     64  C5  Z9K D   4      -2.476  27.618 -48.4550  0.00  0.00     0.000 C
ATOM     65  O5  Z9K D   4      -3.896  27.320 -48.3960  0.00  0.00     0.000 O
ATOM     66   O  Z9K D   4      -2.845  29.186 -51.8560  0.00  0.00     0.000 O
ATOM     67   C  Z9K D   4      -3.589  29.118 -53.0620  0.00  0.00     0.000 C
BRANCH 61 68
ATOM     68   O  Z9K D   4      -5.686  29.365 -50.7220  0.00  0.00     0.000 O
ATOM     69   O  Z9K D   4      -4.492  31.618 -50.9390  0.00  0.00     0.000 OA
ATOM     70   S  Z9K D   4      -5.583  30.930 -50.3180  0.00  0.00     0.000 S
ATOM     71   O  Z9K D   4      -6.009  31.089 -48.9610  0.00  0.00     0.000 OA
ATOM     72   O  Z9K D   4      -6.725  30.908 -51.1740  0.00  0.00     0.000 OA
ENDBRANCH 61 68
BRANCH 64 73
ATOM     73   C  Z9K D   4      -1.476  26.576 -47.9120  0.00  0.00     0.000 C
ATOM     74   O  Z9K D   4      -1.871  25.563 -47.2640  0.00  0.00     0.000 O
ATOM     75   O  Z9K D   4      -0.239  26.688 -48.0950  0.00  0.00     0.000 OA
ENDBRANCH 64 73
BRANCH 60 76
ATOM     76  O4  Z9L D   5      -4.879  28.925 -47.3330  0.00  0.00     0.000 O
BRANCH 76 80
ATOM     77  C1  Z9L D   5      -6.848  28.376 -43.8990  0.00  0.00     0.000 C
ATOM     78  C2  Z9L D   5      -5.354  27.839 -43.6740  0.00  0.00     0.000 C
ATOM     79  C3  Z9L D   5      -4.415  28.477 -44.9280  0.00  0.00     0.000 C
ATOM     80  C4  Z9L D   5      -5.427  28.278 -46.2130  0.00  0.00     0.000 C
ATOM     81  C5  Z9L D   5      -6.998  28.603 -46.3770  0.00  0.00     0.000 C
ATOM     82  O5  Z9L D   5      -7.625  28.198 -45.1520  0.00  0.00     0.000 O
ATOM     83   C  Z9L D   5      -8.184  30.388 -43.6500  0.00  0.00     0.000 C
ATOM     84   C  Z9L D   5      -8.184  30.388 -43.6500  0.00  0.00     0.000 C
BRANCH 78 85
ATOM     85   O  Z9L D   5      -4.893  28.339 -42.4590  0.00  0.00     0.000 O
ATOM     86   O  Z9L D   5      -4.432  27.270 -40.9250  0.00  0.00     0.000 OA
ATOM     87   S  Z9L D   5      -4.785  26.755 -42.2130  0.00  0.00     0.000 S
ATOM     88   O  Z9L D   5      -3.572  26.168 -42.7270  0.00  0.00     0.000 OA
ATOM     89   O  Z9L D   5      -6.010  26.060 -42.0160  0.00  0.00     0.000 OA
ENDBRANCH 78 85
BRANCH 79 90
ATOM     90   O  Z9L D   5      -3.354  27.634 -45.2460  0.00  0.00     0.000 O
ATOM     91   S  Z9L D   5      -2.542  28.937 -44.8230  0.00  0.00     0.000 S
ATOM     92   O  Z9L D   5      -2.707  29.564 -43.5380  0.00  0.00     0.000 OA
ATOM     93   O  Z9L D   5      -2.250  29.720 -45.9980  0.00  0.00     0.000 O
ATOM     94   O  Z9L D   5      -1.501  27.970 -44.6910  0.00  0.00     0.000 OA
ENDBRANCH 79 90
BRANCH 81 95
ATOM     95   C  Z9L D   5      -7.724  28.174 -47.8270  0.00  0.00     0.000 C
ATOM     96   S  Z9L D   5      -8.727  26.742 -48.7820  0.00  0.00     0.000 S
ATOM     97   O  Z9L D   5      -7.564  26.785 -47.7220  0.00  0.00     0.000 O
ATOM     98   O  Z9L D   5      -8.162  27.173 -50.0350  0.00  0.00     0.000 OA
ATOM     99   O  Z9L D   5      -9.990  27.224 -48.3350  0.00  0.00     0.000 OA
ATOM    100   O  Z9L D   5      -8.505  25.324 -48.6450  0.00  0.00     0.000 O
ENDBRANCH 81 95
ENDBRANCH 76 80
ENDBRANCH 60 76
ENDBRANCH 59 63
ENDBRANCH 37 59
ENDBRANCH 36 40
ENDBRANCH 23 36
ENDBRANCH 22 26
ENDBRANCH 1 22
TORSDOF 19
ENDMDL
MODEL 17
REMARK VINA RESULT:      -7.4      6.724     14.117
ROOT
ATOM      1  C1  Z9H D   1       1.232  16.863 -53.0700  0.00  0.00     0.000 C
ATOM      2  C2  Z9H D   1       1.009  17.906 -54.1910  0.00  0.00     0.000 C
ATOM      3  C3  Z9H D   1       2.503  18.265 -54.4600  0.00  0.00     0.000 C
ATOM      4  C4  Z9H D   1       3.357  18.627 -53.1750  0.00  0.00     0.000 C
ATOM      5  C5  Z9H D   1       3.346  17.756 -51.8560  0.00  0.00     0.000 C
ATOM      6  O5  Z9H D   1       2.005  17.206 -51.8860  0.00  0.00     0.000 O
ATOM      7   O  Z9H D   1       2.628  19.292 -55.4460  0.00  0.00     0.000 O
ATOM      8   C  Z9H D   1       2.920  18.835 -56.7770  0.00  0.00     0.000 C
ATOM      9   O  Z9H D   1       4.715  18.703 -53.6200  0.00  0.00     0.000 O
ATOM     10   C  Z9H D   1       5.210  20.022 -53.8690  0.00  0.00     0.000 C
ENDROOT
BRANCH 2 11
ATOM     11   O  Z9H D   1       0.627  17.097 -55.2720  0.00  0.00     0.000 O
ATOM     12   O  Z9H D   1      -1.097  17.097 -56.0370  0.00  0.00     0.000 OA
ATOM     13   S  Z9H D   1      -0.682  17.946 -54.9720  0.00  0.00     0.000 S
ATOM     14   O  Z9H D   1      -0.441  19.303 -55.3730  0.00  0.00     0.000 OA
ATOM     15   O  Z9H D   1      -1.308  17.544 -53.7330  0.00  0.00     0.000 O
ENDBRANCH 2 11
BRANCH 5 16
ATOM     16   C  Z9H D   1       3.942  18.524 -50.4940  0.00  0.00     0.000 C
ATOM     17   S  Z9H D   1       3.443  19.673 -48.9220  0.00  0.00     0.000 S
ATOM     18   O  Z9H D   1       2.790  18.414 -49.6930  0.00  0.00     0.000 O
ATOM     19   O  Z9H D   1       3.478  20.891 -49.6800  0.00  0.00     0.000 O
ATOM     20   O  Z9H D   1       4.514  19.240 -48.0940  0.00  0.00     0.000 OA
ATOM     21   O  Z9H D   1       2.229  19.543 -48.1710  0.00  0.00     0.000 OA
ENDBRANCH 5 16
BRANCH 1 22
ATOM     22  O4  GU1 D   2       1.926  15.635 -53.4960  0.00  0.00     0.000 O
BRANCH 22 26
ATOM     23  C1  GU1 D   2       2.303  11.589 -52.8180  0.00  0.00     0.000 C
ATOM     24  C2  GU1 D   2       0.915  12.155 -52.5580  0.00  0.00     0.000 C
ATOM     25  C3  GU1 D   2       0.804  13.511 -53.1920  0.00  0.00     0.000 C
ATOM     26  C4  GU1 D   2       1.941  14.417 -52.7430  0.00  0.00     0.000 C
ATOM     27  C5  GU1 D   2       3.285  13.714 -52.9520  0.00  0.00     0.000 C
ATOM     28  O5  GU1 D   2       3.298  12.454 -52.2840  0.00  0.00     0.000 O
ATOM     29   O  GU1 D   2      -0.107  11.326 -53.0980  0.00  0.00     0.000 O
ATOM     30   C  GU1 D   2      -0.685  10.436 -52.1530  0.00  0.00     0.000 C
ATOM     31   C  GU1 D   2      -1.469  14.055 -53.7700  0.00  0.00     0.000 C
ATOM     32   O  GU1 D   2      -0.437  14.099 -52.7870  0.00  0.00     0.000 O
BRANCH 27 33
ATOM     33   C  GU1 D   2       4.425  14.539 -52.4030  0.00  0.00     0.000 C
ATOM     34   O  GU1 D   2       5.239  14.989 -53.1830  0.00  0.00     0.000 OA
ATOM     35   O  GU1 D   2       4.518  14.750 -51.2040  0.00  0.00     0.000 O
ENDBRANCH 27 33
BRANCH 23 36
ATOM     36  O4  GU6 D   3       2.746  10.413 -52.1120  0.00  0.00     0.000 O
BRANCH 36 40
ATOM     37  C1  GU6 D   3       3.224   7.214 -49.6160  0.00  0.00     0.000 C
ATOM     38  C2  GU6 D   3       4.255   8.318 -49.4110  0.00  0.00     0.000 C
ATOM     39  C3  GU6 D   3       3.835   9.548 -50.1740  0.00  0.00     0.000 C
ATOM     40  C4  GU6 D   3       2.711   9.420 -51.1080  0.00  0.00     0.000 C
ATOM     41  C5  GU6 D   3       2.785   8.033 -51.8280  0.00  0.00     0.000 C
ATOM     42  O5  GU6 D   3       3.147   6.920 -51.0030  0.00  0.00     0.000 O
BRANCH 38 43
ATOM     43   O  GU6 D   3       4.389   8.624 -48.0370  0.00  0.00     0.000 O
ATOM     44   S  GU6 D   3       5.183   7.599 -47.2380  0.00  0.00     0.000 S
ATOM     45   O  GU6 D   3       4.290   6.479 -46.8940  0.00  0.00     0.000 OA
ATOM     46   O  GU6 D   3       6.289   7.103 -48.0780  0.00  0.00     0.000 O
ATOM     47   O  GU6 D   3       5.714   8.243 -46.0410  0.00  0.00     0.000 OA
ENDBRANCH 38 43
BRANCH 39 48
ATOM     48   O  GU6 D   3       4.346  10.822 -49.8340  0.00  0.00     0.000 O
ATOM     49   S  GU6 D   3       3.803  11.870 -48.8620  0.00  0.00     0.000 S
ATOM     50   O  GU6 D   3       3.622  11.279 -47.5310  0.00  0.00     0.000 OA
ATOM     51   O  GU6 D   3       4.858  12.892 -48.8510  0.00  0.00     0.000 OA
ATOM     52   O  GU6 D   3       2.508  12.372 -49.3740  0.00  0.00     0.000 O
ENDBRANCH 39 48
BRANCH 41 53
ATOM     53   C  GU6 D   3       2.513   7.698 -53.2690  0.00  0.00     0.000 C
ATOM     54   O  GU6 D   3       1.998   6.407 -53.0720  0.00  0.00     0.000 O
ATOM     55   S  GU6 D   3       1.644   5.518 -54.2710  0.00  0.00     0.000 S
ATOM     56   O  GU6 D   3       2.916   5.208 -54.9640  0.00  0.00     0.000 O
ATOM     57   O  GU6 D   3       1.011   4.288 -53.7730  0.00  0.00     0.000 OA
ATOM     58   O  GU6 D   3       0.739   6.299 -55.1440  0.00  0.00     0.000 OA
ENDBRANCH 41 53
BRANCH 37 59
ATOM     59  O4  Z9K D   4       1.875   7.235 -49.1060  0.00  0.00     0.000 O
BRANCH 59 63
ATOM     60  C1  Z9K D   4       1.239   4.578 -46.2800  0.00  0.00     0.000 C
ATOM     61  C2  Z9K D   4       1.254   3.675 -47.5440  0.00  0.00     0.000 C
ATOM     62  C3  Z9K D   4       1.694   4.722 -48.6570  0.00  0.00     0.000 C
ATOM     63  C4  Z9K D   4       1.006   6.141 -48.6910  0.00  0.00     0.000 C
ATOM     64  C5  Z9K D   4       0.448   6.652 -47.3540  0.00  0.00     0.000 C
ATOM     65  O5  Z9K D   4       1.359   6.074 -46.3830  0.00  0.00     0.000 O
ATOM     66   O  Z9K D   4       1.563   4.216 -49.9980  0.00  0.00     0.000 O
ATOM     67   C  Z9K D   4       2.680   3.471 -50.4540  0.00  0.00     0.000 C
BRANCH 61 68
ATOM     68   O  Z9K D   4       2.325   2.783 -47.3990  0.00  0.00     0.000 O
ATOM     69   O  Z9K D   4       0.380   1.698 -48.6610  0.00  0.00     0.000 OA
ATOM     70   S  Z9K D   4       1.052   1.781 -47.3990  0.00  0.00     0.000 S
ATOM     71   O  Z9K D   4       0.419   1.833 -46.1160  0.00  0.00     0.000 OA
ATOM     72   O  Z9K D   4       2.155   0.877 -47.3480  0.00  0.00     0.000 OA
ENDBRANCH 61 68
BRANCH 64 73
ATOM     73   C  Z9K D   4       0.270   8.185 -47.3840  0.00  0.00     0.000 C
ATOM     74   O  Z9K D   4      -0.705   8.719 -47.9890  0.00  0.00     0.000 O
ATOM     75   O  Z9K D   4       1.075   8.956 -46.8080  0.00  0.00     0.000 OA
ENDBRANCH 64 73
BRANCH 60 76
ATOM     76  O4  Z9L D   5       0.269   4.615 -45.2190  0.00  0.00     0.000 O
BRANCH 76 80
ATOM     77  C1  Z9L D   5      -0.127   4.861 -41.2500  0.00  0.00     0.000 C
ATOM     78  C2  Z9L D   5      -0.878   6.132 -41.8760  0.00  0.00     0.000 C
ATOM     79  C3  Z9L D   5      -1.111   5.797 -43.5180  0.00  0.00     0.000 C
ATOM     80  C4  Z9L D   5       0.341   5.127 -43.9130  0.00  0.00     0.000 C
ATOM     81  C5  Z9L D   5       1.223   4.005 -43.1640  0.00  0.00     0.000 C
ATOM     82  O5  Z9L D   5       1.151   4.304 -41.7620  0.00  0.00     0.000 O
ATOM     83   C  Z9L D   5      -0.555   2.576 -40.5510  0.00  0.00     0.000 C
ATOM     84   C  Z9L D   5      -0.555   2.576 -40.5510  0.00  0.00     0.000 C
BRANCH 78 85
ATOM     85   O  Z9L D   5      -2.117   6.251 -41.2550  0.00  0.00     0.000 O
ATOM     86   O  Z9L D   5      -2.608   7.650 -40.0250  0.00  0.00     0.000 OA
ATOM     87   S  Z9L D   5      -1.383   7.593 -40.7610  0.00  0.00     0.000 S
ATOM     88   O  Z9L D   5      -1.462   8.680 -41.7050  0.00  0.00     0.000 OA
ATOM     89   O  Z9L D   5      -0.364   7.433 -39.7810  0.00  0.00     0.000 OA
ENDBRANCH 78 85
BRANCH 79 90
ATOM     90   O  Z9L D   5      -1.122   6.964 -44.2770  0.00  0.00     0.000 O
ATOM     91   S  Z9L D   5      -2.550   6.378 -44.6680  0.00  0.00     0.000 S
ATOM     92   O  Z9L D   5      -3.548   6.057 -43.6820  0.00  0.00     0.000 OA
ATOM     93   O  Z9L D   5      -2.434   5.610 -45.8830  0.00  0.00     0.000 O
ATOM     94   O  Z9L D   5      -2.753   7.738 -45.0480  0.00  0.00     0.000 OA
ENDBRANCH 79 90
BRANCH 81 95
ATOM     95   C  Z9L D   5       2.719   3.633 -43.8260  0.00  0.00     0.000 C
ATOM     96   S  Z9L D   5       4.654   4.105 -43.8400  0.00  0.00     0.000 S
ATOM     97   O  Z9L D   5       3.302   4.904 -43.7150  0.00  0.00     0.000 O
ATOM     98   O  Z9L D   5       4.756   3.674 -45.2100  0.00  0.00     0.000 OA
ATOM     99   O  Z9L D   5       4.954   3.225 -42.7610  0.00  0.00     0.000 OA
ATOM    100   O  Z9L D   5       5.196   5.438 -43.7390  0.00  0.00     0.000 O
ENDBRANCH 81 95
ENDBRANCH 76 80
ENDBRANCH 60 76
ENDBRANCH 59 63
ENDBRANCH 37 59
ENDBRANCH 36 40
ENDBRANCH 23 36
ENDBRANCH 22 26
ENDBRANCH 1 22
TORSDOF 19
ENDMDL
MODEL 18
REMARK VINA RESULT:      -7.3     38.222     44.357
ROOT
ATOM      1  C1  Z9H D   1       8.021  42.150 -27.6100  0.00  0.00     0.000 C
ATOM      2  C2  Z9H D   1       8.993  42.597 -28.7270  0.00  0.00     0.000 C
ATOM      3  C3  Z9H D   1       7.941  43.191 -29.7130  0.00  0.00     0.000 C
ATOM      4  C4  Z9H D   1       6.710  42.249 -30.0410  0.00  0.00     0.000 C
ATOM      5  C5  Z9H D   1       5.887  41.484 -28.9300  0.00  0.00     0.000 C
ATOM      6  O5  Z9H D   1       6.901  41.273 -27.9150  0.00  0.00     0.000 O
ATOM      7   O  Z9H D   1       8.551  43.651 -30.9200  0.00  0.00     0.000 O
ATOM      8   C  Z9H D   1       8.808  45.064 -30.9820  0.00  0.00     0.000 C
ATOM      9   O  Z9H D   1       5.783  43.061 -30.7700  0.00  0.00     0.000 O
ATOM     10   C  Z9H D   1       5.811  42.904 -32.1920  0.00  0.00     0.000 C
ENDROOT
BRANCH 2 11
ATOM     11   O  Z9H D   1       9.617  43.711 -28.1430  0.00  0.00     0.000 O
ATOM     12   O  Z9H D   1      11.433  43.764 -27.6370  0.00  0.00     0.000 OA
ATOM     13   S  Z9H D   1      10.800  42.659 -28.2740  0.00  0.00     0.000 S
ATOM     14   O  Z9H D   1      11.131  42.522 -29.6640  0.00  0.00     0.000 OA
ATOM     15   O  Z9H D   1      10.645  41.563 -27.3450  0.00  0.00     0.000 O
ENDBRANCH 2 11
BRANCH 5 16
ATOM     16   C  Z9H D   1       4.941  40.222 -29.4910  0.00  0.00     0.000 C
ATOM     17   S  Z9H D   1       4.961  38.524 -30.5660  0.00  0.00     0.000 S
ATOM     18   O  Z9H D   1       5.931  39.222 -29.4800  0.00  0.00     0.000 O
ATOM     19   O  Z9H D   1       4.875  39.208 -31.8250  0.00  0.00     0.000 O
ATOM     20   O  Z9H D   1       3.838  37.941 -29.9180  0.00  0.00     0.000 OA
ATOM     21   O  Z9H D   1       6.023  37.562 -30.5500  0.00  0.00     0.000 OA
ENDBRANCH 5 16
BRANCH 1 22
ATOM     22  O4  GU1 D   2       7.321  43.249 -26.9220  0.00  0.00     0.000 O
BRANCH 22 26
ATOM     23  C1  GU1 D   2       5.534  44.332 -23.3710  0.00  0.00     0.000 C
ATOM     24  C2  GU1 D   2       6.611  43.265 -23.2460  0.00  0.00     0.000 C
ATOM     25  C3  GU1 D   2       7.432  43.237 -24.5030  0.00  0.00     0.000 C
ATOM     26  C4  GU1 D   2       6.544  43.086 -25.7290  0.00  0.00     0.000 C
ATOM     27  C5  GU1 D   2       5.433  44.139 -25.7050  0.00  0.00     0.000 C
ATOM     28  O5  GU1 D   2       4.696  44.060 -24.4880  0.00  0.00     0.000 O
ATOM     29   O  GU1 D   2       7.484  43.516 -22.1510  0.00  0.00     0.000 O
ATOM     30   C  GU1 D   2       7.145  42.802 -20.9700  0.00  0.00     0.000 C
ATOM     31   C  GU1 D   2       9.667  42.437 -24.1060  0.00  0.00     0.000 C
ATOM     32   O  GU1 D   2       8.319  42.116 -24.4390  0.00  0.00     0.000 O
BRANCH 27 33
ATOM     33   C  GU1 D   2       4.464  43.938 -26.8470  0.00  0.00     0.000 C
ATOM     34   O  GU1 D   2       3.629  43.063 -26.7480  0.00  0.00     0.000 OA
ATOM     35   O  GU1 D   2       4.521  44.645 -27.8410  0.00  0.00     0.000 O
ENDBRANCH 27 33
BRANCH 23 36
ATOM     36  O4  GU6 D   3       4.465  44.393 -22.4060  0.00  0.00     0.000 O
BRANCH 36 40
ATOM     37  C1  GU6 D   3       2.093  45.376 -19.2280  0.00  0.00     0.000 C
ATOM     38  C2  GU6 D   3       1.879  43.959 -19.7450  0.00  0.00     0.000 C
ATOM     39  C3  GU6 D   3       2.972  43.607 -20.7200  0.00  0.00     0.000 C
ATOM     40  C4  GU6 D   3       3.866  44.683 -21.1600  0.00  0.00     0.000 C
ATOM     41  C5  GU6 D   3       3.045  46.004 -21.3380  0.00  0.00     0.000 C
ATOM     42  O5  GU6 D   3       2.063  46.269 -20.3310  0.00  0.00     0.000 O
BRANCH 38 43
ATOM     43   O  GU6 D   3       1.870  43.035 -18.6740  0.00  0.00     0.000 O
ATOM     44   S  GU6 D   3       0.483  42.708 -18.1370  0.00  0.00     0.000 S
ATOM     45   O  GU6 D   3       0.076  43.777 -17.2080  0.00  0.00     0.000 OA
ATOM     46   O  GU6 D   3      -0.461  42.657 -19.2680  0.00  0.00     0.000 O
ATOM     47   O  GU6 D   3       0.531  41.412 -17.4670  0.00  0.00     0.000 OA
ENDBRANCH 38 43
BRANCH 39 48
ATOM     48   O  GU6 D   3       3.272  42.256 -21.0180  0.00  0.00     0.000 O
ATOM     49   S  GU6 D   3       2.578  41.285 -21.9720  0.00  0.00     0.000 S
ATOM     50   O  GU6 D   3       2.515  41.860 -23.3210  0.00  0.00     0.000 OA
ATOM     51   O  GU6 D   3       3.451  40.104 -21.9380  0.00  0.00     0.000 OA
ATOM     52   O  GU6 D   3       1.211  41.015 -21.4720  0.00  0.00     0.000 O
ENDBRANCH 39 48
BRANCH 41 53
ATOM     53   C  GU6 D   3       3.154  47.048 -22.4170  0.00  0.00     0.000 C
ATOM     54   O  GU6 D   3       3.900  47.992 -21.6940  0.00  0.00     0.000 O
ATOM     55   S  GU6 D   3       4.217  49.365 -22.3020  0.00  0.00     0.000 S
ATOM     56   O  GU6 D   3       2.926  50.078 -22.4430  0.00  0.00     0.000 O
ATOM     57   O  GU6 D   3       5.113  50.087 -21.3870  0.00  0.00     0.000 OA
ATOM     58   O  GU6 D   3       4.840  49.126 -23.6230  0.00  0.00     0.000 OA
ENDBRANCH 41 53
BRANCH 37 59
ATOM     59  O4  Z9K D   4       3.177  45.790 -18.3700  0.00  0.00     0.000 O
BRANCH 59 63
ATOM     60  C1  Z9K D   4       2.015  47.907 -15.2690  0.00  0.00     0.000 C
ATOM     61  C2  Z9K D   4       1.875  48.948 -16.4140  0.00  0.00     0.000 C
ATOM     62  C3  Z9K D   4       2.167  48.039 -17.6850  0.00  0.00     0.000 C
ATOM     63  C4  Z9K D   4       3.387  47.041 -17.6520  0.00  0.00     0.000 C
ATOM     64  C5  Z9K D   4       3.821  46.553 -16.2610  0.00  0.00     0.000 C
ATOM     65  O5  Z9K D   4       2.571  46.533 -15.5220  0.00  0.00     0.000 O
ATOM     66   O  Z9K D   4       2.342  48.796 -18.8970  0.00  0.00     0.000 O
ATOM     67   C  Z9K D   4       1.135  49.111 -19.5710  0.00  0.00     0.000 C
BRANCH 61 68
ATOM     68   O  Z9K D   4       0.521  49.302 -16.4850  0.00  0.00     0.000 O
ATOM     69   O  Z9K D   4       2.027  51.270 -17.1250  0.00  0.00     0.000 OA
ATOM     70   S  Z9K D   4       1.214  50.711 -16.0870  0.00  0.00     0.000 S
ATOM     71   O  Z9K D   4       1.533  50.695 -14.6920  0.00  0.00     0.000 OA
ATOM     72   O  Z9K D   4      -0.154  51.079 -16.2570  0.00  0.00     0.000 OA
ENDBRANCH 61 68
BRANCH 64 73
ATOM     73   C  Z9K D   4       4.640  45.250 -16.3680  0.00  0.00     0.000 C
ATOM     74   O  Z9K D   4       4.113  44.123 -16.1360  0.00  0.00     0.000 O
ATOM     75   O  Z9K D   4       5.853  45.256 -16.6930  0.00  0.00     0.000 OA
ENDBRANCH 64 73
BRANCH 60 76
ATOM     76  O4  Z9L D   5       2.664  48.060 -13.9950  0.00  0.00     0.000 O
BRANCH 76 80
ATOM     77  C1  Z9L D   5       2.263  47.422 -10.0710  0.00  0.00     0.000 C
ATOM     78  C2  Z9L D   5       3.512  46.545 -10.5640  0.00  0.00     0.000 C
ATOM     79  C3  Z9L D   5       3.964  47.152 -12.0760  0.00  0.00     0.000 C
ATOM     80  C4  Z9L D   5       2.491  47.381 -12.7780  0.00  0.00     0.000 C
ATOM     81  C5  Z9L D   5       1.145  48.060 -12.2070  0.00  0.00     0.000 C
ATOM     82  O5  Z9L D   5       1.012  47.613 -10.8490  0.00  0.00     0.000 O
ATOM     83   C  Z9L D   5       1.739  49.611  -9.1620  0.00  0.00     0.000 C
ATOM     84   C  Z9L D   5       1.739  49.611  -9.1620  0.00  0.00     0.000 C
BRANCH 78 85
ATOM     85   O  Z9L D   5       4.556  46.738  -9.6640  0.00  0.00     0.000 O
ATOM     86   O  Z9L D   5       5.220  45.409  -8.4370  0.00  0.00     0.000 OA
ATOM     87   S  Z9L D   5       4.233  45.178  -9.4480  0.00  0.00     0.000 S
ATOM     88   O  Z9L D   5       4.875  44.314 -10.4070  0.00  0.00     0.000 OA
ATOM     89   O  Z9L D   5       3.037  44.871  -8.7420  0.00  0.00     0.000 OA
ENDBRANCH 78 85
BRANCH 79 90
ATOM     90   O  Z9L D   5       4.529  46.160 -12.8730  0.00  0.00     0.000 O
ATOM     91   S  Z9L D   5       5.736  47.198 -12.8440  0.00  0.00     0.000 S
ATOM     92   O  Z9L D   5       6.322  47.664 -11.6150  0.00  0.00     0.000 OA
ATOM     93   O  Z9L D   5       5.656  48.056 -14.0000  0.00  0.00     0.000 O
ATOM     94   O  Z9L D   5       6.453  46.028 -13.2370  0.00  0.00     0.000 OA
ENDBRANCH 79 90
BRANCH 81 95
ATOM     95   C  Z9L D   5      -0.210  48.030 -13.1940  0.00  0.00     0.000 C
ATOM     96   S  Z9L D   5      -1.919  47.083 -13.5820  0.00  0.00     0.000 S
ATOM     97   O  Z9L D   5      -0.476  46.655 -13.1190  0.00  0.00     0.000 O
ATOM     98   O  Z9L D   5      -1.816  47.452 -14.9710  0.00  0.00     0.000 OA
ATOM     99   O  Z9L D   5      -2.656  47.876 -12.6570  0.00  0.00     0.000 OA
ATOM    100   O  Z9L D   5      -2.128  45.658 -13.5030  0.00  0.00     0.000 O
ENDBRANCH 81 95
ENDBRANCH 76 80
ENDBRANCH 60 76
ENDBRANCH 59 63
ENDBRANCH 37 59
ENDBRANCH 36 40
ENDBRANCH 23 36
ENDBRANCH 22 26
ENDBRANCH 1 22
TORSDOF 19
ENDMDL
MODEL 19
REMARK VINA RESULT:      -7.3     19.348     24.391
ROOT
ATOM      1  C1  Z9H D   1      17.722   8.203 -55.3880  0.00  0.00     0.000 C
ATOM      2  C2  Z9H D   1      18.132   9.502 -56.1210  0.00  0.00     0.000 C
ATOM      3  C3  Z9H D   1      19.652   9.193 -56.2850  0.00  0.00     0.000 C
ATOM      4  C4  Z9H D   1      20.400   8.738 -54.9640  0.00  0.00     0.000 C
ATOM      5  C5  Z9H D   1      19.832   7.635 -53.9860  0.00  0.00     0.000 C
ATOM      6  O5  Z9H D   1      18.403   7.799 -54.1670  0.00  0.00     0.000 O
ATOM      7   O  Z9H D   1      20.346  10.279 -56.9010  0.00  0.00     0.000 O
ATOM      8   C  Z9H D   1      20.580  10.141 -58.3130  0.00  0.00     0.000 C
ATOM      9   O  Z9H D   1      21.698   8.304 -55.3820  0.00  0.00     0.000 O
ATOM     10   C  Z9H D   1      22.752   9.257 -55.2120  0.00  0.00     0.000 C
ENDROOT
BRANCH 2 11
ATOM     11   O  Z9H D   1      17.579   9.305 -57.3960  0.00  0.00     0.000 O
ATOM     12   O  Z9H D   1      16.176  10.342 -58.1130  0.00  0.00     0.000 OA
ATOM     13   S  Z9H D   1      16.779  10.561 -56.8420  0.00  0.00     0.000 S
ATOM     14   O  Z9H D   1      17.671  11.685 -56.8080  0.00  0.00     0.000 OA
ATOM     15   O  Z9H D   1      15.870  10.190 -55.7820  0.00  0.00     0.000 O
ENDBRANCH 2 11
BRANCH 5 16
ATOM     16   C  Z9H D   1      20.519   7.619 -52.4600  0.00  0.00     0.000 C
ATOM     17   S  Z9H D   1      21.441   6.461 -51.1000  0.00  0.00     0.000 S
ATOM     18   O  Z9H D   1      21.503   6.643 -52.7030  0.00  0.00     0.000 O
ATOM     19   O  Z9H D   1      20.216   5.904 -50.6030  0.00  0.00     0.000 O
ATOM     20   O  Z9H D   1      22.129   7.527 -50.4590  0.00  0.00     0.000 OA
ATOM     21   O  Z9H D   1      22.404   5.446 -51.4130  0.00  0.00     0.000 OA
ENDBRANCH 5 16
BRANCH 1 22
ATOM     22  O4  GU1 D   2      17.853   6.972 -56.1880  0.00  0.00     0.000 O
BRANCH 22 26
ATOM     23  C1  GU1 D   2      16.231   3.308 -57.1440  0.00  0.00     0.000 C
ATOM     24  C2  GU1 D   2      15.270   4.482 -57.2550  0.00  0.00     0.000 C
ATOM     25  C3  GU1 D   2      16.050   5.765 -57.2610  0.00  0.00     0.000 C
ATOM     26  C4  GU1 D   2      16.987   5.838 -56.0650  0.00  0.00     0.000 C
ATOM     27  C5  GU1 D   2      17.836   4.565 -55.9860  0.00  0.00     0.000 C
ATOM     28  O5  GU1 D   2      17.001   3.410 -55.9520  0.00  0.00     0.000 O
ATOM     29   O  GU1 D   2      14.496   4.425 -58.4470  0.00  0.00     0.000 O
ATOM     30   C  GU1 D   2      13.209   3.851 -58.2710  0.00  0.00     0.000 C
ATOM     31   C  GU1 D   2      14.887   7.524 -58.4220  0.00  0.00     0.000 C
ATOM     32   O  GU1 D   2      15.126   6.855 -57.1860  0.00  0.00     0.000 O
BRANCH 27 33
ATOM     33   C  GU1 D   2      18.691   4.555 -54.7410  0.00  0.00     0.000 C
ATOM     34   O  GU1 D   2      19.898   4.580 -54.8690  0.00  0.00     0.000 OA
ATOM     35   O  GU1 D   2      18.175   4.526 -53.6340  0.00  0.00     0.000 O
ENDBRANCH 27 33
BRANCH 23 36
ATOM     36  O4  GU6 D   3      15.726   1.986 -56.8710  0.00  0.00     0.000 O
BRANCH 36 40
ATOM     37  C1  GU6 D   3      13.646  -1.531 -56.8820  0.00  0.00     0.000 C
ATOM     38  C2  GU6 D   3      14.031  -1.044 -55.4910  0.00  0.00     0.000 C
ATOM     39  C3  GU6 D   3      14.543   0.370 -55.5740  0.00  0.00     0.000 C
ATOM     40  C4  GU6 D   3      14.790   0.928 -56.9080  0.00  0.00     0.000 C
ATOM     41  C5  GU6 D   3      15.385  -0.182 -57.8360  0.00  0.00     0.000 C
ATOM     42  O5  GU6 D   3      14.796  -1.482 -57.7120  0.00  0.00     0.000 O
BRANCH 38 43
ATOM     43   O  GU6 D   3      12.919  -1.104 -54.6180  0.00  0.00     0.000 O
ATOM     44   S  GU6 D   3      12.770  -2.429 -53.8800  0.00  0.00     0.000 S
ATOM     45   O  GU6 D   3      12.109  -3.392 -54.7770  0.00  0.00     0.000 OA
ATOM     46   O  GU6 D   3      14.113  -2.927 -53.5310  0.00  0.00     0.000 O
ATOM     47   O  GU6 D   3      11.988  -2.207 -52.6680  0.00  0.00     0.000 OA
ENDBRANCH 38 43
BRANCH 39 48
ATOM     48   O  GU6 D   3      14.561   1.205 -54.4320  0.00  0.00     0.000 O
ATOM     49   S  GU6 D   3      15.482   1.178 -53.2120  0.00  0.00     0.000 S
ATOM     50   O  GU6 D   3      16.884   1.255 -53.6360  0.00  0.00     0.000 OA
ATOM     51   O  GU6 D   3      15.084   2.380 -52.4680  0.00  0.00     0.000 OA
ATOM     52   O  GU6 D   3      15.248  -0.077 -52.4630  0.00  0.00     0.000 O
ENDBRANCH 39 48
BRANCH 41 53
ATOM     53   C  GU6 D   3      16.485  -0.074 -58.8570  0.00  0.00     0.000 C
ATOM     54   O  GU6 D   3      16.326  -1.340 -59.4440  0.00  0.00     0.000 O
ATOM     55   S  GU6 D   3      17.305  -1.827 -60.5210  0.00  0.00     0.000 S
ATOM     56   O  GU6 D   3      18.621  -1.988 -59.8610  0.00  0.00     0.000 O
ATOM     57   O  GU6 D   3      16.824  -3.114 -61.0430  0.00  0.00     0.000 OA
ATOM     58   O  GU6 D   3      17.360  -0.783 -61.5690  0.00  0.00     0.000 OA
ENDBRANCH 41 53
BRANCH 37 59
ATOM     59  O4  Z9K D   4      12.535  -1.031 -57.6570  0.00  0.00     0.000 O
BRANCH 59 63
ATOM     60  C1  Z9K D   4       9.000  -0.095 -59.0950  0.00  0.00     0.000 C
ATOM     61  C2  Z9K D   4       8.974   0.643 -57.7280  0.00  0.00     0.000 C
ATOM     62  C3  Z9K D   4      10.468   0.416 -57.2340  0.00  0.00     0.000 C
ATOM     63  C4  Z9K D   4      11.109  -1.019 -57.3610  0.00  0.00     0.000 C
ATOM     64  C5  Z9K D   4      10.535  -1.918 -58.4670  0.00  0.00     0.000 C
ATOM     65  O5  Z9K D   4      10.159  -0.965 -59.4950  0.00  0.00     0.000 O
ATOM     66   O  Z9K D   4      10.678   0.794 -55.8620  0.00  0.00     0.000 O
ATOM     67   C  Z9K D   4      10.970   2.169 -55.6710  0.00  0.00     0.000 C
BRANCH 61 68
ATOM     68   O  Z9K D   4       8.854   2.012 -58.0020  0.00  0.00     0.000 O
ATOM     69   O  Z9K D   4       7.685   1.401 -55.8090  0.00  0.00     0.000 OA
ATOM     70   S  Z9K D   4       7.484   1.712 -57.1930  0.00  0.00     0.000 S
ATOM     71   O  Z9K D   4       6.558   1.063 -58.0690  0.00  0.00     0.000 OA
ATOM     72   O  Z9K D   4       7.418   3.123 -57.3930  0.00  0.00     0.000 OA
ENDBRANCH 61 68
BRANCH 64 73
ATOM     73   C  Z9K D   4      11.527  -3.045 -58.8260  0.00  0.00     0.000 C
ATOM     74   O  Z9K D   4      12.169  -3.030 -59.9170  0.00  0.00     0.000 O
ATOM     75   O  Z9K D   4      11.738  -4.012 -58.0540  0.00  0.00     0.000 OA
ENDBRANCH 64 73
BRANCH 60 76
ATOM     76  O4  Z9L D   5       8.004  -0.964 -59.6610  0.00  0.00     0.000 O
BRANCH 76 80
ATOM     77  C1  Z9L D   5       5.904  -1.687 -62.9830  0.00  0.00     0.000 C
ATOM     78  C2  Z9L D   5       6.760  -3.007 -62.6730  0.00  0.00     0.000 C
ATOM     79  C3  Z9L D   5       7.274  -2.885 -61.0660  0.00  0.00     0.000 C
ATOM     80  C4  Z9L D   5       7.714  -1.299 -60.9930  0.00  0.00     0.000 C
ATOM     81  C5  Z9L D   5       6.960   0.028 -61.5130  0.00  0.00     0.000 C
ATOM     82  O5  Z9L D   5       6.400  -0.300 -62.7930  0.00  0.00     0.000 O
ATOM     83   C  Z9L D   5       3.729  -0.704 -62.5380  0.00  0.00     0.000 C
ATOM     84   C  Z9L D   5       3.729  -0.704 -62.5380  0.00  0.00     0.000 C
BRANCH 78 85
ATOM     85   O  Z9L D   5       5.919  -4.108 -62.8010  0.00  0.00     0.000 O
ATOM     86   O  Z9L D   5       6.084  -5.476 -64.1460  0.00  0.00     0.000 OA
ATOM     87   S  Z9L D   5       7.018  -4.413 -63.9330  0.00  0.00     0.000 S
ATOM     88   O  Z9L D   5       8.207  -5.055 -63.4300  0.00  0.00     0.000 OA
ATOM     89   O  Z9L D   5       6.953  -3.616 -65.1090  0.00  0.00     0.000 OA
ENDBRANCH 78 85
BRANCH 79 90
ATOM     90   O  Z9L D   5       8.484  -3.544 -60.8690  0.00  0.00     0.000 O
ATOM     91   S  Z9L D   5       7.587  -4.309 -59.7980  0.00  0.00     0.000 S
ATOM     92   O  Z9L D   5       6.363  -4.977 -60.1550  0.00  0.00     0.000 OA
ATOM     93   O  Z9L D   5       7.740  -3.680 -58.5100  0.00  0.00     0.000 O
ATOM     94   O  Z9L D   5       8.642  -5.261 -59.9300  0.00  0.00     0.000 OA
ENDBRANCH 79 90
BRANCH 81 95
ATOM     95   C  Z9L D   5       7.770   1.488 -61.3450  0.00  0.00     0.000 C
ATOM     96   S  Z9L D   5       7.685   3.445 -61.7030  0.00  0.00     0.000 S
ATOM     97   O  Z9L D   5       7.225   2.142 -62.4590  0.00  0.00     0.000 O
ATOM     98   O  Z9L D   5       9.121   3.496 -61.8030  0.00  0.00     0.000 OA
ATOM     99   O  Z9L D   5       7.018   3.717 -60.4750  0.00  0.00     0.000 OA
ATOM    100   O  Z9L D   5       7.124   4.062 -62.8800  0.00  0.00     0.000 O
ENDBRANCH 81 95
ENDBRANCH 76 80
ENDBRANCH 60 76
ENDBRANCH 59 63
ENDBRANCH 37 59
ENDBRANCH 36 40
ENDBRANCH 23 36
ENDBRANCH 22 26
ENDBRANCH 1 22
TORSDOF 19
ENDMDL
MODEL 20
REMARK VINA RESULT:      -7.3      3.904      7.599
ROOT
ATOM      1  C1  Z9H D   1       4.630  24.169 -56.1860  0.00  0.00     0.000 C
ATOM      2  C2  Z9H D   1       4.482  25.295 -57.2380  0.00  0.00     0.000 C
ATOM      3  C3  Z9H D   1       4.921  24.483 -58.4950  0.00  0.00     0.000 C
ATOM      4  C4  Z9H D   1       6.283  23.686 -58.3490  0.00  0.00     0.000 C
ATOM      5  C5  Z9H D   1       6.623  22.779 -57.1000  0.00  0.00     0.000 C
ATOM      6  O5  Z9H D   1       5.887  23.451 -56.0470  0.00  0.00     0.000 O
ATOM      7   O  Z9H D   1       4.947  25.301 -59.6670  0.00  0.00     0.000 O
ATOM      8   C  Z9H D   1       3.787  25.205 -60.5110  0.00  0.00     0.000 C
ATOM      9   O  Z9H D   1       6.375  22.857 -59.5120  0.00  0.00     0.000 O
ATOM     10   C  Z9H D   1       7.207  23.358 -60.5630  0.00  0.00     0.000 C
ENDROOT
BRANCH 2 11
ATOM     11   O  Z9H D   1       3.088  25.413 -57.3460  0.00  0.00     0.000 O
ATOM     12   O  Z9H D   1       2.113  26.952 -56.8580  0.00  0.00     0.000 OA
ATOM     13   S  Z9H D   1       3.532  26.836 -56.7980  0.00  0.00     0.000 S
ATOM     14   O  Z9H D   1       4.215  27.532 -57.8510  0.00  0.00     0.000 OA
ATOM     15   O  Z9H D   1       3.974  26.765 -55.4250  0.00  0.00     0.000 O
ENDBRANCH 2 11
BRANCH 5 16
ATOM     16   C  Z9H D   1       8.242  22.395 -56.9230  0.00  0.00     0.000 C
ATOM     17   S  Z9H D   1      10.111  23.128 -57.0240  0.00  0.00     0.000 S
ATOM     18   O  Z9H D   1       8.688  23.650 -56.4690  0.00  0.00     0.000 O
ATOM     19   O  Z9H D   1      10.188  22.993 -58.4510  0.00  0.00     0.000 O
ATOM     20   O  Z9H D   1      10.674  22.186 -56.1210  0.00  0.00     0.000 OA
ATOM     21   O  Z9H D   1      10.497  24.437 -56.5880  0.00  0.00     0.000 OA
ENDBRANCH 5 16
BRANCH 1 22
ATOM     22  O4  GU1 D   2       3.695  23.042 -56.3510  0.00  0.00     0.000 O
BRANCH 22 26
ATOM     23  C1  GU1 D   2       1.259  20.407 -54.3290  0.00  0.00     0.000 C
ATOM     24  C2  GU1 D   2       1.438  21.758 -53.6540  0.00  0.00     0.000 C
ATOM     25  C3  GU1 D   2       2.007  22.735 -54.6420  0.00  0.00     0.000 C
ATOM     26  C4  GU1 D   2       3.273  22.186 -55.2830  0.00  0.00     0.000 C
ATOM     27  C5  GU1 D   2       3.013  20.782 -55.8380  0.00  0.00     0.000 C
ATOM     28  O5  GU1 D   2       2.507  19.928 -54.8160  0.00  0.00     0.000 O
ATOM     29   O  GU1 D   2       0.205  22.280 -53.1730  0.00  0.00     0.000 O
ATOM     30   C  GU1 D   2      -0.027  22.026 -51.7950  0.00  0.00     0.000 C
ATOM     31   C  GU1 D   2       1.400  25.005 -54.1210  0.00  0.00     0.000 C
ATOM     32   O  GU1 D   2       2.333  23.943 -53.9460  0.00  0.00     0.000 O
BRANCH 27 33
ATOM     33   C  GU1 D   2       4.282  20.163 -56.3730  0.00  0.00     0.000 C
ATOM     34   O  GU1 D   2       4.354  19.929 -57.5630  0.00  0.00     0.000 OA
ATOM     35   O  GU1 D   2       5.212  19.908 -55.6250  0.00  0.00     0.000 O
ENDBRANCH 27 33
BRANCH 23 36
ATOM     36  O4  GU6 D   3       0.961  19.240 -53.5370  0.00  0.00     0.000 O
BRANCH 36 40
ATOM     37  C1  GU6 D   3       0.801  15.157 -53.5140  0.00  0.00     0.000 C
ATOM     38  C2  GU6 D   3       2.195  15.723 -53.2730  0.00  0.00     0.000 C
ATOM     39  C3  GU6 D   3       2.102  17.207 -53.0300  0.00  0.00     0.000 C
ATOM     40  C4  GU6 D   3       0.812  17.858 -53.2780  0.00  0.00     0.000 C
ATOM     41  C5  GU6 D   3       0.139  17.222 -54.5390  0.00  0.00     0.000 C
ATOM     42  O5  GU6 D   3       0.243  15.798 -54.6510  0.00  0.00     0.000 O
BRANCH 38 43
ATOM     43   O  GU6 D   3       2.804  15.089 -52.1650  0.00  0.00     0.000 O
ATOM     44   S  GU6 D   3       4.141  14.427 -52.4740  0.00  0.00     0.000 S
ATOM     45   O  GU6 D   3       3.882  13.108 -53.0770  0.00  0.00     0.000 OA
ATOM     46   O  GU6 D   3       4.872  15.271 -53.4370  0.00  0.00     0.000 O
ATOM     47   O  GU6 D   3       4.904  14.306 -51.2360  0.00  0.00     0.000 OA
ENDBRANCH 38 43
BRANCH 39 48
ATOM     48   O  GU6 D   3       3.143  17.901 -52.3690  0.00  0.00     0.000 O
ATOM     49   S  GU6 D   3       3.239  18.378 -50.9200  0.00  0.00     0.000 S
ATOM     50   O  GU6 D   3       3.030  17.251 -50.0030  0.00  0.00     0.000 OA
ATOM     51   O  GU6 D   3       4.612  18.890 -50.8280  0.00  0.00     0.000 OA
ATOM     52   O  GU6 D   3       2.211  19.417 -50.6890  0.00  0.00     0.000 O
ENDBRANCH 39 48
BRANCH 41 53
ATOM     53   C  GU6 D   3      -0.621  17.897 -55.6490  0.00  0.00     0.000 C
ATOM     54   O  GU6 D   3       0.440  18.018 -56.5600  0.00  0.00     0.000 O
ATOM     55   S  GU6 D   3       0.247  18.768 -57.8850  0.00  0.00     0.000 S
ATOM     56   O  GU6 D   3       0.011  20.189 -57.5410  0.00  0.00     0.000 O
ATOM     57   O  GU6 D   3       1.470  18.624 -58.6870  0.00  0.00     0.000 OA
ATOM     58   O  GU6 D   3      -0.934  18.179 -58.5550  0.00  0.00     0.000 OA
ENDBRANCH 41 53
BRANCH 37 59
ATOM     59  O4  Z9K D   4      -0.240  15.065 -52.5190  0.00  0.00     0.000 O
BRANCH 59 63
ATOM     60  C1  Z9K D   4      -2.259  14.137 -49.2770  0.00  0.00     0.000 C
ATOM     61  C2  Z9K D   4      -1.684  15.527 -48.8860  0.00  0.00     0.000 C
ATOM     62  C3  Z9K D   4      -1.025  15.978 -50.2620  0.00  0.00     0.000 C
ATOM     63  C4  Z9K D   4      -0.150  14.945 -51.0690  0.00  0.00     0.000 C
ATOM     64  C5  Z9K D   4      -0.476  13.461 -50.8420  0.00  0.00     0.000 C
ATOM     65  O5  Z9K D   4      -1.905  13.481 -50.5840  0.00  0.00     0.000 O
ATOM     66   O  Z9K D   4      -0.197  17.148 -50.1380  0.00  0.00     0.000 O
ATOM     67   C  Z9K D   4      -0.900  18.376 -50.2300  0.00  0.00     0.000 C
BRANCH 61 68
ATOM     68   O  Z9K D   4      -2.777  16.378 -48.6750  0.00  0.00     0.000 O
ATOM     69   O  Z9K D   4      -0.796  17.027 -47.1900  0.00  0.00     0.000 OA
ATOM     70   S  Z9K D   4      -2.070  16.372 -47.2180  0.00  0.00     0.000 S
ATOM     71   O  Z9K D   4      -2.399  15.153 -46.5460  0.00  0.00     0.000 OA
ATOM     72   O  Z9K D   4      -3.129  17.312 -47.0420  0.00  0.00     0.000 OA
ENDBRANCH 61 68
BRANCH 64 73
ATOM     73   C  Z9K D   4       0.056  12.598 -52.0040  0.00  0.00     0.000 C
ATOM     74   O  Z9K D   4       1.251  12.181 -52.0180  0.00  0.00     0.000 O
ATOM     75   O  Z9K D   4      -0.672  12.271 -52.9730  0.00  0.00     0.000 OA
ENDBRANCH 64 73
BRANCH 60 76
ATOM     76  O4  Z9L D   5      -2.228  12.913 -48.5240  0.00  0.00     0.000 O
BRANCH 76 80
ATOM     77  C1  Z9L D   5      -4.425   9.852 -47.1910  0.00  0.00     0.000 C
ATOM     78  C2  Z9L D   5      -3.375   9.252 -48.2440  0.00  0.00     0.000 C
ATOM     79  C3  Z9L D   5      -2.173  10.425 -48.4520  0.00  0.00     0.000 C
ATOM     80  C4  Z9L D   5      -3.082  11.797 -48.5310  0.00  0.00     0.000 C
ATOM     81  C5  Z9L D   5      -4.303  12.307 -47.6090  0.00  0.00     0.000 C
ATOM     82  O5  Z9L D   5      -5.119  11.156 -47.3470  0.00  0.00     0.000 O
ATOM     83   C  Z9L D   5      -4.672  10.286 -44.8150  0.00  0.00     0.000 C
ATOM     84   C  Z9L D   5      -4.672  10.286 -44.8150  0.00  0.00     0.000 C
BRANCH 78 85
ATOM     85   O  Z9L D   5      -2.807   8.111 -47.6850  0.00  0.00     0.000 O
ATOM     86   O  Z9L D   5      -3.111   6.310 -48.2960  0.00  0.00     0.000 OA
ATOM     87   S  Z9L D   5      -3.592   7.493 -48.9440  0.00  0.00     0.000 S
ATOM     88   O  Z9L D   5      -2.855   7.568 -50.1810  0.00  0.00     0.000 OA
ATOM     89   O  Z9L D   5      -5.008   7.429 -48.8370  0.00  0.00     0.000 OA
ENDBRANCH 78 85
BRANCH 79 90
ATOM     90   O  Z9L D   5      -1.615  10.358 -49.7260  0.00  0.00     0.000 O
ATOM     91   S  Z9L D   5      -0.311  10.098 -48.8490  0.00  0.00     0.000 S
ATOM     92   O  Z9L D   5      -0.231   9.033 -47.8850  0.00  0.00     0.000 OA
ATOM     93   O  Z9L D   5       0.375  11.348 -48.6320  0.00  0.00     0.000 O
ATOM     94   O  Z9L D   5       0.147   9.576 -50.0960  0.00  0.00     0.000 OA
ENDBRANCH 79 90
BRANCH 81 95
ATOM     95   C  Z9L D   5      -5.058  13.737 -48.0560  0.00  0.00     0.000 C
ATOM     96   S  Z9L D   5      -6.644  14.903 -47.7500  0.00  0.00     0.000 S
ATOM     97   O  Z9L D   5      -6.379  13.351 -47.7900  0.00  0.00     0.000 O
ATOM     98   O  Z9L D   5      -6.570  15.371 -49.1100  0.00  0.00     0.000 OA
ATOM     99   O  Z9L D   5      -6.013  15.611 -46.6880  0.00  0.00     0.000 OA
ATOM    100   O  Z9L D   5      -7.988  14.446 -47.4980  0.00  0.00     0.000 O
ENDBRANCH 81 95
ENDBRANCH 76 80
ENDBRANCH 60 76
ENDBRANCH 59 63
ENDBRANCH 37 59
ENDBRANCH 36 40
ENDBRANCH 23 36
ENDBRANCH 22 26
ENDBRANCH 1 22
TORSDOF 19
ENDMDL
MODEL 21
REMARK VINA RESULT:      -7.3     13.029     21.329
ROOT
ATOM      1  C1  Z9H D   1       4.677   7.903 -46.2890  0.00  0.00     0.000 C
ATOM      2  C2  Z9H D   1       3.774   7.805 -45.0360  0.00  0.00     0.000 C
ATOM      3  C3  Z9H D   1       2.391   7.834 -45.7560  0.00  0.00     0.000 C
ATOM      4  C4  Z9H D   1       2.196   9.006 -46.8050  0.00  0.00     0.000 C
ATOM      5  C5  Z9H D   1       3.271   9.368 -47.9060  0.00  0.00     0.000 C
ATOM      6  O5  Z9H D   1       4.502   8.989 -47.2410  0.00  0.00     0.000 O
ATOM      7   O  Z9H D   1       1.311   7.818 -44.8210  0.00  0.00     0.000 O
ATOM      8   C  Z9H D   1       0.710   6.532 -44.5950  0.00  0.00     0.000 C
ATOM      9   O  Z9H D   1       0.972   8.715 -47.4890  0.00  0.00     0.000 O
ATOM     10   C  Z9H D   1      -0.178   9.431 -47.0280  0.00  0.00     0.000 C
ENDROOT
BRANCH 2 11
ATOM     11   O  Z9H D   1       3.957   6.469 -44.6480  0.00  0.00     0.000 O
ATOM     12   O  Z9H D   1       4.810   5.936 -43.0520  0.00  0.00     0.000 OA
ATOM     13   S  Z9H D   1       4.576   7.288 -43.4350  0.00  0.00     0.000 S
ATOM     14   O  Z9H D   1       3.503   7.916 -42.7200  0.00  0.00     0.000 OA
ATOM     15   O  Z9H D   1       5.817   7.929 -43.8040  0.00  0.00     0.000 O
ENDBRANCH 2 11
BRANCH 5 16
ATOM     16   C  Z9H D   1       3.089  10.878 -48.6040  0.00  0.00     0.000 C
ATOM     17   S  Z9H D   1       3.430  11.958 -50.2640  0.00  0.00     0.000 S
ATOM     18   O  Z9H D   1       2.937  10.456 -49.9380  0.00  0.00     0.000 O
ATOM     19   O  Z9H D   1       4.796  12.232 -49.9200  0.00  0.00     0.000 O
ATOM     20   O  Z9H D   1       2.371  12.881 -50.0460  0.00  0.00     0.000 OA
ATOM     21   O  Z9H D   1       3.304  11.457 -51.6020  0.00  0.00     0.000 OA
ENDBRANCH 5 16
BRANCH 1 22
ATOM     22  O4  GU1 D   2       4.609   6.741 -47.1930  0.00  0.00     0.000 O
BRANCH 22 26
ATOM     23  C1  GU1 D   2       6.762   4.159 -49.5740  0.00  0.00     0.000 C
ATOM     24  C2  GU1 D   2       7.428   4.518 -48.2540  0.00  0.00     0.000 C
ATOM     25  C3  GU1 D   2       6.411   5.130 -47.3340  0.00  0.00     0.000 C
ATOM     26  C4  GU1 D   2       5.698   6.292 -48.0090  0.00  0.00     0.000 C
ATOM     27  C5  GU1 D   2       5.155   5.855 -49.3730  0.00  0.00     0.000 C
ATOM     28  O5  GU1 D   2       6.203   5.320 -50.1770  0.00  0.00     0.000 O
ATOM     29   O  GU1 D   2       7.981   3.377 -47.6090  0.00  0.00     0.000 O
ATOM     30   C  GU1 D   2       9.369   3.197 -47.8490  0.00  0.00     0.000 C
ATOM     31   C  GU1 D   2       6.970   4.796 -45.0170  0.00  0.00     0.000 C
ATOM     32   O  GU1 D   2       7.089   5.621 -46.1740  0.00  0.00     0.000 O
BRANCH 27 33
ATOM     33   C  GU1 D   2       4.547   7.019 -50.1180  0.00  0.00     0.000 C
ATOM     34   O  GU1 D   2       3.362   6.981 -50.3800  0.00  0.00     0.000 OA
ATOM     35   O  GU1 D   2       5.234   7.975 -50.4430  0.00  0.00     0.000 O
ENDBRANCH 27 33
BRANCH 23 36
ATOM     36  O4  GU6 D   3       7.567   3.785 -50.7090  0.00  0.00     0.000 O
BRANCH 36 40
ATOM     37  C1  GU6 D   3      10.350   1.331 -52.4200  0.00  0.00     0.000 C
ATOM     38  C2  GU6 D   3       9.473   0.643 -51.3820  0.00  0.00     0.000 C
ATOM     39  C3  GU6 D   3       8.321   1.543 -51.0170  0.00  0.00     0.000 C
ATOM     40  C4  GU6 D   3       8.355   2.925 -51.5070  0.00  0.00     0.000 C
ATOM     41  C5  GU6 D   3       9.823   3.462 -51.4550  0.00  0.00     0.000 C
ATOM     42  O5  GU6 D   3      10.840   2.542 -51.8670  0.00  0.00     0.000 O
BRANCH 38 43
ATOM     43   O  GU6 D   3       8.985  -0.588 -51.8790  0.00  0.00     0.000 O
ATOM     44   S  GU6 D   3       9.289  -1.790 -50.9940  0.00  0.00     0.000 S
ATOM     45   O  GU6 D   3      10.667  -2.235 -51.2650  0.00  0.00     0.000 OA
ATOM     46   O  GU6 D   3       9.176  -1.376 -49.5840  0.00  0.00     0.000 O
ATOM     47   O  GU6 D   3       8.322  -2.844 -51.2840  0.00  0.00     0.000 OA
ENDBRANCH 38 43
BRANCH 39 48
ATOM     48   O  GU6 D   3       7.147   1.017 -50.4280  0.00  0.00     0.000 O
ATOM     49   S  GU6 D   3       5.819   0.622 -51.0720  0.00  0.00     0.000 S
ATOM     50   O  GU6 D   3       6.048  -0.350 -52.1480  0.00  0.00     0.000 OA
ATOM     51   O  GU6 D   3       5.077   0.015 -49.9580  0.00  0.00     0.000 OA
ATOM     52   O  GU6 D   3       5.169   1.835 -51.6150  0.00  0.00     0.000 O
ENDBRANCH 39 48
BRANCH 41 53
ATOM     53   C  GU6 D   3      10.320   4.822 -51.0440  0.00  0.00     0.000 C
ATOM     54   O  GU6 D   3       9.802   5.550 -52.1270  0.00  0.00     0.000 O
ATOM     55   S  GU6 D   3      10.117   7.043 -52.2840  0.00  0.00     0.000 S
ATOM     56   O  GU6 D   3      11.571   7.148 -52.5480  0.00  0.00     0.000 O
ATOM     57   O  GU6 D   3       9.344   7.569 -53.4190  0.00  0.00     0.000 OA
ATOM     58   O  GU6 D   3       9.759   7.704 -51.0090  0.00  0.00     0.000 OA
ENDBRANCH 41 53
BRANCH 37 59
ATOM     59  O4  Z9K D   4       9.959   1.608 -53.7820  0.00  0.00     0.000 O
BRANCH 59 63
ATOM     60  C1  Z9K D   4       9.336   0.779 -57.5730  0.00  0.00     0.000 C
ATOM     61  C2  Z9K D   4      10.228  -0.419 -57.1460  0.00  0.00     0.000 C
ATOM     62  C3  Z9K D   4      10.324  -0.179 -55.5770  0.00  0.00     0.000 C
ATOM     63  C4  Z9K D   4      10.617   1.273 -55.0380  0.00  0.00     0.000 C
ATOM     64  C5  Z9K D   4      10.188   2.431 -55.9530  0.00  0.00     0.000 C
ATOM     65  O5  Z9K D   4       9.014   1.897 -56.6190  0.00  0.00     0.000 O
ATOM     66   O  Z9K D   4      11.300  -1.016 -54.9320  0.00  0.00     0.000 O
ATOM     67   C  Z9K D   4      10.822  -2.301 -54.5670  0.00  0.00     0.000 C
BRANCH 61 68
ATOM     68   O  Z9K D   4       9.466  -1.582 -57.3200  0.00  0.00     0.000 O
ATOM     69   O  Z9K D   4      11.950  -2.031 -57.7410  0.00  0.00     0.000 OA
ATOM     70   S  Z9K D   4      10.680  -1.817 -58.3670  0.00  0.00     0.000 S
ATOM     71   O  Z9K D   4      10.446  -1.026 -59.5360  0.00  0.00     0.000 OA
ATOM     72   O  Z9K D   4       9.948  -3.039 -58.4650  0.00  0.00     0.000 OA
ENDBRANCH 61 68
BRANCH 64 73
ATOM     73   C  Z9K D   4      10.054   3.743 -55.1510  0.00  0.00     0.000 C
ATOM     74   O  Z9K D   4      11.075   4.374 -54.7510  0.00  0.00     0.000 O
ATOM     75   O  Z9K D   4       8.933   4.235 -54.8720  0.00  0.00     0.000 OA
ENDBRANCH 64 73
BRANCH 60 76
ATOM     76  O4  Z9L D   5       9.483   1.642 -58.7140  0.00  0.00     0.000 O
BRANCH 76 80
ATOM     77  C1  Z9L D   5       7.543   3.388 -61.7400  0.00  0.00     0.000 C
ATOM     78  C2  Z9L D   5       8.068   4.560 -60.7790  0.00  0.00     0.000 C
ATOM     79  C3  Z9L D   5       9.252   3.878 -59.7820  0.00  0.00     0.000 C
ATOM     80  C4  Z9L D   5       8.552   2.435 -59.4030  0.00  0.00     0.000 C
ATOM     81  C5  Z9L D   5       7.812   1.346 -60.3340  0.00  0.00     0.000 C
ATOM     82  O5  Z9L D   5       7.007   2.088 -61.2620  0.00  0.00     0.000 O
ATOM     83   C  Z9L D   5       8.213   2.111 -63.6930  0.00  0.00     0.000 C
ATOM     84   C  Z9L D   5       8.213   2.111 -63.6930  0.00  0.00     0.000 C
BRANCH 78 85
ATOM     85   O  Z9L D   5       8.652   5.542 -61.5750  0.00  0.00     0.000 O
ATOM     86   O  Z9L D   5       7.862   7.250 -61.9840  0.00  0.00     0.000 OA
ATOM     87   S  Z9L D   5       7.324   6.291 -61.0670  0.00  0.00     0.000 S
ATOM     88   O  Z9L D   5       7.461   6.899 -59.7670  0.00  0.00     0.000 OA
ATOM     89   O  Z9L D   5       6.096   5.867 -61.6470  0.00  0.00     0.000 OA
ENDBRANCH 78 85
BRANCH 79 90
ATOM     90   O  Z9L D   5       9.308   4.520 -58.5490  0.00  0.00     0.000 O
ATOM     91   S  Z9L D   5      10.823   4.692 -59.0080  0.00  0.00     0.000 S
ATOM     92   O  Z9L D   5      11.185   5.319 -60.2520  0.00  0.00     0.000 OA
ATOM     93   O  Z9L D   5      11.611   3.615 -58.4630  0.00  0.00     0.000 O
ATOM     94   O  Z9L D   5      10.769   5.718 -58.0170  0.00  0.00     0.000 OA
ENDBRANCH 79 90
BRANCH 81 95
ATOM     95   C  Z9L D   5       7.131   0.018 -59.5700  0.00  0.00     0.000 C
ATOM     96   S  Z9L D   5       5.452  -0.736 -58.8070  0.00  0.00     0.000 S
ATOM     97   O  Z9L D   5       6.114   0.691 -58.8780  0.00  0.00     0.000 O
ATOM     98   O  Z9L D   5       6.218  -1.502 -57.8580  0.00  0.00     0.000 OA
ATOM     99   O  Z9L D   5       5.046  -1.293 -60.0540  0.00  0.00     0.000 OA
ATOM    100   O  Z9L D   5       4.447   0.006 -58.0880  0.00  0.00     0.000 O
ENDBRANCH 81 95
ENDBRANCH 76 80
ENDBRANCH 60 76
ENDBRANCH 59 63
ENDBRANCH 37 59
ENDBRANCH 36 40
ENDBRANCH 23 36
ENDBRANCH 22 26
ENDBRANCH 1 22
TORSDOF 19
ENDMDL
MODEL 22
REMARK VINA RESULT:      -7.3      2.087      4.711
ROOT
ATOM      1  C1  Z9H D   1       1.255  27.001 -61.2450  0.00  0.00     0.000 C
ATOM      2  C2  Z9H D   1       0.937  28.475 -61.5950  0.00  0.00     0.000 C
ATOM      3  C3  Z9H D   1      -0.417  28.241 -62.3310  0.00  0.00     0.000 C
ATOM      4  C4  Z9H D   1      -0.395  27.129 -63.4590  0.00  0.00     0.000 C
ATOM      5  C5  Z9H D   1       0.242  25.697 -63.2490  0.00  0.00     0.000 C
ATOM      6  O5  Z9H D   1       1.288  25.987 -62.2870  0.00  0.00     0.000 O
ATOM      7   O  Z9H D   1      -0.953  29.461 -62.8470  0.00  0.00     0.000 O
ATOM      8   C  Z9H D   1      -1.965  30.081 -62.0360  0.00  0.00     0.000 C
ATOM      9   O  Z9H D   1      -1.761  26.931 -63.8380  0.00  0.00     0.000 O
ATOM     10   C  Z9H D   1      -2.175  27.609 -65.0290  0.00  0.00     0.000 C
ENDROOT
BRANCH 2 11
ATOM     11   O  Z9H D   1       0.587  29.003 -60.3430  0.00  0.00     0.000 O
ATOM     12   O  Z9H D   1       1.594  30.306 -59.4230  0.00  0.00     0.000 OA
ATOM     13   S  Z9H D   1       1.912  29.797 -60.7150  0.00  0.00     0.000 S
ATOM     14   O  Z9H D   1       1.610  30.702 -61.7860  0.00  0.00     0.000 OA
ATOM     15   O  Z9H D   1       3.079  28.948 -60.6480  0.00  0.00     0.000 O
ENDBRANCH 2 11
BRANCH 5 16
ATOM     16   C  Z9H D   1       0.564  24.851 -64.6560  0.00  0.00     0.000 C
ATOM     17   S  Z9H D   1       0.940  25.039 -66.6210  0.00  0.00     0.000 S
ATOM     18   O  Z9H D   1       1.384  25.812 -65.2750  0.00  0.00     0.000 O
ATOM     19   O  Z9H D   1      -0.445  25.182 -66.9700  0.00  0.00     0.000 O
ATOM     20   O  Z9H D   1       1.651  23.814 -66.7400  0.00  0.00     0.000 OA
ATOM     21   O  Z9H D   1       1.748  26.072 -67.2000  0.00  0.00     0.000 OA
ENDBRANCH 5 16
BRANCH 1 22
ATOM     22  O4  GU1 D   2       0.320  26.376 -60.2930  0.00  0.00     0.000 O
BRANCH 22 26
ATOM     23  C1  GU1 D   2       0.110  23.660 -57.2030  0.00  0.00     0.000 C
ATOM     24  C2  GU1 D   2       1.490  24.255 -57.4390  0.00  0.00     0.000 C
ATOM     25  C3  GU1 D   2       1.364  25.477 -58.3010  0.00  0.00     0.000 C
ATOM     26  C4  GU1 D   2       0.592  25.166 -59.5760  0.00  0.00     0.000 C
ATOM     27  C5  GU1 D   2      -0.732  24.477 -59.2320  0.00  0.00     0.000 C
ATOM     28  O5  GU1 D   2      -0.499  23.315 -58.4410  0.00  0.00     0.000 O
ATOM     29   O  GU1 D   2       2.122  24.633 -56.2220  0.00  0.00     0.000 O
ATOM     30   C  GU1 D   2       3.023  23.658 -55.7150  0.00  0.00     0.000 C
ATOM     31   C  GU1 D   2       3.154  27.041 -57.9220  0.00  0.00     0.000 C
ATOM     32   O  GU1 D   2       2.678  25.916 -58.6580  0.00  0.00     0.000 O
BRANCH 27 33
ATOM     33   C  GU1 D   2      -1.465  24.048 -60.4810  0.00  0.00     0.000 C
ATOM     34   O  GU1 D   2      -0.902  23.297 -61.2510  0.00  0.00     0.000 OA
ATOM     35   O  GU1 D   2      -2.597  24.446 -60.7040  0.00  0.00     0.000 O
ENDBRANCH 27 33
BRANCH 23 36
ATOM     36  O4  GU6 D   3      -0.020  22.351 -56.6140  0.00  0.00     0.000 O
BRANCH 36 40
ATOM     37  C1  GU6 D   3      -0.504  19.903 -53.3790  0.00  0.00     0.000 C
ATOM     38  C2  GU6 D   3      -1.381  19.535 -54.5690  0.00  0.00     0.000 C
ATOM     39  C3  GU6 D   3      -0.937  20.311 -55.7810  0.00  0.00     0.000 C
ATOM     40  C4  GU6 D   3       0.040  21.387 -55.5820  0.00  0.00     0.000 C
ATOM     41  C5  GU6 D   3      -0.266  22.129 -54.2390  0.00  0.00     0.000 C
ATOM     42  O5  GU6 D   3      -0.633  21.295 -53.1340  0.00  0.00     0.000 O
BRANCH 38 43
ATOM     43   O  GU6 D   3      -1.308  18.147 -54.8310  0.00  0.00     0.000 O
ATOM     44   S  GU6 D   3      -2.577  17.375 -54.4920  0.00  0.00     0.000 S
ATOM     45   O  GU6 D   3      -2.582  17.095 -53.0460  0.00  0.00     0.000 OA
ATOM     46   O  GU6 D   3      -3.742  18.212 -54.8330  0.00  0.00     0.000 O
ATOM     47   O  GU6 D   3      -2.601  16.143 -55.2730  0.00  0.00     0.000 OA
ENDBRANCH 38 43
BRANCH 39 48
ATOM     48   O  GU6 D   3      -1.268  19.873 -57.0850  0.00  0.00     0.000 O
ATOM     49   S  GU6 D   3      -0.412  19.146 -58.1220  0.00  0.00     0.000 S
ATOM     50   O  GU6 D   3       0.141  17.914 -57.5460  0.00  0.00     0.000 OA
ATOM     51   O  GU6 D   3      -1.370  18.847 -59.1950  0.00  0.00     0.000 OA
ATOM     52   O  GU6 D   3       0.685  20.041 -58.5520  0.00  0.00     0.000 O
ENDBRANCH 39 48
BRANCH 41 53
ATOM     53   C  GU6 D   3      -0.214  23.602 -53.9380  0.00  0.00     0.000 C
ATOM     54   O  GU6 D   3       0.577  23.533 -52.7800  0.00  0.00     0.000 O
ATOM     55   S  GU6 D   3       0.864  24.796 -51.9560  0.00  0.00     0.000 S
ATOM     56   O  GU6 D   3      -0.430  25.237 -51.3860  0.00  0.00     0.000 O
ATOM     57   O  GU6 D   3       1.813  24.452 -50.8880  0.00  0.00     0.000 OA
ATOM     58   O  GU6 D   3       1.410  25.810 -52.8850  0.00  0.00     0.000 OA
ENDBRANCH 41 53
BRANCH 37 59
ATOM     59  O4  Z9K D   4       0.895  19.571 -53.2460  0.00  0.00     0.000 O
BRANCH 59 63
ATOM     60  C1  Z9K D   4       0.748  16.981 -50.2930  0.00  0.00     0.000 C
ATOM     61  C2  Z9K D   4       1.129  18.282 -49.5340  0.00  0.00     0.000 C
ATOM     62  C3  Z9K D   4       1.006  19.358 -50.6990  0.00  0.00     0.000 C
ATOM     63  C4  Z9K D   4       1.634  19.038 -52.1090  0.00  0.00     0.000 C
ATOM     64  C5  Z9K D   4       1.761  17.550 -52.4690  0.00  0.00     0.000 C
ATOM     65  O5  Z9K D   4       0.622  16.956 -51.7920  0.00  0.00     0.000 O
ATOM     66   O  Z9K D   4       1.538  20.646 -50.3420  0.00  0.00     0.000 O
ATOM     67   C  Z9K D   4       0.625  21.487 -49.6550  0.00  0.00     0.000 C
BRANCH 61 68
ATOM     68   O  Z9K D   4       0.088  18.554 -48.6360  0.00  0.00     0.000 O
ATOM     69   O  Z9K D   4       2.348  19.281 -47.6810  0.00  0.00     0.000 OA
ATOM     70   S  Z9K D   4       1.330  18.275 -47.6350  0.00  0.00     0.000 S
ATOM     71   O  Z9K D   4       1.552  16.864 -47.5490  0.00  0.00     0.000 OA
ATOM     72   O  Z9K D   4       0.287  18.647 -46.7340  0.00  0.00     0.000 OA
ENDBRANCH 61 68
BRANCH 64 73
ATOM     73   C  Z9K D   4       1.898  17.363 -53.9940  0.00  0.00     0.000 C
ATOM     74   O  Z9K D   4       2.648  18.116 -54.6820  0.00  0.00     0.000 O
ATOM     75   O  Z9K D   4       1.280  16.460 -54.6080  0.00  0.00     0.000 OA
ENDBRANCH 64 73
BRANCH 60 76
ATOM     76  O4  Z9L D   5       1.363  15.684 -50.2090  0.00  0.00     0.000 O
BRANCH 76 80
ATOM     77  C1  Z9L D   5       0.780  11.775 -50.8040  0.00  0.00     0.000 C
ATOM     78  C2  Z9L D   5       1.924  12.240 -51.8270  0.00  0.00     0.000 C
ATOM     79  C3  Z9L D   5       2.489  13.737 -51.2760  0.00  0.00     0.000 C
ATOM     80  C4  Z9L D   5       1.075  14.476 -50.8650  0.00  0.00     0.000 C
ATOM     81  C5  Z9L D   5      -0.192  13.936 -50.0260  0.00  0.00     0.000 C
ATOM     82  O5  Z9L D   5      -0.416  12.585 -50.4570  0.00  0.00     0.000 O
ATOM     83   C  Z9L D   5       0.506  10.867 -48.5700  0.00  0.00     0.000 C
ATOM     84   C  Z9L D   5       0.506  10.867 -48.5700  0.00  0.00     0.000 C
BRANCH 78 85
ATOM     85   O  Z9L D   5       2.959  11.312 -51.7680  0.00  0.00     0.000 O
ATOM     86   O  Z9L D   5       3.387  10.041 -53.1510  0.00  0.00     0.000 OA
ATOM     87   S  Z9L D   5       2.407  11.078 -53.2580  0.00  0.00     0.000 S
ATOM     88   O  Z9L D   5       2.943  12.001 -54.2280  0.00  0.00     0.000 OA
ATOM     89   O  Z9L D   5       1.159  10.404 -53.3730  0.00  0.00     0.000 OA
ENDBRANCH 78 85
BRANCH 79 90
ATOM     90   O  Z9L D   5       2.947  14.524 -52.3290  0.00  0.00     0.000 O
ATOM     91   S  Z9L D   5       4.213  14.603 -51.3650  0.00  0.00     0.000 S
ATOM     92   O  Z9L D   5       4.895  13.427 -50.8910  0.00  0.00     0.000 OA
ATOM     93   O  Z9L D   5       4.116  15.785 -50.5450  0.00  0.00     0.000 O
ATOM     94   O  Z9L D   5       4.837  14.989 -52.5890  0.00  0.00     0.000 OA
ENDBRANCH 79 90
BRANCH 81 95
ATOM     95   C  Z9L D   5      -1.514  14.960 -49.8860  0.00  0.00     0.000 C
ATOM     96   S  Z9L D   5      -3.082  15.444 -48.7580  0.00  0.00     0.000 S
ATOM     97   O  Z9L D   5      -2.341  14.108 -49.1390  0.00  0.00     0.000 O
ATOM     98   O  Z9L D   5      -3.804  15.867 -49.9310  0.00  0.00     0.000 OA
ATOM     99   O  Z9L D   5      -2.331  16.368 -47.9770  0.00  0.00     0.000 OA
ATOM    100   O  Z9L D   5      -3.909  14.519 -48.0230  0.00  0.00     0.000 O
ENDBRANCH 81 95
ENDBRANCH 76 80
ENDBRANCH 60 76
ENDBRANCH 59 63
ENDBRANCH 37 59
ENDBRANCH 36 40
ENDBRANCH 23 36
ENDBRANCH 22 26
ENDBRANCH 1 22
TORSDOF 19
ENDMDL
MODEL 23
REMARK VINA RESULT:      -7.2     40.784     46.891
ROOT
ATOM      1  C1  Z9H D   1       7.432  42.812 -24.7520  0.00  0.00     0.000 C
ATOM      2  C2  Z9H D   1       8.610  42.849 -25.7540  0.00  0.00     0.000 C
ATOM      3  C3  Z9H D   1       7.821  43.341 -27.0060  0.00  0.00     0.000 C
ATOM      4  C4  Z9H D   1       6.502  42.529 -27.3390  0.00  0.00     0.000 C
ATOM      5  C5  Z9H D   1       5.414  42.163 -26.2520  0.00  0.00     0.000 C
ATOM      6  O5  Z9H D   1       6.229  42.053 -25.0570  0.00  0.00     0.000 O
ATOM      7   O  Z9H D   1       8.661  43.419 -28.1600  0.00  0.00     0.000 O
ATOM      8   C  Z9H D   1       9.165  44.730 -28.4670  0.00  0.00     0.000 C
ATOM      9   O  Z9H D   1       5.838  43.271 -28.3680  0.00  0.00     0.000 O
ATOM     10   C  Z9H D   1       6.031  42.788 -29.7010  0.00  0.00     0.000 C
ENDROOT
BRANCH 2 11
ATOM     11   O  Z9H D   1       9.332  43.970 -25.3140  0.00  0.00     0.000 O
ATOM     12   O  Z9H D   1      11.080  43.894 -24.6090  0.00  0.00     0.000 OA
ATOM     13   S  Z9H D   1      10.355  42.773 -25.1030  0.00  0.00     0.000 S
ATOM     14   O  Z9H D   1      10.792  42.321 -26.3930  0.00  0.00     0.000 OA
ATOM     15   O  Z9H D   1       9.953  41.913 -24.0140  0.00  0.00     0.000 O
ENDBRANCH 2 11
BRANCH 5 16
ATOM     16   C  Z9H D   1       4.350  40.950 -26.6940  0.00  0.00     0.000 C
ATOM     17   S  Z9H D   1       3.884  39.639 -28.1450  0.00  0.00     0.000 S
ATOM     18   O  Z9H D   1       5.243  40.181 -27.4630  0.00  0.00     0.000 O
ATOM     19   O  Z9H D   1       3.173  40.611 -28.9260  0.00  0.00     0.000 O
ATOM     20   O  Z9H D   1       3.241  38.709 -27.2850  0.00  0.00     0.000 OA
ATOM     21   O  Z9H D   1       4.843  38.919 -28.9300  0.00  0.00     0.000 OA
ENDBRANCH 5 16
BRANCH 1 22
ATOM     22  O4  GU1 D   2       6.846  44.127 -24.4360  0.00  0.00     0.000 O
BRANCH 22 26
ATOM     23  C1  GU1 D   2       5.637  45.901 -20.9200  0.00  0.00     0.000 C
ATOM     24  C2  GU1 D   2       5.938  44.413 -20.8150  0.00  0.00     0.000 C
ATOM     25  C3  GU1 D   2       6.717  43.978 -22.0220  0.00  0.00     0.000 C
ATOM     26  C4  GU1 D   2       6.004  44.381 -23.3050  0.00  0.00     0.000 C
ATOM     27  C5  GU1 D   2       5.655  45.871 -23.2640  0.00  0.00     0.000 C
ATOM     28  O5  GU1 D   2       4.890  46.172 -22.1000  0.00  0.00     0.000 O
ATOM     29   O  GU1 D   2       6.704  44.106 -19.6570  0.00  0.00     0.000 O
ATOM     30   C  GU1 D   2       5.926  43.660 -18.5550  0.00  0.00     0.000 C
ATOM     31   C  GU1 D   2       8.104  42.065 -21.5620  0.00  0.00     0.000 C
ATOM     32   O  GU1 D   2       6.835  42.552 -21.9930  0.00  0.00     0.000 O
BRANCH 27 33
ATOM     33   C  GU1 D   2       4.840  46.275 -24.4700  0.00  0.00     0.000 C
ATOM     34   O  GU1 D   2       5.320  47.069 -25.2520  0.00  0.00     0.000 OA
ATOM     35   O  GU1 D   2       3.727  45.807 -24.6520  0.00  0.00     0.000 O
ENDBRANCH 27 33
BRANCH 23 36
ATOM     36  O4  GU6 D   3       4.695  46.511 -20.0150  0.00  0.00     0.000 O
BRANCH 36 40
ATOM     37  C1  GU6 D   3       2.701  48.068 -16.8060  0.00  0.00     0.000 C
ATOM     38  C2  GU6 D   3       1.980  46.906 -17.4790  0.00  0.00     0.000 C
ATOM     39  C3  GU6 D   3       2.907  46.237 -18.4600  0.00  0.00     0.000 C
ATOM     40  C4  GU6 D   3       4.179  46.903 -18.7590  0.00  0.00     0.000 C
ATOM     41  C5  GU6 D   3       3.959  48.451 -18.8130  0.00  0.00     0.000 C
ATOM     42  O5  GU6 D   3       3.097  48.994 -17.8060  0.00  0.00     0.000 O
BRANCH 38 43
ATOM     43   O  GU6 D   3       1.539  45.970 -16.5150  0.00  0.00     0.000 O
ATOM     44   S  GU6 D   3       0.103  46.175 -16.0500  0.00  0.00     0.000 S
ATOM     45   O  GU6 D   3       0.090  47.229 -15.0210  0.00  0.00     0.000 OA
ATOM     46   O  GU6 D   3      -0.708  46.606 -17.2030  0.00  0.00     0.000 O
ATOM     47   O  GU6 D   3      -0.406  44.913 -15.5240  0.00  0.00     0.000 OA
ENDBRANCH 38 43
BRANCH 39 48
ATOM     48   O  GU6 D   3       2.669  44.911 -18.8950  0.00  0.00     0.000 O
ATOM     49   S  GU6 D   3       1.722  44.389 -19.9740  0.00  0.00     0.000 S
ATOM     50   O  GU6 D   3       1.993  45.056 -21.2520  0.00  0.00     0.000 OA
ATOM     51   O  GU6 D   3       2.051  42.958 -20.0410  0.00  0.00     0.000 OA
ATOM     52   O  GU6 D   3       0.326  44.648 -19.5540  0.00  0.00     0.000 O
ENDBRANCH 39 48
BRANCH 41 53
ATOM     53   C  GU6 D   3       4.539  49.457 -19.7690  0.00  0.00     0.000 C
ATOM     54   O  GU6 D   3       3.795  49.095 -20.9030  0.00  0.00     0.000 O
ATOM     55   S  GU6 D   3       4.073  49.755 -22.2600  0.00  0.00     0.000 S
ATOM     56   O  GU6 D   3       5.432  49.332 -22.6710  0.00  0.00     0.000 O
ATOM     57   O  GU6 D   3       3.068  49.284 -23.2250  0.00  0.00     0.000 OA
ATOM     58   O  GU6 D   3       4.010  51.220 -22.0570  0.00  0.00     0.000 OA
ENDBRANCH 41 53
BRANCH 37 59
ATOM     59  O4  Z9K D   4       3.803  47.936 -15.8830  0.00  0.00     0.000 O
BRANCH 59 63
ATOM     60  C1  Z9K D   4       2.498  49.421 -12.4860  0.00  0.00     0.000 C
ATOM     61  C2  Z9K D   4       3.050  50.697 -13.1800  0.00  0.00     0.000 C
ATOM     62  C3  Z9K D   4       3.407  50.126 -14.6200  0.00  0.00     0.000 C
ATOM     63  C4  Z9K D   4       4.173  48.754 -14.7350  0.00  0.00     0.000 C
ATOM     64  C5  Z9K D   4       3.987  47.778 -13.5630  0.00  0.00     0.000 C
ATOM     65  O5  Z9K D   4       2.635  48.063 -13.1170  0.00  0.00     0.000 O
ATOM     66   O  Z9K D   4       4.171  51.044 -15.4230  0.00  0.00     0.000 O
ATOM     67   C  Z9K D   4       3.390  51.986 -16.1400  0.00  0.00     0.000 C
BRANCH 61 68
ATOM     68   O  Z9K D   4       1.968  51.569 -13.3580  0.00  0.00     0.000 O
ATOM     69   O  Z9K D   4       4.148  52.860 -12.9910  0.00  0.00     0.000 OA
ATOM     70   S  Z9K D   4       2.930  52.425 -12.3750  0.00  0.00     0.000 S
ATOM     71   O  Z9K D   4       2.800  51.921 -11.0420  0.00  0.00     0.000 OA
ATOM     72   O  Z9K D   4       1.869  53.342 -12.6420  0.00  0.00     0.000 OA
ENDBRANCH 61 68
BRANCH 64 73
ATOM     73   C  Z9K D   4       4.340  46.336 -13.9870  0.00  0.00     0.000 C
ATOM     74   O  Z9K D   4       5.522  46.018 -14.3070  0.00  0.00     0.000 O
ATOM     75   O  Z9K D   4       3.475  45.428 -14.0260  0.00  0.00     0.000 OA
ENDBRANCH 64 73
BRANCH 60 76
ATOM     76  O4  Z9L D   5       2.745  48.951 -11.1500  0.00  0.00     0.000 O
BRANCH 76 80
ATOM     77  C1  Z9L D   5       1.047  47.400  -7.8810  0.00  0.00     0.000 C
ATOM     78  C2  Z9L D   5       2.044  46.287  -8.4660  0.00  0.00     0.000 C
ATOM     79  C3  Z9L D   5       3.081  47.081  -9.5410  0.00  0.00     0.000 C
ATOM     80  C4  Z9L D   5       2.024  48.071 -10.3270  0.00  0.00     0.000 C
ATOM     81  C5  Z9L D   5       0.855  49.027  -9.7610  0.00  0.00     0.000 C
ATOM     82  O5  Z9L D   5       0.202  48.292  -8.7160  0.00  0.00     0.000 O
ATOM     83   C  Z9L D   5       1.000  49.243  -6.3030  0.00  0.00     0.000 C
ATOM     84   C  Z9L D   5       1.000  49.243  -6.3030  0.00  0.00     0.000 C
BRANCH 78 85
ATOM     85   O  Z9L D   5       2.789  45.775  -7.4080  0.00  0.00     0.000 O
ATOM     86   O  Z9L D   5       2.625  43.991  -6.7000  0.00  0.00     0.000 OA
ATOM     87   S  Z9L D   5       1.953  44.481  -7.8650  0.00  0.00     0.000 S
ATOM     88   O  Z9L D   5       2.547  43.766  -8.9680  0.00  0.00     0.000 OA
ATOM     89   O  Z9L D   5       0.570  44.470  -7.5330  0.00  0.00     0.000 OA
ENDBRANCH 78 85
BRANCH 79 90
ATOM     90   O  Z9L D   5       3.509  46.229 -10.5560  0.00  0.00     0.000 O
ATOM     91   S  Z9L D   5       4.915  46.593  -9.9020  0.00  0.00     0.000 S
ATOM     92   O  Z9L D   5       5.194  46.378  -8.5060  0.00  0.00     0.000 OA
ATOM     93   O  Z9L D   5       5.498  47.704 -10.6120  0.00  0.00     0.000 O
ATOM     94   O  Z9L D   5       5.290  45.405 -10.5970  0.00  0.00     0.000 OA
ENDBRANCH 79 90
BRANCH 81 95
ATOM     95   C  Z9L D   5      -0.095  49.830 -10.8870  0.00  0.00     0.000 C
ATOM     96   S  Z9L D   5      -1.789  49.758 -11.9320  0.00  0.00     0.000 S
ATOM     97   O  Z9L D   5      -0.719  48.708 -11.4510  0.00  0.00     0.000 O
ATOM     98   O  Z9L D   5      -1.177  50.519 -12.9900  0.00  0.00     0.000 OA
ATOM     99   O  Z9L D   5      -2.540  50.393 -10.9010  0.00  0.00     0.000 OA
ATOM    100   O  Z9L D   5      -2.375  48.571 -12.5040  0.00  0.00     0.000 O
ENDBRANCH 81 95
ENDBRANCH 76 80
ENDBRANCH 60 76
ENDBRANCH 59 63
ENDBRANCH 37 59
ENDBRANCH 36 40
ENDBRANCH 23 36
ENDBRANCH 22 26
ENDBRANCH 1 22
TORSDOF 19
ENDMDL
MODEL 24
REMARK VINA RESULT:      -7.2      9.719     17.618
ROOT
ATOM      1  C1  Z9H D   1      10.412   3.885 -50.6860  0.00  0.00     0.000 C
ATOM      2  C2  Z9H D   1      11.606   3.451 -49.8030  0.00  0.00     0.000 C
ATOM      3  C3  Z9H D   1      12.564   4.639 -50.1260  0.00  0.00     0.000 C
ATOM      4  C4  Z9H D   1      12.768   4.948 -51.6660  0.00  0.00     0.000 C
ATOM      5  C5  Z9H D   1      11.570   5.060 -52.6910  0.00  0.00     0.000 C
ATOM      6  O5  Z9H D   1      10.603   4.154 -52.1030  0.00  0.00     0.000 O
ATOM      7   O  Z9H D   1      13.828   4.486 -49.4780  0.00  0.00     0.000 O
ATOM      8   C  Z9H D   1      13.986   5.222 -48.2530  0.00  0.00     0.000 C
ATOM      9   O  Z9H D   1      13.490   6.183 -51.7230  0.00  0.00     0.000 O
ATOM     10   C  Z9H D   1      14.900   6.064 -51.9370  0.00  0.00     0.000 C
ENDROOT
BRANCH 2 11
ATOM     11   O  Z9H D   1      11.123   3.712 -48.5110  0.00  0.00     0.000 O
ATOM     12   O  Z9H D   1      10.732   2.377 -47.2370  0.00  0.00     0.000 OA
ATOM     13   S  Z9H D   1      11.267   2.130 -48.5340  0.00  0.00     0.000 S
ATOM     14   O  Z9H D   1      12.664   1.804 -48.5320  0.00  0.00     0.000 OA
ATOM     15   O  Z9H D   1      10.271   1.515 -49.3810  0.00  0.00     0.000 O
ENDBRANCH 2 11
BRANCH 5 16
ATOM     16   C  Z9H D   1      12.003   4.945 -54.3030  0.00  0.00     0.000 C
ATOM     17   S  Z9H D   1      11.462   4.191 -56.0860  0.00  0.00     0.000 S
ATOM     18   O  Z9H D   1      10.706   4.899 -54.8480  0.00  0.00     0.000 O
ATOM     19   O  Z9H D   1      11.993   2.888 -55.8040  0.00  0.00     0.000 O
ATOM     20   O  Z9H D   1      12.153   5.163 -56.8590  0.00  0.00     0.000 OA
ATOM     21   O  Z9H D   1      10.113   4.127 -56.5680  0.00  0.00     0.000 OA
ENDBRANCH 5 16
BRANCH 1 22
ATOM     22  O4  GU1 D   2       9.751   5.133 -50.2640  0.00  0.00     0.000 O
BRANCH 22 26
ATOM     23  C1  GU1 D   2       6.165   7.158 -50.1550  0.00  0.00     0.000 C
ATOM     24  C2  GU1 D   2       6.049   5.645 -50.0500  0.00  0.00     0.000 C
ATOM     25  C3  GU1 D   2       7.393   5.065 -49.7170  0.00  0.00     0.000 C
ATOM     26  C4  GU1 D   2       8.450   5.541 -50.7030  0.00  0.00     0.000 C
ATOM     27  C5  GU1 D   2       8.414   7.069 -50.8130  0.00  0.00     0.000 C
ATOM     28  O5  GU1 D   2       7.105   7.513 -51.1630  0.00  0.00     0.000 O
ATOM     29   O  GU1 D   2       5.131   5.252 -49.0360  0.00  0.00     0.000 O
ATOM     30   C  GU1 D   2       3.829   4.958 -49.5210  0.00  0.00     0.000 C
ATOM     31   C  GU1 D   2       7.209   2.973 -48.5410  0.00  0.00     0.000 C
ATOM     32   O  GU1 D   2       7.302   3.639 -49.7980  0.00  0.00     0.000 O
BRANCH 27 33
ATOM     33   C  GU1 D   2       9.369   7.563 -51.8730  0.00  0.00     0.000 C
ATOM     34   O  GU1 D   2       9.149   7.271 -53.0300  0.00  0.00     0.000 OA
ATOM     35   O  GU1 D   2      10.336   8.244 -51.5680  0.00  0.00     0.000 O
ENDBRANCH 27 33
BRANCH 23 36
ATOM     36  O4  GU6 D   3       5.077   7.928 -50.7030  0.00  0.00     0.000 O
BRANCH 36 40
ATOM     37  C1  GU6 D   3       1.038   8.256 -51.2280  0.00  0.00     0.000 C
ATOM     38  C2  GU6 D   3       1.456   8.007 -49.7840  0.00  0.00     0.000 C
ATOM     39  C3  GU6 D   3       2.947   8.174 -49.6540  0.00  0.00     0.000 C
ATOM     40  C4  GU6 D   3       3.728   8.307 -50.8890  0.00  0.00     0.000 C
ATOM     41  C5  GU6 D   3       3.132   7.368 -51.9890  0.00  0.00     0.000 C
ATOM     42  O5  GU6 D   3       1.703   7.318 -52.0590  0.00  0.00     0.000 O
BRANCH 38 43
ATOM     43   O  GU6 D   3       0.793   8.903 -48.9130  0.00  0.00     0.000 O
ATOM     44   S  GU6 D   3      -0.208   8.241 -47.9730  0.00  0.00     0.000 S
ATOM     45   O  GU6 D   3      -1.469   8.031 -48.7050  0.00  0.00     0.000 OA
ATOM     46   O  GU6 D   3       0.336   6.939 -47.5480  0.00  0.00     0.000 O
ATOM     47   O  GU6 D   3      -0.404   9.104 -46.8130  0.00  0.00     0.000 OA
ENDBRANCH 38 43
BRANCH 39 48
ATOM     48   O  GU6 D   3       3.544   8.425 -48.3960  0.00  0.00     0.000 O
ATOM     49   S  GU6 D   3       3.850   9.753 -47.7040  0.00  0.00     0.000 S
ATOM     50   O  GU6 D   3       2.630  10.562 -47.6000  0.00  0.00     0.000 OA
ATOM     51   O  GU6 D   3       4.324   9.335 -46.3780  0.00  0.00     0.000 OA
ATOM     52   O  GU6 D   3       4.873  10.479 -48.4890  0.00  0.00     0.000 O
ENDBRANCH 39 48
BRANCH 41 53
ATOM     53   C  GU6 D   3       3.852   6.516 -52.9990  0.00  0.00     0.000 C
ATOM     54   O  GU6 D   3       2.983   5.413 -52.9720  0.00  0.00     0.000 O
ATOM     55   S  GU6 D   3       3.312   4.144 -53.7700  0.00  0.00     0.000 S
ATOM     56   O  GU6 D   3       4.527   3.557 -53.1570  0.00  0.00     0.000 O
ATOM     57   O  GU6 D   3       2.177   3.216 -53.6630  0.00  0.00     0.000 OA
ATOM     58   O  GU6 D   3       3.568   4.557 -55.1680  0.00  0.00     0.000 OA
ENDBRANCH 41 53
BRANCH 37 59
ATOM     59  O4  Z9K D   4       1.089   9.534 -51.8970  0.00  0.00     0.000 O
BRANCH 59 63
ATOM     60  C1  Z9K D   4      -1.445  12.093 -50.3230  0.00  0.00     0.000 C
ATOM     61  C2  Z9K D   4      -2.397  11.216 -51.1820  0.00  0.00     0.000 C
ATOM     62  C3  Z9K D   4      -1.401  10.076 -51.6680  0.00  0.00     0.000 C
ATOM     63  C4  Z9K D   4       0.024  10.480 -52.2060  0.00  0.00     0.000 C
ATOM     64  C5  Z9K D   4       0.596  11.803 -51.6760  0.00  0.00     0.000 C
ATOM     65  O5  Z9K D   4       0.044  11.878 -50.3350  0.00  0.00     0.000 O
ATOM     66   O  Z9K D   4      -1.958   9.232 -52.6920  0.00  0.00     0.000 O
ATOM     67   C  Z9K D   4      -2.737   8.153 -52.2030  0.00  0.00     0.000 C
BRANCH 61 68
ATOM     68   O  Z9K D   4      -3.299  10.603 -50.3020  0.00  0.00     0.000 O
ATOM     69   O  Z9K D   4      -4.365  10.994 -52.5950  0.00  0.00     0.000 OA
ATOM     70   S  Z9K D   4      -4.290  11.469 -51.2460  0.00  0.00     0.000 S
ATOM     71   O  Z9K D   4      -4.235  12.841 -50.8450  0.00  0.00     0.000 OA
ATOM     72   O  Z9K D   4      -5.203  10.764 -50.4060  0.00  0.00     0.000 OA
ENDBRANCH 61 68
BRANCH 64 73
ATOM     73   C  Z9K D   4       2.129  11.849 -51.8510  0.00  0.00     0.000 C
ATOM     74   O  Z9K D   4       2.904  11.772 -50.8540  0.00  0.00     0.000 O
ATOM     75   O  Z9K D   4       2.662  11.957 -52.9820  0.00  0.00     0.000 OA
ENDBRANCH 64 73
BRANCH 60 76
ATOM     76  O4  Z9L D   5      -1.353  13.527 -50.2700  0.00  0.00     0.000 O
BRANCH 76 80
ATOM     77  C1  Z9L D   5      -1.370  16.692 -47.8310  0.00  0.00     0.000 C
ATOM     78  C2  Z9L D   5       0.082  16.629 -48.5080  0.00  0.00     0.000 C
ATOM     79  C3  Z9L D   5      -0.051  15.606 -49.8490  0.00  0.00     0.000 C
ATOM     80  C4  Z9L D   5      -0.983  14.396 -49.2310  0.00  0.00     0.000 C
ATOM     81  C5  Z9L D   5      -2.329  14.449 -48.3460  0.00  0.00     0.000 C
ATOM     82  O5  Z9L D   5      -2.143  15.503 -47.3900  0.00  0.00     0.000 O
ATOM     83   C  Z9L D   5      -3.560  17.686 -48.1600  0.00  0.00     0.000 C
ATOM     84   C  Z9L D   5      -3.560  17.686 -48.1600  0.00  0.00     0.000 C
BRANCH 78 85
ATOM     85   O  Z9L D   5       0.413  17.909 -48.9420  0.00  0.00     0.000 O
ATOM     86   O  Z9L D   5       1.742  19.044 -48.1320  0.00  0.00     0.000 OA
ATOM     87   S  Z9L D   5       1.488  17.683 -47.7690  0.00  0.00     0.000 S
ATOM     88   O  Z9L D   5       2.662  16.958 -48.1880  0.00  0.00     0.000 OA
ATOM     89   O  Z9L D   5       0.992  17.737 -46.4370  0.00  0.00     0.000 OA
ENDBRANCH 78 85
BRANCH 79 90
ATOM     90   O  Z9L D   5       1.152  14.958 -50.1140  0.00  0.00     0.000 O
ATOM     91   S  Z9L D   5       0.957  15.732 -51.4910  0.00  0.00     0.000 S
ATOM     92   O  Z9L D   5       0.789  17.160 -51.5550  0.00  0.00     0.000 OA
ATOM     93   O  Z9L D   5       0.301  14.865 -52.4380  0.00  0.00     0.000 O
ATOM     94   O  Z9L D   5       2.357  15.467 -51.5770  0.00  0.00     0.000 OA
ENDBRANCH 79 90
BRANCH 81 95
ATOM     95   C  Z9L D   5      -2.957  12.988 -47.8130  0.00  0.00     0.000 C
ATOM     96   S  Z9L D   5      -3.399  11.898 -46.2050  0.00  0.00     0.000 S
ATOM     97   O  Z9L D   5      -2.254  12.904 -46.6020  0.00  0.00     0.000 O
ATOM     98   O  Z9L D   5      -3.164  10.688 -46.9520  0.00  0.00     0.000 OA
ATOM     99   O  Z9L D   5      -4.703  12.457 -46.0910  0.00  0.00     0.000 OA
ATOM    100   O  Z9L D   5      -2.625  11.839 -44.9890  0.00  0.00     0.000 O
ENDBRANCH 81 95
ENDBRANCH 76 80
ENDBRANCH 60 76
ENDBRANCH 59 63
ENDBRANCH 37 59
ENDBRANCH 36 40
ENDBRANCH 23 36
ENDBRANCH 22 26
ENDBRANCH 1 22
TORSDOF 19
ENDMDL
MODEL 25
REMARK VINA RESULT:      -7.2      2.487     13.563
ROOT
ATOM      1  C1  Z9H D   1      -1.142  13.759 -51.6960  0.00  0.00     0.000 C
ATOM      2  C2  Z9H D   1      -2.119  13.068 -50.7150  0.00  0.00     0.000 C
ATOM      3  C3  Z9H D   1      -1.066  12.515 -49.7060  0.00  0.00     0.000 C
ATOM      4  C4  Z9H D   1       0.135  11.709 -50.3520  0.00  0.00     0.000 C
ATOM      5  C5  Z9H D   1       0.955  12.231 -51.5990  0.00  0.00     0.000 C
ATOM      6  O5  Z9H D   1      -0.050  13.009 -52.2970  0.00  0.00     0.000 O
ATOM      7   O  Z9H D   1      -1.682  11.745 -48.6720  0.00  0.00     0.000 O
ATOM      8   C  Z9H D   1      -1.904  12.441 -47.4340  0.00  0.00     0.000 C
ATOM      9   O  Z9H D   1       1.072  11.491 -49.2920  0.00  0.00     0.000 O
ATOM     10   C  Z9H D   1       1.019  10.200 -48.6770  0.00  0.00     0.000 C
ENDROOT
BRANCH 2 11
ATOM     11   O  Z9H D   1      -2.705  14.166 -50.0660  0.00  0.00     0.000 O
ATOM     12   O  Z9H D   1      -4.522  14.648 -50.2300  0.00  0.00     0.000 OA
ATOM     13   S  Z9H D   1      -3.925  13.509 -50.8440  0.00  0.00     0.000 S
ATOM     14   O  Z9H D   1      -4.252  12.267 -50.2040  0.00  0.00     0.000 OA
ATOM     15   O  Z9H D   1      -3.816  13.706 -52.2710  0.00  0.00     0.000 O
ENDBRANCH 2 11
BRANCH 5 16
ATOM     16   C  Z9H D   1       1.859  11.067 -52.3910  0.00  0.00     0.000 C
ATOM     17   S  Z9H D   1       2.020   9.096 -52.7540  0.00  0.00     0.000 S
ATOM     18   O  Z9H D   1       0.814  10.166 -52.6660  0.00  0.00     0.000 O
ATOM     19   O  Z9H D   1       2.675   8.823 -51.5080  0.00  0.00     0.000 O
ATOM     20   O  Z9H D   1       2.716   9.243 -53.9850  0.00  0.00     0.000 OA
ATOM     21   O  Z9H D   1       0.911   8.217 -52.9810  0.00  0.00     0.000 OA
ENDBRANCH 5 16
BRANCH 1 22
ATOM     22  O4  GU1 D   2      -0.404  14.903 -51.1330  0.00  0.00     0.000 O
BRANCH 22 26
ATOM     23  C1  GU1 D   2       1.151  18.625 -51.9650  0.00  0.00     0.000 C
ATOM     24  C2  GU1 D   2      -0.110  18.272 -52.7370  0.00  0.00     0.000 C
ATOM     25  C3  GU1 D   2      -0.780  17.097 -52.0860  0.00  0.00     0.000 C
ATOM     26  C4  GU1 D   2       0.194  15.940 -51.9200  0.00  0.00     0.000 C
ATOM     27  C5  GU1 D   2       1.470  16.424 -51.2250  0.00  0.00     0.000 C
ATOM     28  O5  GU1 D   2       2.042  17.517 -51.9390  0.00  0.00     0.000 O
ATOM     29   O  GU1 D   2      -1.036  19.352 -52.7660  0.00  0.00     0.000 O
ATOM     30   C  GU1 D   2      -0.965  20.139 -53.9460  0.00  0.00     0.000 C
ATOM     31   C  GU1 D   2      -3.154  17.073 -52.4830  0.00  0.00     0.000 C
ATOM     32   O  GU1 D   2      -1.859  16.670 -52.9230  0.00  0.00     0.000 O
BRANCH 27 33
ATOM     33   C  GU1 D   2       2.504  15.325 -51.1540  0.00  0.00     0.000 C
ATOM     34   O  GU1 D   2       2.758  14.840 -50.0710  0.00  0.00     0.000 OA
ATOM     35   O  GU1 D   2       3.066  14.935 -52.1660  0.00  0.00     0.000 O
ENDBRANCH 27 33
BRANCH 23 36
ATOM     36  O4  GU6 D   3       2.102  19.555 -52.5220  0.00  0.00     0.000 O
BRANCH 36 40
ATOM     37  C1  GU6 D   3       3.868  22.536 -54.6870  0.00  0.00     0.000 C
ATOM     38  C2  GU6 D   3       4.841  21.477 -54.1830  0.00  0.00     0.000 C
ATOM     39  C3  GU6 D   3       4.072  20.301 -53.6420  0.00  0.00     0.000 C
ATOM     40  C4  GU6 D   3       2.621  20.449 -53.4850  0.00  0.00     0.000 C
ATOM     41  C5  GU6 D   3       2.294  21.898 -52.9930  0.00  0.00     0.000 C
ATOM     42  O5  GU6 D   3       3.050  22.950 -53.6050  0.00  0.00     0.000 O
BRANCH 38 43
ATOM     43   O  GU6 D   3       5.701  21.055 -55.2240  0.00  0.00     0.000 O
ATOM     44   S  GU6 D   3       7.185  21.173 -54.9010  0.00  0.00     0.000 S
ATOM     45   O  GU6 D   3       7.605  22.567 -55.1290  0.00  0.00     0.000 OA
ATOM     46   O  GU6 D   3       7.387  20.827 -53.4820  0.00  0.00     0.000 O
ATOM     47   O  GU6 D   3       7.927  20.248 -55.7520  0.00  0.00     0.000 OA
ENDBRANCH 38 43
BRANCH 39 48
ATOM     48   O  GU6 D   3       4.683  19.031 -53.5130  0.00  0.00     0.000 O
ATOM     49   S  GU6 D   3       4.660  17.831 -54.4590  0.00  0.00     0.000 S
ATOM     50   O  GU6 D   3       5.127  18.229 -55.7920  0.00  0.00     0.000 OA
ATOM     51   O  GU6 D   3       5.597  16.892 -53.8270  0.00  0.00     0.000 OA
ATOM     52   O  GU6 D   3       3.277  17.311 -54.5420  0.00  0.00     0.000 O
ENDBRANCH 39 48
BRANCH 41 53
ATOM     53   C  GU6 D   3       1.282  22.347 -51.9740  0.00  0.00     0.000 C
ATOM     54   O  GU6 D   3       1.246  23.706 -52.3260  0.00  0.00     0.000 O
ATOM     55   S  GU6 D   3       0.421  24.702 -51.5010  0.00  0.00     0.000 S
ATOM     56   O  GU6 D   3       1.054  24.777 -50.1640  0.00  0.00     0.000 O
ATOM     57   O  GU6 D   3       0.462  26.011 -52.1690  0.00  0.00     0.000 OA
ATOM     58   O  GU6 D   3      -0.954  24.163 -51.4090  0.00  0.00     0.000 OA
ENDBRANCH 41 53
BRANCH 37 59
ATOM     59  O4  Z9K D   4       3.014  22.392 -55.8420  0.00  0.00     0.000 O
BRANCH 59 63
ATOM     60  C1  Z9K D   4       1.012  24.239 -58.6750  0.00  0.00     0.000 C
ATOM     61  C2  Z9K D   4       0.870  25.246 -57.5010  0.00  0.00     0.000 C
ATOM     62  C3  Z9K D   4       1.831  24.587 -56.4200  0.00  0.00     0.000 C
ATOM     63  C4  Z9K D   4       1.745  23.034 -56.1610  0.00  0.00     0.000 C
ATOM     64  C5  Z9K D   4       1.232  22.182 -57.3320  0.00  0.00     0.000 C
ATOM     65  O5  Z9K D   4       1.703  22.915 -58.4940  0.00  0.00     0.000 O
ATOM     66   O  Z9K D   4       1.718  25.185 -55.1170  0.00  0.00     0.000 O
ATOM     67   C  Z9K D   4       2.523  26.337 -54.9290  0.00  0.00     0.000 C
BRANCH 61 68
ATOM     68   O  Z9K D   4       1.490  26.437 -57.9040  0.00  0.00     0.000 O
ATOM     69   O  Z9K D   4      -0.481  26.902 -56.3390  0.00  0.00     0.000 OA
ATOM     70   S  Z9K D   4      -0.047  26.910 -57.7040  0.00  0.00     0.000 S
ATOM     71   O  Z9K D   4      -0.818  26.478 -58.8290  0.00  0.00     0.000 OA
ATOM     72   O  Z9K D   4       0.613  28.135 -58.0220  0.00  0.00     0.000 OA
ENDBRANCH 61 68
BRANCH 64 73
ATOM     73   C  Z9K D   4       1.653  20.707 -57.1640  0.00  0.00     0.000 C
ATOM     74   O  Z9K D   4       2.757  20.285 -57.6150  0.00  0.00     0.000 O
ATOM     75   O  Z9K D   4       0.924  19.875 -56.5720  0.00  0.00     0.000 OA
ENDBRANCH 64 73
BRANCH 60 76
ATOM     76  O4  Z9L D   5      -0.017  23.714 -59.5320  0.00  0.00     0.000 O
BRANCH 76 80
ATOM     77  C1  Z9L D   5      -1.002  23.040 -63.3460  0.00  0.00     0.000 C
ATOM     78  C2  Z9L D   5      -0.936  21.612 -62.6190  0.00  0.00     0.000 C
ATOM     79  C3  Z9L D   5      -0.980  21.912 -60.9550  0.00  0.00     0.000 C
ATOM     80  C4  Z9L D   5       0.035  23.204 -60.8400  0.00  0.00     0.000 C
ATOM     81  C5  Z9L D   5       0.129  24.553 -61.7190  0.00  0.00     0.000 C
ATOM     82  O5  Z9L D   5      -0.061  24.159 -63.0860  0.00  0.00     0.000 O
ATOM     83   C  Z9L D   5      -2.573  24.812 -63.8780  0.00  0.00     0.000 C
ATOM     84   C  Z9L D   5      -2.573  24.812 -63.8780  0.00  0.00     0.000 C
BRANCH 78 85
ATOM     85   O  Z9L D   5      -2.069  20.889 -62.9820  0.00  0.00     0.000 O
ATOM     86   O  Z9L D   5      -2.072  19.331 -64.1140  0.00  0.00     0.000 OA
ATOM     87   S  Z9L D   5      -0.901  20.001 -63.6370  0.00  0.00     0.000 S
ATOM     88   O  Z9L D   5      -0.289  19.075 -62.7160  0.00  0.00     0.000 OA
ATOM     89   O  Z9L D   5      -0.275  20.534 -64.7980  0.00  0.00     0.000 OA
ENDBRANCH 78 85
BRANCH 79 90
ATOM     90   O  Z9L D   5      -0.299  20.928 -60.2440  0.00  0.00     0.000 O
ATOM     91   S  Z9L D   5      -1.741  20.787 -59.5810  0.00  0.00     0.000 S
ATOM     92   O  Z9L D   5      -2.925  20.535 -60.3590  0.00  0.00     0.000 OA
ATOM     93   O  Z9L D   5      -1.796  21.589 -58.3840  0.00  0.00     0.000 O
ATOM     94   O  Z9L D   5      -1.198  19.519 -59.2140  0.00  0.00     0.000 OA
ENDBRANCH 79 90
BRANCH 81 95
ATOM     95   C  Z9L D   5       1.372  25.620 -61.3600  0.00  0.00     0.000 C
ATOM     96   S  Z9L D   5       2.310  27.278 -61.9410  0.00  0.00     0.000 S
ATOM     97   O  Z9L D   5       1.643  26.051 -62.6670  0.00  0.00     0.000 O
ATOM     98   O  Z9L D   5       3.536  26.798 -61.3570  0.00  0.00     0.000 OA
ATOM     99   O  Z9L D   5       1.425  28.124 -61.2140  0.00  0.00     0.000 OA
ATOM    100   O  Z9L D   5       2.575  27.661 -63.3060  0.00  0.00     0.000 O
ENDBRANCH 81 95
ENDBRANCH 76 80
ENDBRANCH 60 76
ENDBRANCH 59 63
ENDBRANCH 37 59
ENDBRANCH 36 40
ENDBRANCH 23 36
ENDBRANCH 22 26
ENDBRANCH 1 22
TORSDOF 19
ENDMDL
MODEL 26
REMARK VINA RESULT:      -7.2     14.046     20.334
ROOT
ATOM      1  C1  Z9H D   1      17.045   6.385 -55.9180  0.00  0.00     0.000 C
ATOM      2  C2  Z9H D   1      18.362   7.197 -55.9590  0.00  0.00     0.000 C
ATOM      3  C3  Z9H D   1      17.746   8.625 -55.8470  0.00  0.00     0.000 C
ATOM      4  C4  Z9H D   1      16.570   8.940 -56.8610  0.00  0.00     0.000 C
ATOM      5  C5  Z9H D   1      15.357   7.957 -57.1090  0.00  0.00     0.000 C
ATOM      6  O5  Z9H D   1      15.975   6.669 -56.8610  0.00  0.00     0.000 O
ATOM      7   O  Z9H D   1      18.750   9.639 -55.9210  0.00  0.00     0.000 O
ATOM      8   C  Z9H D   1      19.185  10.169 -54.6570  0.00  0.00     0.000 C
ATOM      9   O  Z9H D   1      16.020  10.193 -56.4430  0.00  0.00     0.000 O
ATOM     10   C  Z9H D   1      16.465  11.338 -57.1760  0.00  0.00     0.000 C
ENDROOT
BRANCH 2 11
ATOM     11   O  Z9H D   1      18.907   6.933 -54.6930  0.00  0.00     0.000 O
ATOM     12   O  Z9H D   1      20.525   6.006 -54.4080  0.00  0.00     0.000 OA
ATOM     13   S  Z9H D   1      19.984   6.322 -55.6870  0.00  0.00     0.000 S
ATOM     14   O  Z9H D   1      20.655   7.405 -56.3480  0.00  0.00     0.000 OA
ATOM     15   O  Z9H D   1      19.494   5.127 -56.3360  0.00  0.00     0.000 O
ENDBRANCH 2 11
BRANCH 5 16
ATOM     16   C  Z9H D   1      14.483   8.249 -58.5060  0.00  0.00     0.000 C
ATOM     17   S  Z9H D   1      13.249   7.420 -59.8600  0.00  0.00     0.000 S
ATOM     18   O  Z9H D   1      13.419   7.362 -58.2550  0.00  0.00     0.000 O
ATOM     19   O  Z9H D   1      14.317   6.811 -60.6000  0.00  0.00     0.000 O
ATOM     20   O  Z9H D   1      12.631   8.641 -60.2440  0.00  0.00     0.000 OA
ATOM     21   O  Z9H D   1      12.211   6.482 -59.5480  0.00  0.00     0.000 OA
ENDBRANCH 5 16
BRANCH 1 22
ATOM     22  O4  GU1 D   2      16.308   6.466 -54.6450  0.00  0.00     0.000 O
BRANCH 22 26
ATOM     23  C1  GU1 D   2      14.128   4.286 -51.9120  0.00  0.00     0.000 C
ATOM     24  C2  GU1 D   2      15.178   3.491 -52.6730  0.00  0.00     0.000 C
ATOM     25  C3  GU1 D   2      16.138   4.438 -53.3320  0.00  0.00     0.000 C
ATOM     26  C4  GU1 D   2      15.398   5.463 -54.1780  0.00  0.00     0.000 C
ATOM     27  C5  GU1 D   2      14.297   6.131 -53.3490  0.00  0.00     0.000 C
ATOM     28  O5  GU1 D   2      13.424   5.150 -52.7970  0.00  0.00     0.000 O
ATOM     29   O  GU1 D   2      15.919   2.631 -51.8160  0.00  0.00     0.000 O
ATOM     30   C  GU1 D   2      15.441   1.293 -51.7910  0.00  0.00     0.000 C
ATOM     31   C  GU1 D   2      18.308   3.448 -53.6530  0.00  0.00     0.000 C
ATOM     32   O  GU1 D   2      17.006   3.683 -54.1830  0.00  0.00     0.000 O
BRANCH 27 33
ATOM     33   C  GU1 D   2      13.466   7.066 -54.1950  0.00  0.00     0.000 C
ATOM     34   O  GU1 D   2      12.766   6.590 -55.0650  0.00  0.00     0.000 OA
ATOM     35   O  GU1 D   2      13.498   8.272 -54.0030  0.00  0.00     0.000 O
ENDBRANCH 27 33
BRANCH 23 36
ATOM     36  O4  GU6 D   3      12.955   3.625 -51.3980  0.00  0.00     0.000 O
BRANCH 36 40
ATOM     37  C1  GU6 D   3       9.857   2.586 -48.9450  0.00  0.00     0.000 C
ATOM     38  C2  GU6 D   3      11.058   3.171 -48.2110  0.00  0.00     0.000 C
ATOM     39  C3  GU6 D   3      12.018   3.766 -49.2080  0.00  0.00     0.000 C
ATOM     40  C4  GU6 D   3      11.775   3.500 -50.6300  0.00  0.00     0.000 C
ATOM     41  C5  GU6 D   3      11.263   2.032 -50.8080  0.00  0.00     0.000 C
ATOM     42  O5  GU6 D   3      10.316   1.579 -49.8330  0.00  0.00     0.000 O
BRANCH 38 43
ATOM     43   O  GU6 D   3      10.644   4.161 -47.2890  0.00  0.00     0.000 O
ATOM     44   S  GU6 D   3      10.421   3.647 -45.8730  0.00  0.00     0.000 S
ATOM     45   O  GU6 D   3       9.084   3.033 -45.8030  0.00  0.00     0.000 OA
ATOM     46   O  GU6 D   3      11.444   2.628 -45.5750  0.00  0.00     0.000 O
ATOM     47   O  GU6 D   3      10.542   4.765 -44.9420  0.00  0.00     0.000 OA
ENDBRANCH 38 43
BRANCH 39 48
ATOM     48   O  GU6 D   3      12.973   4.730 -48.8100  0.00  0.00     0.000 O
ATOM     49   S  GU6 D   3      14.284   4.554 -48.0440  0.00  0.00     0.000 S
ATOM     50   O  GU6 D   3      15.142   3.579 -48.7270  0.00  0.00     0.000 OA
ATOM     51   O  GU6 D   3      14.875   5.899 -48.0810  0.00  0.00     0.000 OA
ATOM     52   O  GU6 D   3      13.979   4.088 -46.6730  0.00  0.00     0.000 O
ENDBRANCH 39 48
BRANCH 41 53
ATOM     53   C  GU6 D   3      11.614   1.028 -51.8720  0.00  0.00     0.000 C
ATOM     54   O  GU6 D   3      10.792   1.535 -52.8910  0.00  0.00     0.000 O
ATOM     55   S  GU6 D   3      10.667   0.796 -54.2300  0.00  0.00     0.000 S
ATOM     56   O  GU6 D   3       9.997  -0.494 -53.9460  0.00  0.00     0.000 O
ATOM     57   O  GU6 D   3       9.855   1.613 -55.1430  0.00  0.00     0.000 OA
ATOM     58   O  GU6 D   3      12.039   0.581 -54.7430  0.00  0.00     0.000 OA
ENDBRANCH 41 53
BRANCH 37 59
ATOM     59  O4  Z9K D   4       8.860   3.357 -49.6480  0.00  0.00     0.000 O
BRANCH 59 63
ATOM     60  C1  Z9K D   4       5.726   4.811 -47.7730  0.00  0.00     0.000 C
ATOM     61  C2  Z9K D   4       5.472   3.284 -47.6440  0.00  0.00     0.000 C
ATOM     62  C3  Z9K D   4       6.828   2.702 -48.2380  0.00  0.00     0.000 C
ATOM     63  C4  Z9K D   4       7.405   3.310 -49.5730  0.00  0.00     0.000 C
ATOM     64  C5  Z9K D   4       7.013   4.764 -49.8760  0.00  0.00     0.000 C
ATOM     65  O5  Z9K D   4       6.895   5.349 -48.5530  0.00  0.00     0.000 O
ATOM     66   O  Z9K D   4       6.785   1.282 -48.4670  0.00  0.00     0.000 O
ATOM     67   C  Z9K D   4       7.105   0.495 -47.3320  0.00  0.00     0.000 C
BRANCH 61 68
ATOM     68   O  Z9K D   4       5.480   2.980 -46.2760  0.00  0.00     0.000 O
ATOM     69   O  Z9K D   4       3.861   1.464 -47.5530  0.00  0.00     0.000 OA
ATOM     70   S  Z9K D   4       3.960   2.606 -46.6940  0.00  0.00     0.000 S
ATOM     71   O  Z9K D   4       3.200   3.812 -46.8160  0.00  0.00     0.000 OA
ATOM     72   O  Z9K D   4       4.008   2.210 -45.3240  0.00  0.00     0.000 OA
ENDBRANCH 61 68
BRANCH 64 73
ATOM     73   C  Z9K D   4       7.995   5.399 -50.8830  0.00  0.00     0.000 C
ATOM     74   O  Z9K D   4       8.955   6.126 -50.4940  0.00  0.00     0.000 O
ATOM     75   O  Z9K D   4       7.886   5.215 -52.1200  0.00  0.00     0.000 OA
ENDBRANCH 64 73
BRANCH 60 76
ATOM     76  O4  Z9L D   5       4.817   5.835 -48.2110  0.00  0.00     0.000 O
BRANCH 76 80
ATOM     77  C1  Z9L D   5       3.189   9.159 -46.7020  0.00  0.00     0.000 C
ATOM     78  C2  Z9L D   5       3.580   9.477 -48.2250  0.00  0.00     0.000 C
ATOM     79  C3  Z9L D   5       3.829   7.986 -48.9840  0.00  0.00     0.000 C
ATOM     80  C4  Z9L D   5       4.673   7.177 -47.8230  0.00  0.00     0.000 C
ATOM     81  C5  Z9L D   5       4.417   7.039 -46.2370  0.00  0.00     0.000 C
ATOM     82  O5  Z9L D   5       4.012   8.337 -45.7780  0.00  0.00     0.000 O
ATOM     83   C  Z9L D   5       1.330   8.356 -45.3630  0.00  0.00     0.000 C
ATOM     84   C  Z9L D   5       1.330   8.356 -45.3630  0.00  0.00     0.000 C
BRANCH 78 85
ATOM     85   O  Z9L D   5       2.500  10.119 -48.8230  0.00  0.00     0.000 O
ATOM     86   O  Z9L D   5       2.485  11.956 -49.4000  0.00  0.00     0.000 OA
ATOM     87   S  Z9L D   5       3.631  11.258 -48.9010  0.00  0.00     0.000 S
ATOM     88   O  Z9L D   5       4.512  11.126 -50.0350  0.00  0.00     0.000 OA
ATOM     89   O  Z9L D   5       3.961  11.906 -47.6790  0.00  0.00     0.000 OA
ENDBRANCH 78 85
BRANCH 79 90
ATOM     90   O  Z9L D   5       4.757   8.091 -50.0160  0.00  0.00     0.000 O
ATOM     91   S  Z9L D   5       3.536   7.458 -50.8190  0.00  0.00     0.000 S
ATOM     92   O  Z9L D   5       2.235   8.071 -50.8500  0.00  0.00     0.000 OA
ATOM     93   O  Z9L D   5       3.682   6.024 -50.8570  0.00  0.00     0.000 O
ATOM     94   O  Z9L D   5       4.279   7.986 -51.9170  0.00  0.00     0.000 OA
ENDBRANCH 79 90
BRANCH 81 95
ATOM     95   C  Z9L D   5       5.560   6.197 -45.3440  0.00  0.00     0.000 C
ATOM     96   S  Z9L D   5       6.367   5.968 -43.5370  0.00  0.00     0.000 S
ATOM     97   O  Z9L D   5       5.817   7.181 -44.3790  0.00  0.00     0.000 O
ATOM     98   O  Z9L D   5       7.618   5.580 -44.1370  0.00  0.00     0.000 OA
ATOM     99   O  Z9L D   5       5.400   4.998 -43.1450  0.00  0.00     0.000 OA
ATOM    100   O  Z9L D   5       6.624   7.025 -42.5910  0.00  0.00     0.000 O
ENDBRANCH 81 95
ENDBRANCH 76 80
ENDBRANCH 60 76
ENDBRANCH 59 63
ENDBRANCH 37 59
ENDBRANCH 36 40
ENDBRANCH 23 36
ENDBRANCH 22 26
ENDBRANCH 1 22
TORSDOF 19
ENDMDL
MODEL 27
REMARK VINA RESULT:      -7.1      2.094      5.536
ROOT
ATOM      1  C1  Z9H D   1       1.606  26.862 -61.3930  0.00  0.00     0.000 C
ATOM      2  C2  Z9H D   1       1.011  28.271 -61.6320  0.00  0.00     0.000 C
ATOM      3  C3  Z9H D   1      -0.356  27.834 -62.2430  0.00  0.00     0.000 C
ATOM      4  C4  Z9H D   1      -0.267  26.783 -63.4250  0.00  0.00     0.000 C
ATOM      5  C5  Z9H D   1       0.619  25.475 -63.3540  0.00  0.00     0.000 C
ATOM      6  O5  Z9H D   1       1.697  25.906 -62.4860  0.00  0.00     0.000 O
ATOM      7   O  Z9H D   1      -1.140  28.961 -62.6390  0.00  0.00     0.000 O
ATOM      8   C  Z9H D   1      -2.150  29.369 -61.7010  0.00  0.00     0.000 C
ATOM      9   O  Z9H D   1      -1.613  26.367 -63.6780  0.00  0.00     0.000 O
ATOM     10   C  Z9H D   1      -2.258  27.005 -64.7850  0.00  0.00     0.000 C
ENDROOT
BRANCH 2 11
ATOM     11   O  Z9H D   1       0.712  28.687 -60.3260  0.00  0.00     0.000 O
ATOM     12   O  Z9H D   1       1.624  30.065 -59.4170  0.00  0.00     0.000 OA
ATOM     13   S  Z9H D   1       1.885  29.666 -60.7590  0.00  0.00     0.000 S
ATOM     14   O  Z9H D   1       1.374  30.574 -61.7450  0.00  0.00     0.000 OA
ATOM     15   O  Z9H D   1       3.152  28.976 -60.8420  0.00  0.00     0.000 O
ENDBRANCH 2 11
BRANCH 5 16
ATOM     16   C  Z9H D   1       0.927  24.747 -64.8290  0.00  0.00     0.000 C
ATOM     17   S  Z9H D   1       0.852  25.004 -66.8210  0.00  0.00     0.000 S
ATOM     18   O  Z9H D   1       1.268  25.907 -65.5490  0.00  0.00     0.000 O
ATOM     19   O  Z9H D   1      -0.545  24.689 -66.9050  0.00  0.00     0.000 O
ATOM     20   O  Z9H D   1       1.881  24.069 -67.1160  0.00  0.00     0.000 OA
ATOM     21   O  Z9H D   1       1.167  26.229 -67.4960  0.00  0.00     0.000 OA
ENDBRANCH 5 16
BRANCH 1 22
ATOM     22  O4  GU1 D   2       0.895  26.052 -60.3890  0.00  0.00     0.000 O
BRANCH 22 26
ATOM     23  C1  GU1 D   2       1.404  23.274 -57.3900  0.00  0.00     0.000 C
ATOM     24  C2  GU1 D   2       2.593  24.194 -57.6180  0.00  0.00     0.000 C
ATOM     25  C3  GU1 D   2       2.159  25.375 -58.4370  0.00  0.00     0.000 C
ATOM     26  C4  GU1 D   2       1.465  24.924 -59.7150  0.00  0.00     0.000 C
ATOM     27  C5  GU1 D   2       0.355  23.923 -59.3840  0.00  0.00     0.000 C
ATOM     28  O5  GU1 D   2       0.878  22.829 -58.6350  0.00  0.00     0.000 O
ATOM     29   O  GU1 D   2       3.134  24.678 -56.3940  0.00  0.00     0.000 O
ATOM     30   C  GU1 D   2       4.253  23.938 -55.9280  0.00  0.00     0.000 C
ATOM     31   C  GU1 D   2       3.519  27.316 -58.0200  0.00  0.00     0.000 C
ATOM     32   O  GU1 D   2       3.320  26.133 -58.7900  0.00  0.00     0.000 O
BRANCH 27 33
ATOM     33   C  GU1 D   2      -0.271  23.366 -60.6400  0.00  0.00     0.000 C
ATOM     34   O  GU1 D   2       0.378  22.594 -61.3160  0.00  0.00     0.000 OA
ATOM     35   O  GU1 D   2      -1.405  23.685 -60.9630  0.00  0.00     0.000 O
ENDBRANCH 27 33
BRANCH 23 36
ATOM     36  O4  GU6 D   3       1.607  21.955 -56.8450  0.00  0.00     0.000 O
BRANCH 36 40
ATOM     37  C1  GU6 D   3       2.312  19.270 -53.8470  0.00  0.00     0.000 C
ATOM     38  C2  GU6 D   3       2.039  20.686 -53.3570  0.00  0.00     0.000 C
ATOM     39  C3  GU6 D   3       1.529  21.526 -54.4990  0.00  0.00     0.000 C
ATOM     40  C4  GU6 D   3       1.594  20.953 -55.8480  0.00  0.00     0.000 C
ATOM     41  C5  GU6 D   3       2.915  20.130 -56.0040  0.00  0.00     0.000 C
ATOM     42  O5  GU6 D   3       3.286  19.327 -54.8770  0.00  0.00     0.000 O
BRANCH 38 43
ATOM     43   O  GU6 D   3       1.094  20.676 -52.3050  0.00  0.00     0.000 O
ATOM     44   S  GU6 D   3       1.586  21.309 -51.0100  0.00  0.00     0.000 S
ATOM     45   O  GU6 D   3       2.396  20.318 -50.2820  0.00  0.00     0.000 OA
ATOM     46   O  GU6 D   3       2.423  22.475 -51.3460  0.00  0.00     0.000 O
ATOM     47   O  GU6 D   3       0.430  21.732 -50.2250  0.00  0.00     0.000 OA
ENDBRANCH 38 43
BRANCH 39 48
ATOM     48   O  GU6 D   3       0.805  22.717 -54.2580  0.00  0.00     0.000 O
ATOM     49   S  GU6 D   3      -0.703  22.945 -54.1560  0.00  0.00     0.000 S
ATOM     50   O  GU6 D   3      -1.281  22.058 -53.1400  0.00  0.00     0.000 OA
ATOM     51   O  GU6 D   3      -0.800  24.353 -53.7490  0.00  0.00     0.000 OA
ATOM     52   O  GU6 D   3      -1.318  22.674 -55.4750  0.00  0.00     0.000 O
ENDBRANCH 39 48
BRANCH 41 53
ATOM     53   C  GU6 D   3       3.848  20.049 -57.1820  0.00  0.00     0.000 C
ATOM     54   O  GU6 D   3       4.992  20.568 -56.5540  0.00  0.00     0.000 O
ATOM     55   S  GU6 D   3       6.273  20.824 -57.3600  0.00  0.00     0.000 S
ATOM     56   O  GU6 D   3       5.964  21.909 -58.3200  0.00  0.00     0.000 O
ATOM     57   O  GU6 D   3       7.335  21.238 -56.4320  0.00  0.00     0.000 OA
ATOM     58   O  GU6 D   3       6.605  19.566 -58.0660  0.00  0.00     0.000 OA
ENDBRANCH 41 53
BRANCH 37 59
ATOM     59  O4  Z9K D   4       1.300  18.329 -54.2650  0.00  0.00     0.000 O
BRANCH 59 63
ATOM     60  C1  Z9K D   4       0.397  16.023 -51.2130  0.00  0.00     0.000 C
ATOM     61  C2  Z9K D   4       1.679  15.327 -51.7470  0.00  0.00     0.000 C
ATOM     62  C3  Z9K D   4       2.142  16.362 -52.8610  0.00  0.00     0.000 C
ATOM     63  C4  Z9K D   4       1.071  16.948 -53.8580  0.00  0.00     0.000 C
ATOM     64  C5  Z9K D   4      -0.376  16.992 -53.3440  0.00  0.00     0.000 C
ATOM     65  O5  Z9K D   4      -0.205  17.207 -51.9190  0.00  0.00     0.000 O
ATOM     66   O  Z9K D   4       3.195  15.859 -53.7030  0.00  0.00     0.000 O
ATOM     67   C  Z9K D   4       4.501  16.044 -53.1820  0.00  0.00     0.000 C
BRANCH 61 68
ATOM     68   O  Z9K D   4       2.637  15.391 -50.7260  0.00  0.00     0.000 O
ATOM     69   O  Z9K D   4       2.883  13.241 -52.0930  0.00  0.00     0.000 OA
ATOM     70   S  Z9K D   4       2.400  13.794 -50.8630  0.00  0.00     0.000 S
ATOM     71   O  Z9K D   4       1.173  13.448 -50.2150  0.00  0.00     0.000 OA
ATOM     72   O  Z9K D   4       3.445  13.868 -49.8940  0.00  0.00     0.000 OA
ENDBRANCH 61 68
BRANCH 64 73
ATOM     73   C  Z9K D   4      -1.214  18.005 -54.1520  0.00  0.00     0.000 C
ATOM     74   O  Z9K D   4      -1.476  17.812 -55.3750  0.00  0.00     0.000 O
ATOM     75   O  Z9K D   4      -1.673  19.050 -53.6300  0.00  0.00     0.000 OA
ENDBRANCH 64 73
BRANCH 60 76
ATOM     76  O4  Z9L D   5      -0.871  15.431 -50.8830  0.00  0.00     0.000 O
BRANCH 76 80
ATOM     77  C1  Z9L D   5      -3.904  15.523 -48.2810  0.00  0.00     0.000 C
ATOM     78  C2  Z9L D   5      -4.499  15.940 -49.7110  0.00  0.00     0.000 C
ATOM     79  C3  Z9L D   5      -3.361  15.463 -50.8680  0.00  0.00     0.000 C
ATOM     80  C4  Z9L D   5      -1.956  15.917 -50.1350  0.00  0.00     0.000 C
ATOM     81  C5  Z9L D   5      -1.440  15.704 -48.6230  0.00  0.00     0.000 C
ATOM     82  O5  Z9L D   5      -2.572  15.940 -47.7720  0.00  0.00     0.000 O
ATOM     83   C  Z9L D   5      -3.550  13.569 -46.8850  0.00  0.00     0.000 C
ATOM     84   C  Z9L D   5      -3.550  13.569 -46.8850  0.00  0.00     0.000 C
BRANCH 78 85
ATOM     85   O  Z9L D   5      -5.678  15.229 -49.9120  0.00  0.00     0.000 O
ATOM     86   O  Z9L D   5      -7.448  15.989 -49.8800  0.00  0.00     0.000 OA
ATOM     87   S  Z9L D   5      -6.229  16.734 -49.7990  0.00  0.00     0.000 S
ATOM     88   O  Z9L D   5      -6.159  17.472 -51.0360  0.00  0.00     0.000 OA
ATOM     89   O  Z9L D   5      -6.229  17.313 -48.5000  0.00  0.00     0.000 OA
ENDBRANCH 78 85
BRANCH 79 90
ATOM     90   O  Z9L D   5      -3.399  16.290 -51.9870  0.00  0.00     0.000 O
ATOM     91   S  Z9L D   5      -3.659  14.883 -52.6860  0.00  0.00     0.000 S
ATOM     92   O  Z9L D   5      -4.741  14.018 -52.2950  0.00  0.00     0.000 OA
ATOM     93   O  Z9L D   5      -2.406  14.342 -53.1500  0.00  0.00     0.000 O
ATOM     94   O  Z9L D   5      -4.154  15.741 -53.7140  0.00  0.00     0.000 OA
ENDBRANCH 79 90
BRANCH 81 95
ATOM     95   C  Z9L D   5       0.030  16.397 -48.2070  0.00  0.00     0.000 C
ATOM     96   S  Z9L D   5       0.918  18.051 -47.5430  0.00  0.00     0.000 S
ATOM     97   O  Z9L D   5      -0.294  17.730 -48.4950  0.00  0.00     0.000 O
ATOM     98   O  Z9L D   5       2.116  17.707 -48.2660  0.00  0.00     0.000 OA
ATOM     99   O  Z9L D   5       0.747  17.686 -46.1780  0.00  0.00     0.000 OA
ATOM    100   O  Z9L D   5       0.549  19.401 -47.8900  0.00  0.00     0.000 O
ENDBRANCH 81 95
ENDBRANCH 76 80
ENDBRANCH 60 76
ENDBRANCH 59 63
ENDBRANCH 37 59
ENDBRANCH 36 40
ENDBRANCH 23 36
ENDBRANCH 22 26
ENDBRANCH 1 22
TORSDOF 19
ENDMDL
MODEL 28
REMARK VINA RESULT:      -7.1      2.618     13.758
ROOT
ATOM      1  C1  Z9H D   1       1.248  12.539 -50.0640  0.00  0.00     0.000 C
ATOM      2  C2  Z9H D   1       1.552  11.022 -50.0460  0.00  0.00     0.000 C
ATOM      3  C3  Z9H D   1       0.192  10.516 -50.6170  0.00  0.00     0.000 C
ATOM      4  C4  Z9H D   1      -1.101  11.091 -49.9020  0.00  0.00     0.000 C
ATOM      5  C5  Z9H D   1      -1.302  12.626 -49.5850  0.00  0.00     0.000 C
ATOM      6  O5  Z9H D   1       0.067  13.062 -49.3940  0.00  0.00     0.000 O
ATOM      7   O  Z9H D   1       0.140   9.089 -50.6650  0.00  0.00     0.000 O
ATOM      8   C  Z9H D   1       0.431   8.506 -51.9460  0.00  0.00     0.000 C
ATOM      9   O  Z9H D   1      -2.208  10.678 -50.7100  0.00  0.00     0.000 O
ATOM     10   C  Z9H D   1      -2.914   9.523 -50.2460  0.00  0.00     0.000 C
ENDROOT
BRANCH 2 11
ATOM     11   O  Z9H D   1       2.463  10.894 -51.1050  0.00  0.00     0.000 O
ATOM     12   O  Z9H D   1       4.281  10.440 -50.8900  0.00  0.00     0.000 OA
ATOM     13   S  Z9H D   1       3.335  10.526 -49.8290  0.00  0.00     0.000 S
ATOM     14   O  Z9H D   1       2.898   9.251 -49.3370  0.00  0.00     0.000 OA
ATOM     15   O  Z9H D   1       3.600  11.687 -49.0110  0.00  0.00     0.000 O
ENDBRANCH 2 11
BRANCH 5 16
ATOM     16   C  Z9H D   1      -2.490  12.967 -48.4560  0.00  0.00     0.000 C
ATOM     17   S  Z9H D   1      -2.850  13.844 -46.6840  0.00  0.00     0.000 S
ATOM     18   O  Z9H D   1      -1.969  14.189 -47.9920  0.00  0.00     0.000 O
ATOM     19   O  Z9H D   1      -2.387  12.719 -45.9240  0.00  0.00     0.000 O
ATOM     20   O  Z9H D   1      -4.225  14.101 -46.9370  0.00  0.00     0.000 OA
ATOM     21   O  Z9H D   1      -2.250  15.070 -46.2450  0.00  0.00     0.000 OA
ENDBRANCH 5 16
BRANCH 1 22
ATOM     22  O4  GU1 D   2       1.072  13.120 -51.4070  0.00  0.00     0.000 O
BRANCH 22 26
ATOM     23  C1  GU1 D   2       1.473  16.585 -53.5980  0.00  0.00     0.000 C
ATOM     24  C2  GU1 D   2       2.398  16.478 -52.3950  0.00  0.00     0.000 C
ATOM     25  C3  GU1 D   2       2.435  15.054 -51.9210  0.00  0.00     0.000 C
ATOM     26  C4  GU1 D   2       1.029  14.526 -51.6760  0.00  0.00     0.000 C
ATOM     27  C5  GU1 D   2       0.153  14.775 -52.9070  0.00  0.00     0.000 C
ATOM     28  O5  GU1 D   2       0.161  16.157 -53.2530  0.00  0.00     0.000 O
ATOM     29   O  GU1 D   2       3.727  16.877 -52.7080  0.00  0.00     0.000 O
ATOM     30   C  GU1 D   2       4.020  18.223 -52.3620  0.00  0.00     0.000 C
ATOM     31   C  GU1 D   2       4.500  14.526 -50.8030  0.00  0.00     0.000 C
ATOM     32   O  GU1 D   2       3.163  15.007 -50.6900  0.00  0.00     0.000 O
BRANCH 27 33
ATOM     33   C  GU1 D   2      -1.279  14.370 -52.6500  0.00  0.00     0.000 C
ATOM     34   O  GU1 D   2      -1.673  13.317 -53.1070  0.00  0.00     0.000 OA
ATOM     35   O  GU1 D   2      -2.018  15.087 -51.9930  0.00  0.00     0.000 O
ENDBRANCH 27 33
BRANCH 23 36
ATOM     36  O4  GU6 D   3       1.074  17.880 -54.0880  0.00  0.00     0.000 O
BRANCH 36 40
ATOM     37  C1  GU6 D   3       1.062  21.895 -53.3340  0.00  0.00     0.000 C
ATOM     38  C2  GU6 D   3       2.321  21.402 -54.0360  0.00  0.00     0.000 C
ATOM     39  C3  GU6 D   3       2.114  19.986 -54.5080  0.00  0.00     0.000 C
ATOM     40  C4  GU6 D   3       0.912  19.283 -54.0460  0.00  0.00     0.000 C
ATOM     41  C5  GU6 D   3       0.620  19.669 -52.5580  0.00  0.00     0.000 C
ATOM     42  O5  GU6 D   3       0.802  21.050 -52.2240  0.00  0.00     0.000 O
BRANCH 38 43
ATOM     43   O  GU6 D   3       2.638  22.236 -55.1330  0.00  0.00     0.000 O
ATOM     44   S  GU6 D   3       4.015  22.883 -55.0550  0.00  0.00     0.000 S
ATOM     45   O  GU6 D   3       3.925  24.071 -54.1880  0.00  0.00     0.000 OA
ATOM     46   O  GU6 D   3       4.957  21.916 -54.4640  0.00  0.00     0.000 O
ATOM     47   O  GU6 D   3       4.444  23.240 -56.4040  0.00  0.00     0.000 OA
ENDBRANCH 38 43
BRANCH 39 48
ATOM     48   O  GU6 D   3       2.917  19.439 -55.5350  0.00  0.00     0.000 O
ATOM     49   S  GU6 D   3       2.657  19.346 -57.0390  0.00  0.00     0.000 S
ATOM     50   O  GU6 D   3       2.376  20.677 -57.5860  0.00  0.00     0.000 OA
ATOM     51   O  GU6 D   3       3.922  18.812 -57.5620  0.00  0.00     0.000 OA
ATOM     52   O  GU6 D   3       1.504  18.448 -57.2720  0.00  0.00     0.000 O
ENDBRANCH 39 48
BRANCH 41 53
ATOM     53   C  GU6 D   3       0.157  18.793 -51.4260  0.00  0.00     0.000 C
ATOM     54   O  GU6 D   3       0.970  19.337 -50.4190  0.00  0.00     0.000 O
ATOM     55   S  GU6 D   3       0.989  18.718 -49.0150  0.00  0.00     0.000 S
ATOM     56   O  GU6 D   3       1.580  17.367 -49.1510  0.00  0.00     0.000 O
ATOM     57   O  GU6 D   3       1.819  19.562 -48.1420  0.00  0.00     0.000 OA
ATOM     58   O  GU6 D   3      -0.414  18.642 -48.5500  0.00  0.00     0.000 OA
ENDBRANCH 41 53
BRANCH 37 59
ATOM     59  O4  Z9K D   4      -0.201  22.154 -53.9820  0.00  0.00     0.000 O
BRANCH 59 63
ATOM     60  C1  Z9K D   4       0.478  24.566 -57.0100  0.00  0.00     0.000 C
ATOM     61  C2  Z9K D   4       0.371  25.579 -55.8370  0.00  0.00     0.000 C
ATOM     62  C3  Z9K D   4       0.282  24.591 -54.5940  0.00  0.00     0.000 C
ATOM     63  C4  Z9K D   4      -0.681  23.346 -54.6700  0.00  0.00     0.000 C
ATOM     64  C5  Z9K D   4      -0.984  22.812 -56.0790  0.00  0.00     0.000 C
ATOM     65  O5  Z9K D   4       0.243  23.095 -56.8010  0.00  0.00     0.000 O
ATOM     66   O  Z9K D   4      -0.068  25.254 -53.3650  0.00  0.00     0.000 O
ATOM     67   C  Z9K D   4       1.033  25.813 -52.6670  0.00  0.00     0.000 C
BRANCH 61 68
ATOM     68   O  Z9K D   4       1.610  26.225 -55.7380  0.00  0.00     0.000 O
ATOM     69   O  Z9K D   4      -0.291  27.741 -54.9400  0.00  0.00     0.000 OA
ATOM     70   S  Z9K D   4       0.607  27.465 -56.0200  0.00  0.00     0.000 S
ATOM     71   O  Z9K D   4       0.273  27.487 -57.4120  0.00  0.00     0.000 OA
ATOM     72   O  Z9K D   4       1.859  28.122 -55.8220  0.00  0.00     0.000 OA
ENDBRANCH 61 68
BRANCH 64 73
ATOM     73   C  Z9K D   4      -1.490  21.356 -56.0170  0.00  0.00     0.000 C
ATOM     74   O  Z9K D   4      -0.861  20.418 -56.5880  0.00  0.00     0.000 O
ATOM     75   O  Z9K D   4      -2.537  21.045 -55.3970  0.00  0.00     0.000 OA
ENDBRANCH 64 73
BRANCH 60 76
ATOM     76  O4  Z9L D   5      -0.180  24.605 -58.2880  0.00  0.00     0.000 O
BRANCH 76 80
ATOM     77  C1  Z9L D   5       0.281  24.390 -62.2520  0.00  0.00     0.000 C
ATOM     78  C2  Z9L D   5      -0.454  23.041 -61.7910  0.00  0.00     0.000 C
ATOM     79  C3  Z9L D   5      -1.054  23.323 -60.2350  0.00  0.00     0.000 C
ATOM     80  C4  Z9L D   5       0.211  24.124 -59.5490  0.00  0.00     0.000 C
ATOM     81  C5  Z9L D   5       1.114  25.340 -60.1020  0.00  0.00     0.000 C
ATOM     82  O5  Z9L D   5       1.364  25.059 -61.4870  0.00  0.00     0.000 O
ATOM     83   C  Z9L D   5      -0.216  26.634 -63.0320  0.00  0.00     0.000 C
ATOM     84   C  Z9L D   5      -0.216  26.634 -63.0320  0.00  0.00     0.000 C
BRANCH 78 85
ATOM     85   O  Z9L D   5      -1.520  22.813 -62.6570  0.00  0.00     0.000 O
ATOM     86   O  Z9L D   5      -1.611  21.386 -63.9470  0.00  0.00     0.000 OA
ATOM     87   S  Z9L D   5      -0.576  21.550 -62.9720  0.00  0.00     0.000 S
ATOM     88   O  Z9L D   5      -0.750  20.452 -62.0540  0.00  0.00     0.000 OA
ATOM     89   O  Z9L D   5       0.605  21.813 -63.7190  0.00  0.00     0.000 OA
ENDBRANCH 78 85
BRANCH 79 90
ATOM     90   O  Z9L D   5      -1.107  22.148 -59.4910  0.00  0.00     0.000 O
ATOM     91   S  Z9L D   5      -2.660  22.500 -59.5440  0.00  0.00     0.000 S
ATOM     92   O  Z9L D   5      -3.364  22.693 -60.7840  0.00  0.00     0.000 OA
ATOM     93   O  Z9L D   5      -3.020  23.244 -58.3620  0.00  0.00     0.000 O
ATOM     94   O  Z9L D   5      -2.754  21.115 -59.2150  0.00  0.00     0.000 OA
ENDBRANCH 79 90
BRANCH 81 95
ATOM     95   C  Z9L D   5       2.396  25.844 -59.1450  0.00  0.00     0.000 C
ATOM     96   S  Z9L D   5       4.379  25.877 -58.9690  0.00  0.00     0.000 S
ATOM     97   O  Z9L D   5       3.315  24.851 -59.5120  0.00  0.00     0.000 O
ATOM     98   O  Z9L D   5       4.259  25.879 -57.5330  0.00  0.00     0.000 OA
ATOM     99   O  Z9L D   5       4.500  27.091 -59.7040  0.00  0.00     0.000 OA
ATOM    100   O  Z9L D   5       5.276  24.814 -59.3500  0.00  0.00     0.000 O
ENDBRANCH 81 95
ENDBRANCH 76 80
ENDBRANCH 60 76
ENDBRANCH 59 63
ENDBRANCH 37 59
ENDBRANCH 36 40
ENDBRANCH 23 36
ENDBRANCH 22 26
ENDBRANCH 1 22
TORSDOF 19
ENDMDL
MODEL 29
REMARK VINA RESULT:      -7.1      6.939     14.470
ROOT
ATOM      1  C1  Z9H D   1       0.513  17.859 -49.4960  0.00  0.00     0.000 C
ATOM      2  C2  Z9H D   1       1.553  16.762 -49.8250  0.00  0.00     0.000 C
ATOM      3  C3  Z9H D   1       0.607  15.776 -50.5760  0.00  0.00     0.000 C
ATOM      4  C4  Z9H D   1      -0.738  15.415 -49.8190  0.00  0.00     0.000 C
ATOM      5  C5  Z9H D   1      -1.674  16.501 -49.1560  0.00  0.00     0.000 C
ATOM      6  O5  Z9H D   1      -0.713  17.523 -48.7890  0.00  0.00     0.000 O
ATOM      7   O  Z9H D   1       1.292  14.584 -50.9680  0.00  0.00     0.000 O
ATOM      8   C  Z9H D   1       1.743  14.554 -52.3330  0.00  0.00     0.000 C
ATOM      9   O  Z9H D   1      -1.533  14.691 -50.7640  0.00  0.00     0.000 O
ATOM     10   C  Z9H D   1      -1.507  13.267 -50.6310  0.00  0.00     0.000 C
ENDROOT
BRANCH 2 11
ATOM     11   O  Z9H D   1       2.316  17.375 -50.8310  0.00  0.00     0.000 O
ATOM     12   O  Z9H D   1       4.150  17.784 -50.6680  0.00  0.00     0.000 OA
ATOM     13   S  Z9H D   1       3.376  17.119 -49.6750  0.00  0.00     0.000 S
ATOM     14   O  Z9H D   1       3.624  15.708 -49.5940  0.00  0.00     0.000 OA
ATOM     15   O  Z9H D   1       3.153  17.990 -48.5440  0.00  0.00     0.000 O
ENDBRANCH 2 11
BRANCH 5 16
ATOM     16   C  Z9H D   1      -2.777  15.905 -48.0470  0.00  0.00     0.000 C
ATOM     17   S  Z9H D   1      -3.218  14.337 -46.8690  0.00  0.00     0.000 S
ATOM     18   O  Z9H D   1      -1.880  15.144 -47.2740  0.00  0.00     0.000 O
ATOM     19   O  Z9H D   1      -3.811  13.581 -47.9350  0.00  0.00     0.000 O
ATOM     20   O  Z9H D   1      -3.976  15.085 -45.9280  0.00  0.00     0.000 OA
ATOM     21   O  Z9H D   1      -2.251  13.568 -46.1410  0.00  0.00     0.000 OA
ENDBRANCH 5 16
BRANCH 1 22
ATOM     22  O4  GU1 D   2      -0.039  18.560 -50.6690  0.00  0.00     0.000 O
BRANCH 22 26
ATOM     23  C1  GU1 D   2      -1.159  22.253 -52.1110  0.00  0.00     0.000 C
ATOM     24  C2  GU1 D   2      -0.071  22.284 -51.0490  0.00  0.00     0.000 C
ATOM     25  C3  GU1 D   2       0.509  20.908 -50.8900  0.00  0.00     0.000 C
ATOM     26  C4  GU1 D   2      -0.586  19.883 -50.6310  0.00  0.00     0.000 C
ATOM     27  C5  GU1 D   2      -1.680  20.005 -51.6950  0.00  0.00     0.000 C
ATOM     28  O5  GU1 D   2      -2.184  21.337 -51.7420  0.00  0.00     0.000 O
ATOM     29   O  GU1 D   2       0.984  23.174 -51.3940  0.00  0.00     0.000 O
ATOM     30   C  GU1 D   2       0.869  24.460 -50.8010  0.00  0.00     0.000 C
ATOM     31   C  GU1 D   2       2.784  20.970 -50.1060  0.00  0.00     0.000 C
ATOM     32   O  GU1 D   2       1.399  20.920 -49.7700  0.00  0.00     0.000 O
BRANCH 27 33
ATOM     33   C  GU1 D   2      -2.838  19.083 -51.3960  0.00  0.00     0.000 C
ATOM     34   O  GU1 D   2      -3.066  18.173 -52.1670  0.00  0.00     0.000 OA
ATOM     35   O  GU1 D   2      -3.524  19.250 -50.4000  0.00  0.00     0.000 O
ENDBRANCH 27 33
BRANCH 23 36
ATOM     36  O4  GU6 D   3      -2.036  23.384 -52.2780  0.00  0.00     0.000 O
BRANCH 36 40
ATOM     37  C1  GU6 D   3      -3.890  27.018 -52.0500  0.00  0.00     0.000 C
ATOM     38  C2  GU6 D   3      -4.849  25.842 -52.1800  0.00  0.00     0.000 C
ATOM     39  C3  GU6 D   3      -4.096  24.552 -51.9830  0.00  0.00     0.000 C
ATOM     40  C4  GU6 D   3      -2.631  24.619 -51.9340  0.00  0.00     0.000 C
ATOM     41  C5  GU6 D   3      -2.122  25.680 -52.9650  0.00  0.00     0.000 C
ATOM     42  O5  GU6 D   3      -2.882  26.892 -53.0410  0.00  0.00     0.000 O
BRANCH 38 43
ATOM     43   O  GU6 D   3      -5.891  25.942 -51.2290  0.00  0.00     0.000 O
ATOM     44   S  GU6 D   3      -7.204  26.476 -51.7890  0.00  0.00     0.000 S
ATOM     45   O  GU6 D   3      -7.125  27.946 -51.8470  0.00  0.00     0.000 OA
ATOM     46   O  GU6 D   3      -7.387  25.941 -53.1500  0.00  0.00     0.000 O
ATOM     47   O  GU6 D   3      -8.296  26.036 -50.9270  0.00  0.00     0.000 OA
ENDBRANCH 38 43
BRANCH 39 48
ATOM     48   O  GU6 D   3      -4.773  23.363 -51.6250  0.00  0.00     0.000 O
ATOM     49   S  GU6 D   3      -5.543  22.373 -52.4980  0.00  0.00     0.000 S
ATOM     50   O  GU6 D   3      -4.689  21.889 -53.5890  0.00  0.00     0.000 OA
ATOM     51   O  GU6 D   3      -5.874  21.290 -51.5620  0.00  0.00     0.000 OA
ATOM     52   O  GU6 D   3      -6.737  23.049 -53.0530  0.00  0.00     0.000 O
ENDBRANCH 39 48
BRANCH 41 53
ATOM     53   C  GU6 D   3      -0.931  25.614 -53.8820  0.00  0.00     0.000 C
ATOM     54   O  GU6 D   3      -0.955  26.947 -54.3230  0.00  0.00     0.000 O
ATOM     55   S  GU6 D   3       0.018  27.425 -55.4090  0.00  0.00     0.000 S
ATOM     56   O  GU6 D   3      -0.346  26.712 -56.6550  0.00  0.00     0.000 O
ATOM     57   O  GU6 D   3      -0.143  28.877 -55.5750  0.00  0.00     0.000 OA
ATOM     58   O  GU6 D   3       1.383  27.060 -54.9660  0.00  0.00     0.000 OA
ENDBRANCH 41 53
BRANCH 37 59
ATOM     59  O4  Z9K D   4      -3.241  27.427 -50.8270  0.00  0.00     0.000 O
BRANCH 59 63
ATOM     60  C1  Z9K D   4      -5.413  29.374 -48.1920  0.00  0.00     0.000 C
ATOM     61  C2  Z9K D   4      -5.293  30.431 -49.3240  0.00  0.00     0.000 C
ATOM     62  C3  Z9K D   4      -4.575  29.579 -50.4590  0.00  0.00     0.000 C
ATOM     63  C4  Z9K D   4      -3.346  28.671 -50.0750  0.00  0.00     0.000 C
ATOM     64  C5  Z9K D   4      -3.298  28.180 -48.6200  0.00  0.00     0.000 C
ATOM     65  O5  Z9K D   4      -4.703  28.050 -48.2770  0.00  0.00     0.000 O
ATOM     66   O  Z9K D   4      -4.114  30.377 -51.5640  0.00  0.00     0.000 O
ATOM     67   C  Z9K D   4      -5.095  30.621 -52.5590  0.00  0.00     0.000 C
BRANCH 61 68
ATOM     68   O  Z9K D   4      -6.591  30.688 -49.7860  0.00  0.00     0.000 O
ATOM     69   O  Z9K D   4      -5.124  32.779 -49.9400  0.00  0.00     0.000 OA
ATOM     70   S  Z9K D   4      -6.157  32.130 -49.1900  0.00  0.00     0.000 S
ATOM     71   O  Z9K D   4      -6.258  32.094 -47.7630  0.00  0.00     0.000 OA
ATOM     72   O  Z9K D   4      -7.441  32.403 -49.7500  0.00  0.00     0.000 OA
ENDBRANCH 61 68
BRANCH 64 73
ATOM     73   C  Z9K D   4      -2.385  26.942 -48.4880  0.00  0.00     0.000 C
ATOM     74   O  Z9K D   4      -1.129  27.061 -48.3950  0.00  0.00     0.000 O
ATOM     75   O  Z9K D   4      -2.851  25.777 -48.4610  0.00  0.00     0.000 OA
ENDBRANCH 64 73
BRANCH 60 76
ATOM     76  O4  Z9L D   5      -5.175  29.540 -46.7840  0.00  0.00     0.000 O
BRANCH 76 80
ATOM     77  C1  Z9L D   5      -6.487  28.615 -43.1240  0.00  0.00     0.000 C
ATOM     78  C2  Z9L D   5      -5.060  27.904 -43.3050  0.00  0.00     0.000 C
ATOM     79  C3  Z9L D   5      -4.311  28.650 -44.6260  0.00  0.00     0.000 C
ATOM     80  C4  Z9L D   5      -5.572  28.770 -45.6790  0.00  0.00     0.000 C
ATOM     81  C5  Z9L D   5      -7.089  29.270 -45.4540  0.00  0.00     0.000 C
ATOM     82  O5  Z9L D   5      -7.511  28.726 -44.1940  0.00  0.00     0.000 O
ATOM     83   C  Z9L D   5      -7.474  30.676 -42.3070  0.00  0.00     0.000 C
ATOM     84   C  Z9L D   5      -7.474  30.676 -42.3070  0.00  0.00     0.000 C
BRANCH 78 85
ATOM     85   O  Z9L D   5      -4.309  28.145 -42.1590  0.00  0.00     0.000 O
ATOM     86   O  Z9L D   5      -3.695  26.791 -40.9340  0.00  0.00     0.000 OA
ATOM     87   S  Z9L D   5      -4.357  26.538 -42.1770  0.00  0.00     0.000 S
ATOM     88   O  Z9L D   5      -3.354  25.937 -43.0210  0.00  0.00     0.000 OA
ATOM     89   O  Z9L D   5      -5.598  25.938 -41.8250  0.00  0.00     0.000 OA
ENDBRANCH 78 85
BRANCH 79 90
ATOM     90   O  Z9L D   5      -3.452  27.773 -45.2820  0.00  0.00     0.000 O
ATOM     91   S  Z9L D   5      -2.409  28.899 -44.8560  0.00  0.00     0.000 S
ATOM     92   O  Z9L D   5      -2.237  29.311 -43.4880  0.00  0.00     0.000 OA
ATOM     93   O  Z9L D   5      -2.251  29.838 -45.9390  0.00  0.00     0.000 O
ATOM     94   O  Z9L D   5      -1.498  27.826 -45.0920  0.00  0.00     0.000 OA
ENDBRANCH 79 90
BRANCH 81 95
ATOM     95   C  Z9L D   5      -8.135  29.165 -46.7600  0.00  0.00     0.000 C
ATOM     96   S  Z9L D   5      -9.494  28.026 -47.6680  0.00  0.00     0.000 S
ATOM     97   O  Z9L D   5      -8.153  27.768 -46.8840  0.00  0.00     0.000 O
ATOM     98   O  Z9L D   5      -9.128  28.590 -48.9410  0.00  0.00     0.000 OA
ATOM     99   O  Z9L D   5     -10.567  28.562 -46.9000  0.00  0.00     0.000 OA
ATOM    100   O  Z9L D   5      -9.450  26.588 -47.7770  0.00  0.00     0.000 O
ENDBRANCH 81 95
ENDBRANCH 76 80
ENDBRANCH 60 76
ENDBRANCH 59 63
ENDBRANCH 37 59
ENDBRANCH 36 40
ENDBRANCH 23 36
ENDBRANCH 22 26
ENDBRANCH 1 22
TORSDOF 19
ENDMDL
MODEL 30
REMARK VINA RESULT:      -7.1     30.093     35.704
ROOT
ATOM      1  C1  Z9H D   1      10.062  40.556 -36.9780  0.00  0.00     0.000 C
ATOM      2  C2  Z9H D   1      10.866  39.588 -37.8780  0.00  0.00     0.000 C
ATOM      3  C3  Z9H D   1      12.261  40.274 -37.7490  0.00  0.00     0.000 C
ATOM      4  C4  Z9H D   1      12.279  41.835 -38.0210  0.00  0.00     0.000 C
ATOM      5  C5  Z9H D   1      11.238  42.835 -37.3780  0.00  0.00     0.000 C
ATOM      6  O5  Z9H D   1      10.071  41.986 -37.2410  0.00  0.00     0.000 O
ATOM      7   O  Z9H D   1      13.246  39.619 -38.5520  0.00  0.00     0.000 O
ATOM      8   C  Z9H D   1      14.090  38.688 -37.8540  0.00  0.00     0.000 C
ATOM      9   O  Z9H D   1      13.585  42.281 -37.6400  0.00  0.00     0.000 O
ATOM     10   C  Z9H D   1      14.515  42.456 -38.7130  0.00  0.00     0.000 C
ENDROOT
BRANCH 2 11
ATOM     11   O  Z9H D   1      10.947  38.440 -37.0740  0.00  0.00     0.000 O
ATOM     12   O  Z9H D   1      10.126  36.795 -37.4920  0.00  0.00     0.000 OA
ATOM     13   S  Z9H D   1      10.092  37.952 -38.3210  0.00  0.00     0.000 S
ATOM     14   O  Z9H D   1      10.960  37.875 -39.4610  0.00  0.00     0.000 OA
ATOM     15   O  Z9H D   1       8.769  38.534 -38.3210  0.00  0.00     0.000 O
ENDBRANCH 2 11
BRANCH 5 16
ATOM     16   C  Z9H D   1      11.143  44.333 -38.1200  0.00  0.00     0.000 C
ATOM     17   S  Z9H D   1      11.747  45.406 -39.7080  0.00  0.00     0.000 S
ATOM     18   O  Z9H D   1      11.243  43.893 -39.4530  0.00  0.00     0.000 O
ATOM     19   O  Z9H D   1      13.021  45.722 -39.1300  0.00  0.00     0.000 O
ATOM     20   O  Z9H D   1      10.642  46.299 -39.6950  0.00  0.00     0.000 OA
ATOM     21   O  Z9H D   1      11.875  44.888 -41.0390  0.00  0.00     0.000 OA
ENDBRANCH 5 16
BRANCH 1 22
ATOM     22  O4  GU1 D   2      10.447  40.543 -35.5560  0.00  0.00     0.000 O
BRANCH 22 26
ATOM     23  C1  GU1 D   2       9.054  40.868 -31.6930  0.00  0.00     0.000 C
ATOM     24  C2  GU1 D   2       8.088  40.213 -32.6680  0.00  0.00     0.000 C
ATOM     25  C3  GU1 D   2       8.831  39.809 -33.9080  0.00  0.00     0.000 C
ATOM     26  C4  GU1 D   2       9.600  40.987 -34.4890  0.00  0.00     0.000 C
ATOM     27  C5  GU1 D   2      10.461  41.638 -33.4020  0.00  0.00     0.000 C
ATOM     28  O5  GU1 D   2       9.657  42.012 -32.2870  0.00  0.00     0.000 O
ATOM     29   O  GU1 D   2       7.481  39.051 -32.1150  0.00  0.00     0.000 O
ATOM     30   C  GU1 D   2       6.196  39.284 -31.5570  0.00  0.00     0.000 C
ATOM     31   C  GU1 D   2       7.792  37.944 -35.0190  0.00  0.00     0.000 C
ATOM     32   O  GU1 D   2       7.880  39.360 -34.8790  0.00  0.00     0.000 O
BRANCH 27 33
ATOM     33   C  GU1 D   2      11.143  42.883 -33.9190  0.00  0.00     0.000 C
ATOM     34   O  GU1 D   2      10.458  43.851 -34.1790  0.00  0.00     0.000 OA
ATOM     35   O  GU1 D   2      12.355  42.911 -34.0650  0.00  0.00     0.000 O
ENDBRANCH 27 33
BRANCH 23 36
ATOM     36  O4  GU6 D   3       8.549  41.562 -30.5350  0.00  0.00     0.000 O
BRANCH 36 40
ATOM     37  C1  GU6 D   3       6.312  42.981 -27.4240  0.00  0.00     0.000 C
ATOM     38  C2  GU6 D   3       5.801  43.403 -28.7960  0.00  0.00     0.000 C
ATOM     39  C3  GU6 D   3       6.517  42.619 -29.8640  0.00  0.00     0.000 C
ATOM     40  C4  GU6 D   3       7.668  41.805 -29.4570  0.00  0.00     0.000 C
ATOM     41  C5  GU6 D   3       8.482  42.564 -28.3570  0.00  0.00     0.000 C
ATOM     42  O5  GU6 D   3       7.706  43.239 -27.3600  0.00  0.00     0.000 O
BRANCH 38 43
ATOM     43   O  GU6 D   3       4.406  43.192 -28.8940  0.00  0.00     0.000 O
ATOM     44   S  GU6 D   3       3.559  44.398 -28.5120  0.00  0.00     0.000 S
ATOM     45   O  GU6 D   3       3.441  44.442 -27.0440  0.00  0.00     0.000 OA
ATOM     46   O  GU6 D   3       4.236  45.619 -28.9860  0.00  0.00     0.000 O
ATOM     47   O  GU6 D   3       2.250  44.274 -29.1470  0.00  0.00     0.000 OA
ENDBRANCH 38 43
BRANCH 39 48
ATOM     48   O  GU6 D   3       5.965  42.485 -31.1600  0.00  0.00     0.000 O
ATOM     49   S  GU6 D   3       5.909  43.489 -32.3110  0.00  0.00     0.000 S
ATOM     50   O  GU6 D   3       7.260  43.964 -32.6320  0.00  0.00     0.000 OA
ATOM     51   O  GU6 D   3       5.348  42.698 -33.4150  0.00  0.00     0.000 OA
ATOM     52   O  GU6 D   3       5.053  44.628 -31.9130  0.00  0.00     0.000 O
ENDBRANCH 39 48
BRANCH 41 53
ATOM     53   C  GU6 D   3       9.973  42.674 -28.1890  0.00  0.00     0.000 C
ATOM     54   O  GU6 D   3      10.082  44.065 -28.3540  0.00  0.00     0.000 O
ATOM     55   S  GU6 D   3      11.460  44.739 -28.3890  0.00  0.00     0.000 S
ATOM     56   O  GU6 D   3      12.140  44.258 -29.6140  0.00  0.00     0.000 O
ATOM     57   O  GU6 D   3      11.267  46.196 -28.4390  0.00  0.00     0.000 OA
ATOM     58   O  GU6 D   3      12.188  44.312 -27.1730  0.00  0.00     0.000 OA
ENDBRANCH 41 53
BRANCH 37 59
ATOM     59  O4  Z9K D   4       6.086  41.691 -26.8170  0.00  0.00     0.000 O
BRANCH 59 63
ATOM     60  C1  Z9K D   4       4.364  42.565 -23.3940  0.00  0.00     0.000 C
ATOM     61  C2  Z9K D   4       5.862  42.548 -22.9810  0.00  0.00     0.000 C
ATOM     62  C3  Z9K D   4       6.563  42.378 -24.3990  0.00  0.00     0.000 C
ATOM     63  C4  Z9K D   4       5.996  41.312 -25.4120  0.00  0.00     0.000 C
ATOM     64  C5  Z9K D   4       4.508  40.961 -25.2610  0.00  0.00     0.000 C
ATOM     65  O5  Z9K D   4       3.930  42.207 -24.7890  0.00  0.00     0.000 O
ATOM     66   O  Z9K D   4       7.970  42.089 -24.3070  0.00  0.00     0.000 O
ATOM     67   C  Z9K D   4       8.797  43.235 -24.1890  0.00  0.00     0.000 C
BRANCH 61 68
ATOM     68   O  Z9K D   4       6.181  43.838 -22.5370  0.00  0.00     0.000 O
ATOM     69   O  Z9K D   4       7.482  42.062 -21.2330  0.00  0.00     0.000 OA
ATOM     70   S  Z9K D   4       6.370  42.963 -21.1870  0.00  0.00     0.000 S
ATOM     71   O  Z9K D   4       5.083  42.674 -20.6350  0.00  0.00     0.000 OA
ATOM     72   O  Z9K D   4       6.786  44.263 -20.7710  0.00  0.00     0.000 OA
ENDBRANCH 61 68
BRANCH 64 73
ATOM     73   C  Z9K D   4       3.958  40.333 -26.5580  0.00  0.00     0.000 C
ATOM     74   O  Z9K D   4       3.038  40.896 -27.2210  0.00  0.00     0.000 O
ATOM     75   O  Z9K D   4       4.402  39.248 -27.0080  0.00  0.00     0.000 OA
ENDBRANCH 64 73
BRANCH 60 76
ATOM     76  O4  Z9L D   5       3.254  41.910 -22.7570  0.00  0.00     0.000 O
BRANCH 76 80
ATOM     77  C1  Z9L D   5      -0.540  42.341 -21.5770  0.00  0.00     0.000 C
ATOM     78  C2  Z9L D   5      -0.532  41.233 -22.7370  0.00  0.00     0.000 C
ATOM     79  C3  Z9L D   5       1.071  40.722 -22.9090  0.00  0.00     0.000 C
ATOM     80  C4  Z9L D   5       1.873  42.159 -22.8140  0.00  0.00     0.000 C
ATOM     81  C5  Z9L D   5       1.714  43.389 -21.7840  0.00  0.00     0.000 C
ATOM     82  O5  Z9L D   5       0.304  43.564 -21.5780  0.00  0.00     0.000 O
ATOM     83   C  Z9L D   5      -0.394  42.542 -19.1630  0.00  0.00     0.000 C
ATOM     84   C  Z9L D   5      -0.394  42.542 -19.1630  0.00  0.00     0.000 C
BRANCH 78 85
ATOM     85   O  Z9L D   5      -1.310  40.160 -22.3140  0.00  0.00     0.000 O
ATOM     86   O  Z9L D   5      -3.050  39.713 -23.0080  0.00  0.00     0.000 OA
ATOM     87   S  Z9L D   5      -2.195  40.738 -23.5250  0.00  0.00     0.000 S
ATOM     88   O  Z9L D   5      -1.784  40.262 -24.8230  0.00  0.00     0.000 OA
ATOM     89   O  Z9L D   5      -2.882  41.959 -23.2810  0.00  0.00     0.000 OA
ENDBRANCH 78 85
BRANCH 79 90
ATOM     90   O  Z9L D   5       1.336  40.313 -24.2130  0.00  0.00     0.000 O
ATOM     91   S  Z9L D   5       1.686  38.968 -23.4350  0.00  0.00     0.000 S
ATOM     92   O  Z9L D   5       0.742  38.312 -22.5680  0.00  0.00     0.000 OA
ATOM     93   O  Z9L D   5       3.099  38.932 -23.1550  0.00  0.00     0.000 O
ATOM     94   O  Z9L D   5       1.502  38.431 -24.7440  0.00  0.00     0.000 OA
ENDBRANCH 79 90
BRANCH 81 95
ATOM     95   C  Z9L D   5       2.656  44.749 -22.0590  0.00  0.00     0.000 C
ATOM     96   S  Z9L D   5       3.123  46.566 -21.3900  0.00  0.00     0.000 S
ATOM     97   O  Z9L D   5       1.813  45.695 -21.4570  0.00  0.00     0.000 O
ATOM     98   O  Z9L D   5       3.405  46.997 -22.7350  0.00  0.00     0.000 OA
ATOM     99   O  Z9L D   5       4.153  46.071 -20.5390  0.00  0.00     0.000 OA
ATOM    100   O  Z9L D   5       2.205  47.505 -20.7930  0.00  0.00     0.000 O
ENDBRANCH 81 95
ENDBRANCH 76 80
ENDBRANCH 60 76
ENDBRANCH 59 63
ENDBRANCH 37 59
ENDBRANCH 36 40
ENDBRANCH 23 36
ENDBRANCH 22 26
ENDBRANCH 1 22
TORSDOF 19
ENDMDL
MODEL 31
REMARK VINA RESULT:      -7.1     29.726     35.366
ROOT
ATOM      1  C1  Z9H D   1       9.024  39.791 -36.8930  0.00  0.00     0.000 C
ATOM      2  C2  Z9H D   1      10.308  39.866 -37.7540  0.00  0.00     0.000 C
ATOM      3  C3  Z9H D   1      10.146  41.329 -38.2680  0.00  0.00     0.000 C
ATOM      4  C4  Z9H D   1       8.732  41.677 -38.8930  0.00  0.00     0.000 C
ATOM      5  C5  Z9H D   1       7.363  41.303 -38.1960  0.00  0.00     0.000 C
ATOM      6  O5  Z9H D   1       7.727  40.098 -37.4770  0.00  0.00     0.000 O
ATOM      7   O  Z9H D   1      11.191  41.687 -39.1740  0.00  0.00     0.000 O
ATOM      8   C  Z9H D   1      12.273  42.439 -38.5990  0.00  0.00     0.000 C
ATOM      9   O  Z9H D   1       8.732  43.094 -39.0910  0.00  0.00     0.000 O
ATOM     10   C  Z9H D   1       9.018  43.532 -40.4230  0.00  0.00     0.000 C
ENDROOT
BRANCH 2 11
ATOM     11   O  Z9H D   1      11.312  39.931 -36.7750  0.00  0.00     0.000 O
ATOM     12   O  Z9H D   1      12.563  38.558 -36.4470  0.00  0.00     0.000 OA
ATOM     13   S  Z9H D   1      11.570  38.525 -37.4680  0.00  0.00     0.000 S
ATOM     14   O  Z9H D   1      12.086  38.760 -38.7870  0.00  0.00     0.000 OA
ATOM     15   O  Z9H D   1      10.538  37.569 -37.1370  0.00  0.00     0.000 O
ENDBRANCH 2 11
BRANCH 5 16
ATOM     16   C  Z9H D   1       6.023  41.349 -39.1970  0.00  0.00     0.000 C
ATOM     17   S  Z9H D   1       5.417  41.313 -41.1130  0.00  0.00     0.000 S
ATOM     18   O  Z9H D   1       6.528  40.541 -40.2320  0.00  0.00     0.000 O
ATOM     19   O  Z9H D   1       5.676  42.709 -41.3200  0.00  0.00     0.000 O
ATOM     20   O  Z9H D   1       4.124  40.793 -40.8360  0.00  0.00     0.000 OA
ATOM     21   O  Z9H D   1       6.005  40.501 -42.1380  0.00  0.00     0.000 OA
ENDBRANCH 5 16
BRANCH 1 22
ATOM     22  O4  GU1 D   2       9.010  40.687 -35.7240  0.00  0.00     0.000 O
BRANCH 22 26
ATOM     23  C1  GU1 D   2       7.424  40.982 -31.9330  0.00  0.00     0.000 C
ATOM     24  C2  GU1 D   2       7.326  39.600 -32.5620  0.00  0.00     0.000 C
ATOM     25  C3  GU1 D   2       8.254  39.523 -33.7390  0.00  0.00     0.000 C
ATOM     26  C4  GU1 D   2       7.999  40.668 -34.7090  0.00  0.00     0.000 C
ATOM     27  C5  GU1 D   2       8.016  42.003 -33.9590  0.00  0.00     0.000 C
ATOM     28  O5  GU1 D   2       7.080  41.983 -32.8840  0.00  0.00     0.000 O
ATOM     29   O  GU1 D   2       7.684  38.572 -31.6460  0.00  0.00     0.000 O
ATOM     30   C  GU1 D   2       6.574  37.964 -31.0010  0.00  0.00     0.000 C
ATOM     31   C  GU1 D   2       8.986  37.270 -34.1680  0.00  0.00     0.000 C
ATOM     32   O  GU1 D   2       8.018  38.286 -34.4200  0.00  0.00     0.000 O
BRANCH 27 33
ATOM     33   C  GU1 D   2       7.647  43.148 -34.8720  0.00  0.00     0.000 C
ATOM     34   O  GU1 D   2       8.434  44.063 -34.9980  0.00  0.00     0.000 OA
ATOM     35   O  GU1 D   2       6.582  43.146 -35.4700  0.00  0.00     0.000 O
ENDBRANCH 27 33
BRANCH 23 36
ATOM     36  O4  GU6 D   3       6.460  41.393 -30.9430  0.00  0.00     0.000 O
BRANCH 36 40
ATOM     37  C1  GU6 D   3       5.535  42.978 -27.2930  0.00  0.00     0.000 C
ATOM     38  C2  GU6 D   3       4.719  43.556 -28.4430  0.00  0.00     0.000 C
ATOM     39  C3  GU6 D   3       4.936  42.727 -29.6820  0.00  0.00     0.000 C
ATOM     40  C4  GU6 D   3       5.997  41.715 -29.6470  0.00  0.00     0.000 C
ATOM     41  C5  GU6 D   3       7.221  42.267 -28.8440  0.00  0.00     0.000 C
ATOM     42  O5  GU6 D   3       6.907  43.002 -27.6550  0.00  0.00     0.000 O
BRANCH 38 43
ATOM     43   O  GU6 D   3       3.344  43.581 -28.1130  0.00  0.00     0.000 O
ATOM     44   S  GU6 D   3       2.776  44.977 -27.8890  0.00  0.00     0.000 S
ATOM     45   O  GU6 D   3       3.105  45.401 -26.5170  0.00  0.00     0.000 OA
ATOM     46   O  GU6 D   3       3.404  45.901 -28.8510  0.00  0.00     0.000 O
ATOM     47   O  GU6 D   3       1.333  44.937 -28.1020  0.00  0.00     0.000 OA
ENDBRANCH 38 43
BRANCH 39 48
ATOM     48   O  GU6 D   3       4.008  42.759 -30.7490  0.00  0.00     0.000 O
ATOM     49   S  GU6 D   3       3.020  41.693 -31.2220  0.00  0.00     0.000 S
ATOM     50   O  GU6 D   3       2.153  41.279 -30.1120  0.00  0.00     0.000 OA
ATOM     51   O  GU6 D   3       2.253  42.389 -32.2630  0.00  0.00     0.000 OA
ATOM     52   O  GU6 D   3       3.778  40.530 -31.7340  0.00  0.00     0.000 O
ENDBRANCH 39 48
BRANCH 41 53
ATOM     53   C  GU6 D   3       8.690  42.123 -29.1370  0.00  0.00     0.000 C
ATOM     54   O  GU6 D   3       9.153  42.156 -27.8110  0.00  0.00     0.000 O
ATOM     55   S  GU6 D   3      10.658  42.156 -27.5130  0.00  0.00     0.000 S
ATOM     56   O  GU6 D   3      11.196  43.436 -28.0290  0.00  0.00     0.000 O
ATOM     57   O  GU6 D   3      10.846  42.062 -26.0580  0.00  0.00     0.000 OA
ATOM     58   O  GU6 D   3      11.248  41.004 -28.2290  0.00  0.00     0.000 OA
ENDBRANCH 41 53
BRANCH 37 59
ATOM     59  O4  Z9K D   4       5.282  41.710 -26.6520  0.00  0.00     0.000 O
BRANCH 59 63
ATOM     60  C1  Z9K D   4       3.760  42.691 -23.1630  0.00  0.00     0.000 C
ATOM     61  C2  Z9K D   4       5.276  42.636 -22.8260  0.00  0.00     0.000 C
ATOM     62  C3  Z9K D   4       5.899  42.422 -24.2730  0.00  0.00     0.000 C
ATOM     63  C4  Z9K D   4       5.252  41.357 -25.2380  0.00  0.00     0.000 C
ATOM     64  C5  Z9K D   4       3.764  41.053 -25.0070  0.00  0.00     0.000 C
ATOM     65  O5  Z9K D   4       3.246  42.323 -24.5280  0.00  0.00     0.000 O
ATOM     66   O  Z9K D   4       7.300  42.094 -24.2460  0.00  0.00     0.000 O
ATOM     67   C  Z9K D   4       8.164  43.217 -24.1900  0.00  0.00     0.000 C
BRANCH 61 68
ATOM     68   O  Z9K D   4       5.653  43.924 -22.4210  0.00  0.00     0.000 O
ATOM     69   O  Z9K D   4       6.991  42.132 -21.1770  0.00  0.00     0.000 OA
ATOM     70   S  Z9K D   4       5.906  43.061 -21.0740  0.00  0.00     0.000 S
ATOM     71   O  Z9K D   4       4.650  42.812 -20.4370  0.00  0.00     0.000 OA
ATOM     72   O  Z9K D   4       6.379  44.356 -20.7030  0.00  0.00     0.000 OA
ENDBRANCH 61 68
BRANCH 64 73
ATOM     73   C  Z9K D   4       3.131  40.420 -26.2640  0.00  0.00     0.000 C
ATOM     74   O  Z9K D   4       3.623  39.382 -26.7940  0.00  0.00     0.000 O
ATOM     75   O  Z9K D   4       2.105  40.903 -26.8020  0.00  0.00     0.000 OA
ENDBRANCH 64 73
BRANCH 60 76
ATOM     76  O4  Z9L D   5       2.665  42.079 -22.4610  0.00  0.00     0.000 O
BRANCH 76 80
ATOM     77  C1  Z9L D   5      -1.164  42.474 -21.3860  0.00  0.00     0.000 C
ATOM     78  C2  Z9L D   5      -1.092  41.259 -22.4300  0.00  0.00     0.000 C
ATOM     79  C3  Z9L D   5       0.532  40.797 -22.5270  0.00  0.00     0.000 C
ATOM     80  C4  Z9L D   5       1.277  42.266 -22.5630  0.00  0.00     0.000 C
ATOM     81  C5  Z9L D   5       1.052  43.584 -21.6610  0.00  0.00     0.000 C
ATOM     82  O5  Z9L D   5      -0.367  43.723 -21.4950  0.00  0.00     0.000 O
ATOM     83   C  Z9L D   5      -1.071  42.916 -19.0010  0.00  0.00     0.000 C
ATOM     84   C  Z9L D   5      -1.071  42.916 -19.0010  0.00  0.00     0.000 C
BRANCH 78 85
ATOM     85   O  Z9L D   5      -1.837  40.202 -21.9150  0.00  0.00     0.000 O
ATOM     86   O  Z9L D   5      -3.549  39.626 -22.5840  0.00  0.00     0.000 OA
ATOM     87   S  Z9L D   5      -2.724  40.627 -23.1860  0.00  0.00     0.000 S
ATOM     88   O  Z9L D   5      -2.276  40.046 -24.4280  0.00  0.00     0.000 OA
ATOM     89   O  Z9L D   5      -3.459  41.839 -23.0690  0.00  0.00     0.000 OA
ENDBRANCH 78 85
BRANCH 79 90
ATOM     90   O  Z9L D   5       0.837  40.273 -23.7800  0.00  0.00     0.000 O
ATOM     91   S  Z9L D   5       1.274  39.046 -22.8640  0.00  0.00     0.000 S
ATOM     92   O  Z9L D   5       0.372  38.419 -21.9340  0.00  0.00     0.000 OA
ATOM     93   O  Z9L D   5       2.684  39.141 -22.5800  0.00  0.00     0.000 O
ATOM     94   O  Z9L D   5       1.140  38.362 -24.1090  0.00  0.00     0.000 OA
ENDBRANCH 79 90
BRANCH 81 95
ATOM     95   C  Z9L D   5       1.947  44.947 -22.0550  0.00  0.00     0.000 C
ATOM     96   S  Z9L D   5       2.558  46.732 -21.4150  0.00  0.00     0.000 S
ATOM     97   O  Z9L D   5       1.245  45.874 -21.2710  0.00  0.00     0.000 O
ATOM     98   O  Z9L D   5       2.590  47.215 -22.7720  0.00  0.00     0.000 OA
ATOM     99   O  Z9L D   5       3.720  46.194 -20.7920  0.00  0.00     0.000 OA
ATOM    100   O  Z9L D   5       1.782  47.653 -20.6220  0.00  0.00     0.000 O
ENDBRANCH 81 95
ENDBRANCH 76 80
ENDBRANCH 60 76
ENDBRANCH 59 63
ENDBRANCH 37 59
ENDBRANCH 36 40
ENDBRANCH 23 36
ENDBRANCH 22 26
ENDBRANCH 1 22
TORSDOF 19
ENDMDL
MODEL 32
REMARK VINA RESULT:      -7.1     37.058     43.232
ROOT
ATOM      1  C1  Z9H D   1       8.289  41.992 -27.8020  0.00  0.00     0.000 C
ATOM      2  C2  Z9H D   1       9.348  42.485 -28.8160  0.00  0.00     0.000 C
ATOM      3  C3  Z9H D   1       8.377  42.922 -29.9560  0.00  0.00     0.000 C
ATOM      4  C4  Z9H D   1       7.295  41.843 -30.3770  0.00  0.00     0.000 C
ATOM      5  C5  Z9H D   1       6.415  41.049 -29.3320  0.00  0.00     0.000 C
ATOM      6  O5  Z9H D   1       7.307  40.991 -28.1900  0.00  0.00     0.000 O
ATOM      7   O  Z9H D   1       9.090  43.385 -31.1050  0.00  0.00     0.000 O
ATOM      8   C  Z9H D   1       9.214  44.813 -31.2170  0.00  0.00     0.000 C
ATOM      9   O  Z9H D   1       6.395  42.520 -31.2600  0.00  0.00     0.000 O
ATOM     10   C  Z9H D   1       6.619  42.302 -32.6560  0.00  0.00     0.000 C
ENDROOT
BRANCH 2 11
ATOM     11   O  Z9H D   1       9.781  43.683 -28.2260  0.00  0.00     0.000 O
ATOM     12   O  Z9H D   1      11.495  43.938 -27.4810  0.00  0.00     0.000 OA
ATOM     13   S  Z9H D   1      11.059  42.745 -28.1240  0.00  0.00     0.000 S
ATOM     14   O  Z9H D   1      11.595  42.568 -29.4440  0.00  0.00     0.000 OA
ATOM     15   O  Z9H D   1      10.870  41.689 -27.1560  0.00  0.00     0.000 O
ENDBRANCH 2 11
BRANCH 5 16
ATOM     16   C  Z9H D   1       5.675  39.672 -29.9290  0.00  0.00     0.000 C
ATOM     17   S  Z9H D   1       5.823  38.205 -31.2960  0.00  0.00     0.000 S
ATOM     18   O  Z9H D   1       6.840  38.977 -30.3080  0.00  0.00     0.000 O
ATOM     19   O  Z9H D   1       5.286  39.009 -32.3560  0.00  0.00     0.000 O
ATOM     20   O  Z9H D   1       5.051  37.262 -30.5650  0.00  0.00     0.000 OA
ATOM     21   O  Z9H D   1       7.049  37.566 -31.6760  0.00  0.00     0.000 OA
ENDBRANCH 5 16
BRANCH 1 22
ATOM     22  O4  GU1 D   2       7.403  43.043 -27.2700  0.00  0.00     0.000 O
BRANCH 22 26
ATOM     23  C1  GU1 D   2       5.129  44.131 -24.0120  0.00  0.00     0.000 C
ATOM     24  C2  GU1 D   2       6.301  43.214 -23.6970  0.00  0.00     0.000 C
ATOM     25  C3  GU1 D   2       7.251  43.203 -24.8590  0.00  0.00     0.000 C
ATOM     26  C4  GU1 D   2       6.525  42.865 -26.1520  0.00  0.00     0.000 C
ATOM     27  C5  GU1 D   2       5.305  43.775 -26.3230  0.00  0.00     0.000 C
ATOM     28  O5  GU1 D   2       4.454  43.687 -25.1830  0.00  0.00     0.000 O
ATOM     29   O  GU1 D   2       7.015  43.640 -22.5420  0.00  0.00     0.000 O
ATOM     30   C  GU1 D   2       6.633  42.969 -21.3500  0.00  0.00     0.000 C
ATOM     31   C  GU1 D   2       9.507  42.709 -24.1790  0.00  0.00     0.000 C
ATOM     32   O  GU1 D   2       8.248  42.204 -24.6190  0.00  0.00     0.000 O
BRANCH 27 33
ATOM     33   C  GU1 D   2       4.496  43.384 -27.5360  0.00  0.00     0.000 C
ATOM     34   O  GU1 D   2       4.587  44.066 -28.5360  0.00  0.00     0.000 OA
ATOM     35   O  GU1 D   2       3.772  42.401 -27.5090  0.00  0.00     0.000 O
ENDBRANCH 27 33
BRANCH 23 36
ATOM     36  O4  GU6 D   3       3.962  44.126 -23.1670  0.00  0.00     0.000 O
BRANCH 36 40
ATOM     37  C1  GU6 D   3       1.211  44.616 -20.1860  0.00  0.00     0.000 C
ATOM     38  C2  GU6 D   3       1.505  43.159 -20.5230  0.00  0.00     0.000 C
ATOM     39  C3  GU6 D   3       2.710  43.083 -21.4240  0.00  0.00     0.000 C
ATOM     40  C4  GU6 D   3       3.226  44.339 -21.9790  0.00  0.00     0.000 C
ATOM     41  C5  GU6 D   3       2.030  45.281 -22.3400  0.00  0.00     0.000 C
ATOM     42  O5  GU6 D   3       0.956  45.317 -21.3930  0.00  0.00     0.000 O
BRANCH 38 43
ATOM     43   O  GU6 D   3       1.736  42.413 -19.3440  0.00  0.00     0.000 O
ATOM     44   S  GU6 D   3       0.471  42.017 -18.5920  0.00  0.00     0.000 S
ATOM     45   O  GU6 D   3       0.036  43.162 -17.7740  0.00  0.00     0.000 OA
ATOM     46   O  GU6 D   3      -0.577  41.690 -19.5750  0.00  0.00     0.000 O
ATOM     47   O  GU6 D   3       0.762  40.851 -17.7640  0.00  0.00     0.000 OA
ENDBRANCH 38 43
BRANCH 39 48
ATOM     48   O  GU6 D   3       3.454  41.885 -21.5420  0.00  0.00     0.000 O
ATOM     49   S  GU6 D   3       3.178  40.638 -22.3800  0.00  0.00     0.000 S
ATOM     50   O  GU6 D   3       3.015  41.004 -23.7920  0.00  0.00     0.000 OA
ATOM     51   O  GU6 D   3       4.386  39.827 -22.1780  0.00  0.00     0.000 OA
ATOM     52   O  GU6 D   3       1.947  39.987 -21.8800  0.00  0.00     0.000 O
ENDBRANCH 39 48
BRANCH 41 53
ATOM     53   C  GU6 D   3       1.855  46.172 -23.5400  0.00  0.00     0.000 C
ATOM     54   O  GU6 D   3       1.107  45.284 -24.3290  0.00  0.00     0.000 O
ATOM     55   S  GU6 D   3       0.731  45.652 -25.7710  0.00  0.00     0.000 S
ATOM     56   O  GU6 D   3       1.995  45.713 -26.5400  0.00  0.00     0.000 O
ATOM     57   O  GU6 D   3      -0.153  44.606 -26.3050  0.00  0.00     0.000 OA
ATOM     58   O  GU6 D   3       0.069  46.975 -25.7280  0.00  0.00     0.000 OA
ENDBRANCH 41 53
BRANCH 37 59
ATOM     59  O4  Z9K D   4       2.045  45.462 -19.3660  0.00  0.00     0.000 O
BRANCH 59 63
ATOM     60  C1  Z9K D   4       0.664  46.404 -15.8090  0.00  0.00     0.000 C
ATOM     61  C2  Z9K D   4      -0.284  47.224 -16.7270  0.00  0.00     0.000 C
ATOM     62  C3  Z9K D   4       0.157  46.698 -18.1620  0.00  0.00     0.000 C
ATOM     63  C4  Z9K D   4       1.692  46.577 -18.4970  0.00  0.00     0.000 C
ATOM     64  C5  Z9K D   4       2.629  46.368 -17.2980  0.00  0.00     0.000 C
ATOM     65  O5  Z9K D   4       1.807  45.606 -16.3750  0.00  0.00     0.000 O
ATOM     66   O  Z9K D   4      -0.398  47.468 -19.2450  0.00  0.00     0.000 O
ATOM     67   C  Z9K D   4      -1.696  47.063 -19.6470  0.00  0.00     0.000 C
BRANCH 61 68
ATOM     68   O  Z9K D   4      -1.583  46.742 -16.5140  0.00  0.00     0.000 O
ATOM     69   O  Z9K D   4      -1.600  49.247 -17.0370  0.00  0.00     0.000 OA
ATOM     70   S  Z9K D   4      -1.703  48.271 -15.9940  0.00  0.00     0.000 S
ATOM     71   O  Z9K D   4      -1.112  48.370 -14.6950  0.00  0.00     0.000 OA
ATOM     72   O  Z9K D   4      -3.044  47.798 -15.8710  0.00  0.00     0.000 OA
ENDBRANCH 61 68
BRANCH 64 73
ATOM     73   C  Z9K D   4       3.979  45.774 -17.7530  0.00  0.00     0.000 C
ATOM     74   O  Z9K D   4       4.244  44.547 -17.5890  0.00  0.00     0.000 O
ATOM     75   O  Z9K D   4       4.859  46.478 -18.3050  0.00  0.00     0.000 OA
ENDBRANCH 64 73
BRANCH 60 76
ATOM     76  O4  Z9L D   5       1.395  46.848 -14.6540  0.00  0.00     0.000 O
BRANCH 76 80
ATOM     77  C1  Z9L D   5       2.475  45.822 -10.9450  0.00  0.00     0.000 C
ATOM     78  C2  Z9L D   5       3.824  46.003 -11.7940  0.00  0.00     0.000 C
ATOM     79  C3  Z9L D   5       3.408  46.865 -13.1890  0.00  0.00     0.000 C
ATOM     80  C4  Z9L D   5       1.990  46.134 -13.6010  0.00  0.00     0.000 C
ATOM     81  C5  Z9L D   5       0.710  45.735 -12.7050  0.00  0.00     0.000 C
ATOM     82  O5  Z9L D   5       1.227  45.213 -11.4720  0.00  0.00     0.000 O
ATOM     83   C  Z9L D   5       0.966  47.077  -9.5170  0.00  0.00     0.000 C
ATOM     84   C  Z9L D   5       0.966  47.077  -9.5170  0.00  0.00     0.000 C
BRANCH 78 85
ATOM     85   O  Z9L D   5       4.712  46.761 -11.0370  0.00  0.00     0.000 O
ATOM     86   O  Z9L D   5       6.294  46.079 -10.1760  0.00  0.00     0.000 OA
ATOM     87   S  Z9L D   5       5.448  45.333 -11.0560  0.00  0.00     0.000 S
ATOM     88   O  Z9L D   5       6.245  45.105 -12.2370  0.00  0.00     0.000 OA
ATOM     89   O  Z9L D   5       4.873  44.313 -10.2480  0.00  0.00     0.000 OA
ENDBRANCH 78 85
BRANCH 79 90
ATOM     90   O  Z9L D   5       4.239  46.536 -14.2560  0.00  0.00     0.000 O
ATOM     91   S  Z9L D   5       4.461  48.112 -14.2210  0.00  0.00     0.000 S
ATOM     92   O  Z9L D   5       4.911  48.801 -13.0400  0.00  0.00     0.000 OA
ATOM     93   O  Z9L D   5       3.552  48.743 -15.1460  0.00  0.00     0.000 O
ATOM     94   O  Z9L D   5       5.623  47.737 -14.9610  0.00  0.00     0.000 OA
ENDBRANCH 79 90
BRANCH 81 95
ATOM     95   C  Z9L D   5      -0.533  44.904 -13.4660  0.00  0.00     0.000 C
ATOM     96   S  Z9L D   5      -1.234  43.100 -13.9370  0.00  0.00     0.000 S
ATOM     97   O  Z9L D   5       0.192  43.761 -13.8310  0.00  0.00     0.000 O
ATOM     98   O  Z9L D   5      -1.855  43.642 -15.1180  0.00  0.00     0.000 OA
ATOM     99   O  Z9L D   5      -1.951  42.976 -12.7120  0.00  0.00     0.000 OA
ATOM    100   O  Z9L D   5      -0.437  41.962 -14.3230  0.00  0.00     0.000 O
ENDBRANCH 81 95
ENDBRANCH 76 80
ENDBRANCH 60 76
ENDBRANCH 59 63
ENDBRANCH 37 59
ENDBRANCH 36 40
ENDBRANCH 23 36
ENDBRANCH 22 26
ENDBRANCH 1 22
TORSDOF 19
ENDMDL
MODEL 33
REMARK VINA RESULT:      -7.1     13.914     20.113
ROOT
ATOM      1  C1  Z9H D   1      16.033   8.294 -54.3520  0.00  0.00     0.000 C
ATOM      2  C2  Z9H D   1      16.315   8.858 -55.7650  0.00  0.00     0.000 C
ATOM      3  C3  Z9H D   1      17.163   7.670 -56.3140  0.00  0.00     0.000 C
ATOM      4  C4  Z9H D   1      18.352   7.196 -55.3810  0.00  0.00     0.000 C
ATOM      5  C5  Z9H D   1      18.183   6.935 -53.8310  0.00  0.00     0.000 C
ATOM      6  O5  Z9H D   1      17.131   7.874 -53.4950  0.00  0.00     0.000 O
ATOM      7   O  Z9H D   1      17.641   7.930 -57.6350  0.00  0.00     0.000 O
ATOM      8   C  Z9H D   1      16.871   7.341 -58.6960  0.00  0.00     0.000 C
ATOM      9   O  Z9H D   1      18.843   5.984 -55.9620  0.00  0.00     0.000 O
ATOM     10   C  Z9H D   1      20.017   6.117 -56.7690  0.00  0.00     0.000 C
ENDROOT
BRANCH 2 11
ATOM     11   O  Z9H D   1      15.062   8.730 -56.3850  0.00  0.00     0.000 O
ATOM     12   O  Z9H D   1      13.980  10.188 -56.8980  0.00  0.00     0.000 OA
ATOM     13   S  Z9H D   1      15.273  10.303 -56.3120  0.00  0.00     0.000 S
ATOM     14   O  Z9H D   1      16.302  10.665 -57.2440  0.00  0.00     0.000 OA
ATOM     15   O  Z9H D   1      15.170  10.793 -54.9560  0.00  0.00     0.000 O
ENDBRANCH 2 11
BRANCH 5 16
ATOM     16   C  Z9H D   1      19.612   6.882 -52.9610  0.00  0.00     0.000 C
ATOM     17   S  Z9H D   1      21.529   7.485 -52.9380  0.00  0.00     0.000 S
ATOM     18   O  Z9H D   1      20.109   8.145 -53.3300  0.00  0.00     0.000 O
ATOM     19   O  Z9H D   1      21.970   6.438 -53.8130  0.00  0.00     0.000 O
ATOM     20   O  Z9H D   1      21.670   7.431 -51.5240  0.00  0.00     0.000 OA
ATOM     21   O  Z9H D   1      21.982   8.774 -53.3730  0.00  0.00     0.000 OA
ENDBRANCH 5 16
BRANCH 1 22
ATOM     22  O4  GU1 D   2      15.194   7.083 -54.3250  0.00  0.00     0.000 O
BRANCH 22 26
ATOM     23  C1  GU1 D   2      12.088   5.281 -52.3060  0.00  0.00     0.000 C
ATOM     24  C2  GU1 D   2      12.147   6.794 -52.1690  0.00  0.00     0.000 C
ATOM     25  C3  GU1 D   2      13.052   7.355 -53.2280  0.00  0.00     0.000 C
ATOM     26  C4  GU1 D   2      14.412   6.673 -53.1970  0.00  0.00     0.000 C
ATOM     27  C5  GU1 D   2      14.237   5.151 -53.2350  0.00  0.00     0.000 C
ATOM     28  O5  GU1 D   2      13.389   4.721 -52.1730  0.00  0.00     0.000 O
ATOM     29   O  GU1 D   2      10.865   7.392 -52.3190  0.00  0.00     0.000 O
ATOM     30   C  GU1 D   2      10.210   7.666 -51.0880  0.00  0.00     0.000 C
ATOM     31   C  GU1 D   2      12.472   9.617 -53.8100  0.00  0.00     0.000 C
ATOM     32   O  GU1 D   2      13.235   8.751 -52.9730  0.00  0.00     0.000 O
BRANCH 27 33
ATOM     33   C  GU1 D   2      15.563   4.445 -53.0840  0.00  0.00     0.000 C
ATOM     34   O  GU1 D   2      16.146   4.531 -52.0220  0.00  0.00     0.000 OA
ATOM     35   O  GU1 D   2      16.031   3.800 -54.0090  0.00  0.00     0.000 O
ENDBRANCH 27 33
BRANCH 23 36
ATOM     36  O4  GU6 D   3      11.486   4.485 -51.2660  0.00  0.00     0.000 O
BRANCH 36 40
ATOM     37  C1  GU6 D   3       9.143   2.913 -48.3110  0.00  0.00     0.000 C
ATOM     38  C2  GU6 D   3      10.521   3.358 -47.8370  0.00  0.00     0.000 C
ATOM     39  C3  GU6 D   3      11.193   4.160 -48.9200  0.00  0.00     0.000 C
ATOM     40  C4  GU6 D   3      10.559   4.185 -50.2430  0.00  0.00     0.000 C
ATOM     41  C5  GU6 D   3       9.960   2.775 -50.5620  0.00  0.00     0.000 C
ATOM     42  O5  GU6 D   3       9.301   2.116 -49.4750  0.00  0.00     0.000 O
BRANCH 38 43
ATOM     43   O  GU6 D   3      10.416   4.132 -46.6570  0.00  0.00     0.000 O
ATOM     44   S  GU6 D   3      10.445   3.321 -45.3680  0.00  0.00     0.000 S
ATOM     45   O  GU6 D   3       9.097   2.780 -45.1250  0.00  0.00     0.000 OA
ATOM     46   O  GU6 D   3      11.397   2.208 -45.5330  0.00  0.00     0.000 O
ATOM     47   O  GU6 D   3      10.874   4.189 -44.2760  0.00  0.00     0.000 OA
ENDBRANCH 38 43
BRANCH 39 48
ATOM     48   O  GU6 D   3      12.258   5.041 -48.6170  0.00  0.00     0.000 O
ATOM     49   S  GU6 D   3      13.702   4.734 -48.2210  0.00  0.00     0.000 S
ATOM     50   O  GU6 D   3      14.331   3.873 -49.2290  0.00  0.00     0.000 OA
ATOM     51   O  GU6 D   3      14.328   6.062 -48.1910  0.00  0.00     0.000 OA
ATOM     52   O  GU6 D   3      13.704   4.057 -46.9050  0.00  0.00     0.000 O
ENDBRANCH 39 48
BRANCH 41 53
ATOM     53   C  GU6 D   3       9.967   2.015 -51.8610  0.00  0.00     0.000 C
ATOM     54   O  GU6 D   3       9.070   2.835 -52.5650  0.00  0.00     0.000 O
ATOM     55   S  GU6 D   3       8.607   2.448 -53.9760  0.00  0.00     0.000 S
ATOM     56   O  GU6 D   3       7.804   1.210 -53.8380  0.00  0.00     0.000 O
ATOM     57   O  GU6 D   3       7.786   3.542 -54.5160  0.00  0.00     0.000 OA
ATOM     58   O  GU6 D   3       9.821   2.207 -54.7870  0.00  0.00     0.000 OA
ENDBRANCH 41 53
BRANCH 37 59
ATOM     59  O4  Z9K D   4       8.022   3.793 -48.5410  0.00  0.00     0.000 O
BRANCH 59 63
ATOM     60  C1  Z9K D   4       4.572   4.832 -46.9730  0.00  0.00     0.000 C
ATOM     61  C2  Z9K D   4       4.554   3.295 -46.7480  0.00  0.00     0.000 C
ATOM     62  C3  Z9K D   4       6.023   2.905 -47.2140  0.00  0.00     0.000 C
ATOM     63  C4  Z9K D   4       6.592   3.515 -48.5510  0.00  0.00     0.000 C
ATOM     64  C5  Z9K D   4       5.998   4.864 -48.9840  0.00  0.00     0.000 C
ATOM     65  O5  Z9K D   4       5.694   5.503 -47.7170  0.00  0.00     0.000 O
ATOM     66   O  Z9K D   4       6.221   1.485 -47.3410  0.00  0.00     0.000 O
ATOM     67   C  Z9K D   4       6.579   0.833 -46.1330  0.00  0.00     0.000 C
BRANCH 61 68
ATOM     68   O  Z9K D   4       4.510   3.083 -45.3630  0.00  0.00     0.000 O
ATOM     69   O  Z9K D   4       3.228   1.259 -46.6210  0.00  0.00     0.000 OA
ATOM     70   S  Z9K D   4       3.096   2.455 -45.8430  0.00  0.00     0.000 S
ATOM     71   O  Z9K D   4       2.175   3.520 -46.0970  0.00  0.00     0.000 OA
ATOM     72   O  Z9K D   4       3.107   2.158 -44.4470  0.00  0.00     0.000 OA
ENDBRANCH 61 68
BRANCH 64 73
ATOM     73   C  Z9K D   4       6.937   5.586 -49.9730  0.00  0.00     0.000 C
ATOM     74   O  Z9K D   4       7.439   6.714 -49.6960  0.00  0.00     0.000 O
ATOM     75   O  Z9K D   4       7.244   5.082 -51.0810  0.00  0.00     0.000 OA
ENDBRANCH 64 73
BRANCH 60 76
ATOM     76  O4  Z9L D   5       3.546   5.666 -47.5390  0.00  0.00     0.000 O
BRANCH 76 80
ATOM     77  C1  Z9L D   5       1.712   9.208 -47.2960  0.00  0.00     0.000 C
ATOM     78  C2  Z9L D   5       2.508   9.186 -48.6880  0.00  0.00     0.000 C
ATOM     79  C3  Z9L D   5       2.889   7.568 -49.0040  0.00  0.00     0.000 C
ATOM     80  C4  Z9L D   5       3.359   7.057 -47.5100  0.00  0.00     0.000 C
ATOM     81  C5  Z9L D   5       2.684   7.271 -46.0610  0.00  0.00     0.000 C
ATOM     82  O5  Z9L D   5       2.224   8.631 -46.0270  0.00  0.00     0.000 O
ATOM     83   C  Z9L D   5      -0.468   8.688 -46.3630  0.00  0.00     0.000 C
ATOM     84   C  Z9L D   5      -0.468   8.688 -46.3630  0.00  0.00     0.000 C
BRANCH 78 85
ATOM     85   O  Z9L D   5       1.653   9.655 -49.6810  0.00  0.00     0.000 O
ATOM     86   O  Z9L D   5       1.844  11.337 -50.6010  0.00  0.00     0.000 OA
ATOM     87   S  Z9L D   5       2.787  10.794 -49.6710  0.00  0.00     0.000 S
ATOM     88   O  Z9L D   5       3.947  10.467 -50.4630  0.00  0.00     0.000 OA
ATOM     89   O  Z9L D   5       2.778  11.688 -48.5640  0.00  0.00     0.000 OA
ENDBRANCH 78 85
BRANCH 79 90
ATOM     90   O  Z9L D   5       4.062   7.459 -49.7440  0.00  0.00     0.000 O
ATOM     91   S  Z9L D   5       3.054   6.718 -50.7300  0.00  0.00     0.000 S
ATOM     92   O  Z9L D   5       1.856   7.345 -51.2210  0.00  0.00     0.000 OA
ATOM     93   O  Z9L D   5       3.100   5.299 -50.4800  0.00  0.00     0.000 O
ATOM     94   O  Z9L D   5       4.098   7.017 -51.6570  0.00  0.00     0.000 OA
ENDBRANCH 79 90
BRANCH 81 95
ATOM     95   C  Z9L D   5       3.512   6.674 -44.7310  0.00  0.00     0.000 C
ATOM     96   S  Z9L D   5       4.842   7.108 -43.3130  0.00  0.00     0.000 S
ATOM     97   O  Z9L D   5       4.652   7.483 -44.8310  0.00  0.00     0.000 O
ATOM     98   O  Z9L D   5       5.263   5.731 -43.2760  0.00  0.00     0.000 OA
ATOM     99   O  Z9L D   5       3.846   7.603 -42.4240  0.00  0.00     0.000 OA
ATOM    100   O  Z9L D   5       6.010   7.937 -43.4810  0.00  0.00     0.000 O
ENDBRANCH 81 95
ENDBRANCH 76 80
ENDBRANCH 60 76
ENDBRANCH 59 63
ENDBRANCH 37 59
ENDBRANCH 36 40
ENDBRANCH 23 36
ENDBRANCH 22 26
ENDBRANCH 1 22
TORSDOF 19
ENDMDL
MODEL 34
REMARK VINA RESULT:      -7.1     28.281     35.405
ROOT
ATOM      1  C1  Z9H D   1       7.051  44.125 -24.8750  0.00  0.00     0.000 C
ATOM      2  C2  Z9H D   1       6.272  44.088 -23.5390  0.00  0.00     0.000 C
ATOM      3  C3  Z9H D   1       5.085  45.013 -23.9470  0.00  0.00     0.000 C
ATOM      4  C4  Z9H D   1       5.497  46.395 -24.6050  0.00  0.00     0.000 C
ATOM      5  C5  Z9H D   1       6.566  46.516 -25.7630  0.00  0.00     0.000 C
ATOM      6  O5  Z9H D   1       7.438  45.396 -25.4670  0.00  0.00     0.000 O
ATOM      7   O  Z9H D   1       4.188  45.230 -22.8570  0.00  0.00     0.000 O
ATOM      8   C  Z9H D   1       3.011  44.404 -22.8540  0.00  0.00     0.000 C
ATOM      9   O  Z9H D   1       4.280  46.972 -25.0910  0.00  0.00     0.000 O
ATOM     10   C  Z9H D   1       3.690  47.968 -24.2510  0.00  0.00     0.000 C
ENDROOT
BRANCH 2 11
ATOM     11   O  Z9H D   1       5.742  42.788 -23.5460  0.00  0.00     0.000 O
ATOM     12   O  Z9H D   1       6.205  41.448 -22.3030  0.00  0.00     0.000 OA
ATOM     13   S  Z9H D   1       6.699  42.783 -22.2780  0.00  0.00     0.000 S
ATOM     14   O  Z9H D   1       6.104  43.603 -21.2610  0.00  0.00     0.000 OA
ATOM     15   O  Z9H D   1       8.092  42.812 -22.6610  0.00  0.00     0.000 O
ENDBRANCH 2 11
BRANCH 5 16
ATOM     16   C  Z9H D   1       7.177  48.055 -26.0050  0.00  0.00     0.000 C
ATOM     17   S  Z9H D   1       8.748  49.259 -25.6540  0.00  0.00     0.000 S
ATOM     18   O  Z9H D   1       8.541  47.713 -26.0690  0.00  0.00     0.000 O
ATOM     19   O  Z9H D   1       8.320  49.588 -24.3250  0.00  0.00     0.000 O
ATOM     20   O  Z9H D   1       8.526  50.102 -26.7760  0.00  0.00     0.000 OA
ATOM     21   O  Z9H D   1      10.119  48.839 -25.6880  0.00  0.00     0.000 OA
ENDBRANCH 5 16
BRANCH 1 22
ATOM     22  O4  GU1 D   2       6.356  43.501 -26.0150  0.00  0.00     0.000 O
BRANCH 22 26
ATOM     23  C1  GU1 D   2       7.627  41.273 -29.2380  0.00  0.00     0.000 C
ATOM     24  C2  GU1 D   2       8.740  41.925 -28.4330  0.00  0.00     0.000 C
ATOM     25  C3  GU1 D   2       8.198  42.369 -27.1050  0.00  0.00     0.000 C
ATOM     26  C4  GU1 D   2       6.965  43.243 -27.2850  0.00  0.00     0.000 C
ATOM     27  C5  GU1 D   2       5.953  42.539 -28.1940  0.00  0.00     0.000 C
ATOM     28  O5  GU1 D   2       6.557  42.190 -29.4370  0.00  0.00     0.000 O
ATOM     29   O  GU1 D   2       9.820  41.030 -28.1960  0.00  0.00     0.000 O
ATOM     30   C  GU1 D   2      10.894  41.168 -29.1160  0.00  0.00     0.000 C
ATOM     31   C  GU1 D   2       9.905  42.437 -25.4090  0.00  0.00     0.000 C
ATOM     32   O  GU1 D   2       9.208  43.135 -26.4390  0.00  0.00     0.000 O
BRANCH 27 33
ATOM     33   C  GU1 D   2       4.771  43.432 -28.4890  0.00  0.00     0.000 C
ATOM     34   O  GU1 D   2       3.660  43.031 -28.2070  0.00  0.00     0.000 OA
ATOM     35   O  GU1 D   2       4.934  44.531 -28.9960  0.00  0.00     0.000 O
ENDBRANCH 27 33
BRANCH 23 36
ATOM     36  O4  GU6 D   3       7.823  40.983 -30.6370  0.00  0.00     0.000 O
BRANCH 36 40
ATOM     37  C1  GU6 D   3       5.974  40.463 -34.2430  0.00  0.00     0.000 C
ATOM     38  C2  GU6 D   3       6.212  41.922 -33.8750  0.00  0.00     0.000 C
ATOM     39  C3  GU6 D   3       7.128  41.999 -32.6810  0.00  0.00     0.000 C
ATOM     40  C4  GU6 D   3       7.432  40.749 -31.9750  0.00  0.00     0.000 C
ATOM     41  C5  GU6 D   3       6.154  39.848 -31.9310  0.00  0.00     0.000 C
ATOM     42  O5  GU6 D   3       5.378  39.808 -33.1340  0.00  0.00     0.000 O
BRANCH 38 43
ATOM     43   O  GU6 D   3       6.779  42.624 -34.9640  0.00  0.00     0.000 O
ATOM     44   S  GU6 D   3       5.952  43.808 -35.4490  0.00  0.00     0.000 S
ATOM     45   O  GU6 D   3       4.889  43.305 -36.3350  0.00  0.00     0.000 OA
ATOM     46   O  GU6 D   3       5.344  44.467 -34.2790  0.00  0.00     0.000 O
ATOM     47   O  GU6 D   3       6.831  44.740 -36.1480  0.00  0.00     0.000 OA
ENDBRANCH 38 43
BRANCH 39 48
ATOM     48   O  GU6 D   3       7.850  43.181 -32.3940  0.00  0.00     0.000 O
ATOM     49   S  GU6 D   3       9.289  43.560 -32.7390  0.00  0.00     0.000 S
ATOM     50   O  GU6 D   3       9.510  43.444 -34.1850  0.00  0.00     0.000 OA
ATOM     51   O  GU6 D   3       9.381  44.958 -32.2980  0.00  0.00     0.000 OA
ATOM     52   O  GU6 D   3      10.210  42.657 -32.0120  0.00  0.00     0.000 O
ENDBRANCH 39 48
BRANCH 41 53
ATOM     53   C  GU6 D   3       5.630  39.001 -30.8030  0.00  0.00     0.000 C
ATOM     54   O  GU6 D   3       4.469  39.743 -30.5320  0.00  0.00     0.000 O
ATOM     55   S  GU6 D   3       3.570  39.374 -29.3440  0.00  0.00     0.000 S
ATOM     56   O  GU6 D   3       4.358  39.629 -28.1160  0.00  0.00     0.000 O
ATOM     57   O  GU6 D   3       2.373  40.227 -29.3800  0.00  0.00     0.000 OA
ATOM     58   O  GU6 D   3       3.238  37.937 -29.4750  0.00  0.00     0.000 OA
ENDBRANCH 41 53
BRANCH 37 59
ATOM     59  O4  Z9K D   4       6.973  39.571 -34.7820  0.00  0.00     0.000 O
BRANCH 59 63
ATOM     60  C1  Z9K D   4       8.759  41.212 -37.8750  0.00  0.00     0.000 C
ATOM     61  C2  Z9K D   4       7.435  40.717 -38.5200  0.00  0.00     0.000 C
ATOM     62  C3  Z9K D   4       6.640  40.222 -37.2340  0.00  0.00     0.000 C
ATOM     63  C4  Z9K D   4       7.388  39.343 -36.1600  0.00  0.00     0.000 C
ATOM     64  C5  Z9K D   4       8.911  39.529 -36.0790  0.00  0.00     0.000 C
ATOM     65  O5  Z9K D   4       9.085  40.926 -36.4350  0.00  0.00     0.000 O
ATOM     66   O  Z9K D   4       5.449  39.481 -37.5530  0.00  0.00     0.000 O
ATOM     67   C  Z9K D   4       4.303  40.284 -37.7820  0.00  0.00     0.000 C
BRANCH 61 68
ATOM     68   O  Z9K D   4       6.757  41.850 -38.9890  0.00  0.00     0.000 O
ATOM     69   O  Z9K D   4       6.284  39.812 -40.4620  0.00  0.00     0.000 OA
ATOM     70   S  Z9K D   4       7.028  41.031 -40.3590  0.00  0.00     0.000 S
ATOM     71   O  Z9K D   4       8.393  41.212 -40.7480  0.00  0.00     0.000 OA
ATOM     72   O  Z9K D   4       6.254  42.141 -40.8130  0.00  0.00     0.000 OA
ENDBRANCH 61 68
BRANCH 64 73
ATOM     73   C  Z9K D   4       9.453  39.035 -34.7210  0.00  0.00     0.000 C
ATOM     74   O  Z9K D   4       9.355  37.821 -34.3780  0.00  0.00     0.000 O
ATOM     75   O  Z9K D   4      10.014  39.813 -33.9110  0.00  0.00     0.000 OA
ENDBRANCH 64 73
BRANCH 60 76
ATOM     76  O4  Z9L D   5      10.106  41.017 -38.3370  0.00  0.00     0.000 O
BRANCH 76 80
ATOM     77  C1  Z9L D   5      13.625  42.763 -39.0750  0.00  0.00     0.000 C
ATOM     78  C2  Z9L D   5      13.827  41.821 -37.7920  0.00  0.00     0.000 C
ATOM     79  C3  Z9L D   5      12.514  40.756 -37.7600  0.00  0.00     0.000 C
ATOM     80  C4  Z9L D   5      11.274  41.773 -38.1390  0.00  0.00     0.000 C
ATOM     81  C5  Z9L D   5      11.144  42.894 -39.2910  0.00  0.00     0.000 C
ATOM     82  O5  Z9L D   5      12.408  43.572 -39.3380  0.00  0.00     0.000 O
ATOM     83   C  Z9L D   5      13.817  42.718 -41.4940  0.00  0.00     0.000 C
ATOM     84   C  Z9L D   5      13.817  42.718 -41.4940  0.00  0.00     0.000 C
BRANCH 78 85
ATOM     85   O  Z9L D   5      15.000  41.093 -37.9720  0.00  0.00     0.000 O
ATOM     86   O  Z9L D   5      16.610  41.315 -36.9380  0.00  0.00     0.000 OA
ATOM     87   S  Z9L D   5      15.365  41.971 -36.6760  0.00  0.00     0.000 S
ATOM     88   O  Z9L D   5      14.895  41.401 -35.4370  0.00  0.00     0.000 OA
ATOM     89   O  Z9L D   5      15.616  43.353 -36.8970  0.00  0.00     0.000 OA
ENDBRANCH 78 85
BRANCH 79 90
ATOM     90   O  Z9L D   5      12.204  40.373 -36.4580  0.00  0.00     0.000 O
ATOM     91   S  Z9L D   5      12.563  38.950 -37.0770  0.00  0.00     0.000 S
ATOM     92   O  Z9L D   5      13.829  38.682 -37.7080  0.00  0.00     0.000 OA
ATOM     93   O  Z9L D   5      11.356  38.309 -37.5350  0.00  0.00     0.000 O
ATOM     94   O  Z9L D   5      12.707  38.637 -35.6920  0.00  0.00     0.000 OA
ENDBRANCH 79 90
BRANCH 81 95
ATOM     95   C  Z9L D   5       9.742  43.813 -39.3140  0.00  0.00     0.000 C
ATOM     96   S  Z9L D   5       8.838  45.380 -40.1490  0.00  0.00     0.000 S
ATOM     97   O  Z9L D   5      10.312  45.028 -39.7200  0.00  0.00     0.000 O
ATOM     98   O  Z9L D   5       8.097  45.608 -38.9360  0.00  0.00     0.000 OA
ATOM     99   O  Z9L D   5       8.300  44.599 -41.2110  0.00  0.00     0.000 OA
ATOM    100   O  Z9L D   5       9.477  46.615 -40.5310  0.00  0.00     0.000 O
ENDBRANCH 81 95
ENDBRANCH 76 80
ENDBRANCH 60 76
ENDBRANCH 59 63
ENDBRANCH 37 59
ENDBRANCH 36 40
ENDBRANCH 23 36
ENDBRANCH 22 26
ENDBRANCH 1 22
TORSDOF 19
ENDMDL
MODEL 35
REMARK VINA RESULT:      -7.1     30.190     38.127
ROOT
ATOM      1  C1  Z9H D   1      28.034   8.404 -25.6720  0.00  0.00     0.000 C
ATOM      2  C2  Z9H D   1      29.175   8.048 -24.6890  0.00  0.00     0.000 C
ATOM      3  C3  Z9H D   1      28.745   8.970 -23.5070  0.00  0.00     0.000 C
ATOM      4  C4  Z9H D   1      28.451  10.478 -23.8930  0.00  0.00     0.000 C
ATOM      5  C5  Z9H D   1      27.551  10.895 -25.1240  0.00  0.00     0.000 C
ATOM      6  O5  Z9H D   1      27.779   9.790 -26.0340  0.00  0.00     0.000 O
ATOM      7   O  Z9H D   1      29.675   8.906 -22.4240  0.00  0.00     0.000 O
ATOM      8   C  Z9H D   1      29.306   8.031 -21.3450  0.00  0.00     0.000 C
ATOM      9   O  Z9H D   1      27.873  11.072 -22.7260  0.00  0.00     0.000 O
ATOM     10   C  Z9H D   1      28.769  11.839 -21.9150  0.00  0.00     0.000 C
ENDROOT
BRANCH 2 11
ATOM     11   O  Z9H D   1      28.821   6.750 -24.2890  0.00  0.00     0.000 O
ATOM     12   O  Z9H D   1      29.805   5.202 -24.7280  0.00  0.00     0.000 OA
ATOM     13   S  Z9H D   1      30.178   6.529 -25.0860  0.00  0.00     0.000 S
ATOM     14   O  Z9H D   1      31.255   7.061 -24.3010  0.00  0.00     0.000 OA
ATOM     15   O  Z9H D   1      30.002   6.735 -26.5060  0.00  0.00     0.000 O
ENDBRANCH 2 11
BRANCH 5 16
ATOM     16   C  Z9H D   1      27.725  12.483 -25.6220  0.00  0.00     0.000 C
ATOM     17   S  Z9H D   1      29.057  13.953 -25.9470  0.00  0.00     0.000 S
ATOM     18   O  Z9H D   1      28.997  12.362 -26.2110  0.00  0.00     0.000 O
ATOM     19   O  Z9H D   1      29.118  14.333 -24.5640  0.00  0.00     0.000 O
ATOM     20   O  Z9H D   1      28.268  14.640 -26.9090  0.00  0.00     0.000 OA
ATOM     21   O  Z9H D   1      30.362  13.760 -26.5080  0.00  0.00     0.000 OA
ENDBRANCH 5 16
BRANCH 1 22
ATOM     22  O4  GU1 D   2      26.689   7.989 -25.2360  0.00  0.00     0.000 O
BRANCH 22 26
ATOM     23  C1  GU1 D   2      22.941   6.985 -26.6180  0.00  0.00     0.000 C
ATOM     24  C2  GU1 D   2      24.067   6.784 -27.6200  0.00  0.00     0.000 C
ATOM     25  C3  GU1 D   2      25.384   6.810 -26.9000  0.00  0.00     0.000 C
ATOM     26  C4  GU1 D   2      25.518   8.069 -26.0570  0.00  0.00     0.000 C
ATOM     27  C5  GU1 D   2      24.287   8.233 -25.1600  0.00  0.00     0.000 C
ATOM     28  O5  GU1 D   2      23.096   8.227 -25.9420  0.00  0.00     0.000 O
ATOM     29   O  GU1 D   2      23.957   5.540 -28.3010  0.00  0.00     0.000 O
ATOM     30   C  GU1 D   2      23.326   5.633 -29.5710  0.00  0.00     0.000 C
ATOM     31   C  GU1 D   2      27.070   5.536 -28.0530  0.00  0.00     0.000 C
ATOM     32   O  GU1 D   2      26.432   6.799 -27.8750  0.00  0.00     0.000 O
BRANCH 27 33
ATOM     33   C  GU1 D   2      24.335   9.536 -24.3980  0.00  0.00     0.000 C
ATOM     34   O  GU1 D   2      24.079  10.563 -24.9940  0.00  0.00     0.000 OA
ATOM     35   O  GU1 D   2      24.620   9.552 -23.2110  0.00  0.00     0.000 O
ENDBRANCH 27 33
BRANCH 23 36
ATOM     36  O4  GU6 D   3      21.601   7.245 -27.0810  0.00  0.00     0.000 O
BRANCH 36 40
ATOM     37  C1  GU6 D   3      18.864   6.785 -30.0800  0.00  0.00     0.000 C
ATOM     38  C2  GU6 D   3      19.543   5.488 -29.6580  0.00  0.00     0.000 C
ATOM     39  C3  GU6 D   3      20.316   5.714 -28.3850  0.00  0.00     0.000 C
ATOM     40  C4  GU6 D   3      20.472   7.096 -27.9190  0.00  0.00     0.000 C
ATOM     41  C5  GU6 D   3      20.682   8.042 -29.1470  0.00  0.00     0.000 C
ATOM     42  O5  GU6 D   3      19.863   7.771 -30.2910  0.00  0.00     0.000 O
BRANCH 38 43
ATOM     43   O  GU6 D   3      18.585   4.465 -29.4660  0.00  0.00     0.000 O
ATOM     44   S  GU6 D   3      18.812   3.222 -30.3160  0.00  0.00     0.000 S
ATOM     45   O  GU6 D   3      18.268   3.469 -31.6620  0.00  0.00     0.000 OA
ATOM     46   O  GU6 D   3      20.263   2.977 -30.4120  0.00  0.00     0.000 O
ATOM     47   O  GU6 D   3      18.154   2.087 -29.6770  0.00  0.00     0.000 OA
ENDBRANCH 38 43
BRANCH 39 48
ATOM     48   O  GU6 D   3      20.675   4.629 -27.5510  0.00  0.00     0.000 O
ATOM     49   S  GU6 D   3      19.989   4.086 -26.2980  0.00  0.00     0.000 S
ATOM     50   O  GU6 D   3      18.588   3.761 -26.5900  0.00  0.00     0.000 OA
ATOM     51   O  GU6 D   3      20.763   2.875 -25.9930  0.00  0.00     0.000 OA
ATOM     52   O  GU6 D   3      20.060   5.109 -25.2310  0.00  0.00     0.000 O
ENDBRANCH 39 48
BRANCH 41 53
ATOM     53   C  GU6 D   3      21.617   9.212 -29.2930  0.00  0.00     0.000 C
ATOM     54   O  GU6 D   3      22.414   8.691 -30.3250  0.00  0.00     0.000 O
ATOM     55   S  GU6 D   3      23.650   9.457 -30.8150  0.00  0.00     0.000 S
ATOM     56   O  GU6 D   3      24.618   9.471 -29.6940  0.00  0.00     0.000 O
ATOM     57   O  GU6 D   3      24.210   8.750 -31.9760  0.00  0.00     0.000 OA
ATOM     58   O  GU6 D   3      23.210  10.829 -31.1550  0.00  0.00     0.000 OA
ENDBRANCH 41 53
BRANCH 37 59
ATOM     59  O4  Z9K D   4      17.777   7.420 -29.3730  0.00  0.00     0.000 O
BRANCH 59 63
ATOM     60  C1  Z9K D   4      14.381   5.860 -30.5900  0.00  0.00     0.000 C
ATOM     61  C2  Z9K D   4      14.657   6.895 -31.7160  0.00  0.00     0.000 C
ATOM     62  C3  Z9K D   4      16.116   7.389 -31.3190  0.00  0.00     0.000 C
ATOM     63  C4  Z9K D   4      16.425   7.739 -29.8130  0.00  0.00     0.000 C
ATOM     64  C5  Z9K D   4      15.561   7.023 -28.7640  0.00  0.00     0.000 C
ATOM     65  O5  Z9K D   4      15.283   5.744 -29.3920  0.00  0.00     0.000 O
ATOM     66   O  Z9K D   4      16.546   8.544 -32.0620  0.00  0.00     0.000 O
ATOM     67   C  Z9K D   4      17.138   8.247 -33.3160  0.00  0.00     0.000 C
BRANCH 61 68
ATOM     68   O  Z9K D   4      14.797   6.175 -32.9100  0.00  0.00     0.000 O
ATOM     69   O  Z9K D   4      13.711   8.455 -33.3240  0.00  0.00     0.000 OA
ATOM     70   S  Z9K D   4      13.465   7.050 -33.2000  0.00  0.00     0.000 S
ATOM     71   O  Z9K D   4      12.358   6.451 -32.5190  0.00  0.00     0.000 OA
ATOM     72   O  Z9K D   4      13.673   6.384 -34.4450  0.00  0.00     0.000 OA
ENDBRANCH 61 68
BRANCH 64 73
ATOM     73   C  Z9K D   4      16.250   7.038 -27.3830  0.00  0.00     0.000 C
ATOM     74   O  Z9K D   4      16.356   8.106 -26.7140  0.00  0.00     0.000 O
ATOM     75   O  Z9K D   4      16.723   5.994 -26.8690  0.00  0.00     0.000 OA
ENDBRANCH 64 73
BRANCH 60 76
ATOM     76  O4  Z9L D   5      13.171   5.655 -29.8410  0.00  0.00     0.000 O
BRANCH 76 80
ATOM     77  C1  Z9L D   5      10.784   2.920 -28.1700  0.00  0.00     0.000 C
ATOM     78  C2  Z9L D   5      11.425   3.777 -26.9750  0.00  0.00     0.000 C
ATOM     79  C3  Z9L D   5      12.047   5.188 -27.6690  0.00  0.00     0.000 C
ATOM     80  C4  Z9L D   5      12.749   4.587 -29.0330  0.00  0.00     0.000 C
ATOM     81  C5  Z9L D   5      12.199   3.539 -30.1280  0.00  0.00     0.000 C
ATOM     82  O5  Z9L D   5      11.516   2.511 -29.3950  0.00  0.00     0.000 O
ATOM     83   C  Z9L D   5       8.835   2.867 -29.6160  0.00  0.00     0.000 C
ATOM     84   C  Z9L D   5       8.835   2.867 -29.6160  0.00  0.00     0.000 C
BRANCH 78 85
ATOM     85   O  Z9L D   5      10.405   4.115 -26.0910  0.00  0.00     0.000 O
ATOM     86   O  Z9L D   5      10.137   3.323 -24.3550  0.00  0.00     0.000 OA
ATOM     87   S  Z9L D   5      11.254   3.070 -25.2140  0.00  0.00     0.000 S
ATOM     88   O  Z9L D   5      12.385   3.660 -24.5400  0.00  0.00     0.000 OA
ATOM     89   O  Z9L D   5      11.143   1.699 -25.5780  0.00  0.00     0.000 OA
ENDBRANCH 78 85
BRANCH 79 90
ATOM     90   O  Z9L D   5      13.139   5.667 -26.9520  0.00  0.00     0.000 O
ATOM     91   S  Z9L D   5      12.224   6.970 -26.9450  0.00  0.00     0.000 S
ATOM     92   O  Z9L D   5      10.877   6.963 -26.4380  0.00  0.00     0.000 OA
ATOM     93   O  Z9L D   5      12.596   7.822 -28.0480  0.00  0.00     0.000 O
ATOM     94   O  Z9L D   5      13.084   7.294 -25.8540  0.00  0.00     0.000 OA
ENDBRANCH 79 90
BRANCH 81 95
ATOM     95   C  Z9L D   5      13.250   3.084 -31.3530  0.00  0.00     0.000 C
ATOM     96   S  Z9L D   5      14.537   1.690 -31.9570  0.00  0.00     0.000 S
ATOM     97   O  Z9L D   5      14.143   2.334 -30.5750  0.00  0.00     0.000 O
ATOM     98   O  Z9L D   5      15.287   2.685 -32.6800  0.00  0.00     0.000 OA
ATOM     99   O  Z9L D   5      13.522   0.920 -32.5940  0.00  0.00     0.000 OA
ATOM    100   O  Z9L D   5      15.447   0.960 -31.1090  0.00  0.00     0.000 O
ENDBRANCH 81 95
ENDBRANCH 76 80
ENDBRANCH 60 76
ENDBRANCH 59 63
ENDBRANCH 37 59
ENDBRANCH 36 40
ENDBRANCH 23 36
ENDBRANCH 22 26
ENDBRANCH 1 22
TORSDOF 19
ENDMDL
MODEL 36
REMARK VINA RESULT:      -7.1     37.699     44.083
ROOT
ATOM      1  C1  Z9H D   1       7.913  42.249 -27.6080  0.00  0.00     0.000 C
ATOM      2  C2  Z9H D   1       8.902  42.691 -28.7130  0.00  0.00     0.000 C
ATOM      3  C3  Z9H D   1       7.863  43.263 -29.7250  0.00  0.00     0.000 C
ATOM      4  C4  Z9H D   1       6.647  42.306 -30.0650  0.00  0.00     0.000 C
ATOM      5  C5  Z9H D   1       5.810  41.547 -28.9590  0.00  0.00     0.000 C
ATOM      6  O5  Z9H D   1       6.806  41.359 -27.9230  0.00  0.00     0.000 O
ATOM      7   O  Z9H D   1       8.492  43.713 -30.9270  0.00  0.00     0.000 O
ATOM      8   C  Z9H D   1       8.738  45.127 -31.0020  0.00  0.00     0.000 C
ATOM      9   O  Z9H D   1       5.727  43.100 -30.8210  0.00  0.00     0.000 O
ATOM     10   C  Z9H D   1       5.783  42.925 -32.2400  0.00  0.00     0.000 C
ENDROOT
BRANCH 2 11
ATOM     11   O  Z9H D   1       9.505  43.817 -28.1310  0.00  0.00     0.000 O
ATOM     12   O  Z9H D   1      11.308  43.889 -27.5810  0.00  0.00     0.000 OA
ATOM     13   S  Z9H D   1      10.696  42.770 -28.2160  0.00  0.00     0.000 S
ATOM     14   O  Z9H D   1      11.063  42.613 -29.5940  0.00  0.00     0.000 OA
ATOM     15   O  Z9H D   1      10.524  41.688 -27.2730  0.00  0.00     0.000 O
ENDBRANCH 2 11
BRANCH 5 16
ATOM     16   C  Z9H D   1       4.886  40.270 -29.5220  0.00  0.00     0.000 C
ATOM     17   S  Z9H D   1       4.941  38.558 -30.5730  0.00  0.00     0.000 S
ATOM     18   O  Z9H D   1       5.883  39.278 -29.4780  0.00  0.00     0.000 O
ATOM     19   O  Z9H D   1       4.875  39.224 -31.8420  0.00  0.00     0.000 O
ATOM     20   O  Z9H D   1       3.810  37.974 -29.9390  0.00  0.00     0.000 OA
ATOM     21   O  Z9H D   1       6.011  37.605 -30.5220  0.00  0.00     0.000 OA
ENDBRANCH 5 16
BRANCH 1 22
ATOM     22  O4  GU1 D   2       7.190  43.350 -26.9480  0.00  0.00     0.000 O
BRANCH 22 26
ATOM     23  C1  GU1 D   2       5.315  44.426 -23.4410  0.00  0.00     0.000 C
ATOM     24  C2  GU1 D   2       6.358  43.328 -23.2980  0.00  0.00     0.000 C
ATOM     25  C3  GU1 D   2       7.220  43.297 -24.5270  0.00  0.00     0.000 C
ATOM     26  C4  GU1 D   2       6.370  43.190 -25.7840  0.00  0.00     0.000 C
ATOM     27  C5  GU1 D   2       5.288  44.274 -25.7800  0.00  0.00     0.000 C
ATOM     28  O5  GU1 D   2       4.508  44.196 -24.5890  0.00  0.00     0.000 O
ATOM     29   O  GU1 D   2       7.200  43.537 -22.1700  0.00  0.00     0.000 O
ATOM     30   C  GU1 D   2       6.802  42.814 -21.0140  0.00  0.00     0.000 C
ATOM     31   C  GU1 D   2       9.418  42.429 -24.0690  0.00  0.00     0.000 C
ATOM     32   O  GU1 D   2       8.073  42.151 -24.4520  0.00  0.00     0.000 O
BRANCH 27 33
ATOM     33   C  GU1 D   2       4.353  44.118 -26.9560  0.00  0.00     0.000 C
ATOM     34   O  GU1 D   2       3.506  43.250 -26.9090  0.00  0.00     0.000 OA
ATOM     35   O  GU1 D   2       4.449  44.853 -27.9270  0.00  0.00     0.000 O
ENDBRANCH 27 33
BRANCH 23 36
ATOM     36  O4  GU6 D   3       4.217  44.503 -22.5110  0.00  0.00     0.000 O
BRANCH 36 40
ATOM     37  C1  GU6 D   3       2.803  43.644 -18.7750  0.00  0.00     0.000 C
ATOM     38  C2  GU6 D   3       4.191  44.273 -18.7820  0.00  0.00     0.000 C
ATOM     39  C3  GU6 D   3       4.502  44.796 -20.1600  0.00  0.00     0.000 C
ATOM     40  C4  GU6 D   3       3.586  44.434 -21.2480  0.00  0.00     0.000 C
ATOM     41  C5  GU6 D   3       3.101  42.959 -21.0540  0.00  0.00     0.000 C
ATOM     42  O5  GU6 D   3       2.786  42.577 -19.7100  0.00  0.00     0.000 O
BRANCH 38 43
ATOM     43   O  GU6 D   3       4.265  45.325 -17.8390  0.00  0.00     0.000 O
ATOM     44   S  GU6 D   3       5.195  45.053 -16.6640  0.00  0.00     0.000 S
ATOM     45   O  GU6 D   3       4.476  44.229 -15.6780  0.00  0.00     0.000 OA
ATOM     46   O  GU6 D   3       6.371  44.312 -17.1570  0.00  0.00     0.000 O
ATOM     47   O  GU6 D   3       5.612  46.328 -16.0890  0.00  0.00     0.000 OA
ENDBRANCH 38 43
BRANCH 39 48
ATOM     48   O  GU6 D   3       5.497  45.782 -20.3560  0.00  0.00     0.000 O
ATOM     49   S  GU6 D   3       5.366  47.301 -20.4530  0.00  0.00     0.000 S
ATOM     50   O  GU6 D   3       4.683  47.827 -19.2660  0.00  0.00     0.000 OA
ATOM     51   O  GU6 D   3       6.763  47.753 -20.5070  0.00  0.00     0.000 OA
ATOM     52   O  GU6 D   3       4.595  47.639 -21.6710  0.00  0.00     0.000 O
ENDBRANCH 39 48
BRANCH 41 53
ATOM     53   C  GU6 D   3       2.903  41.884 -22.0880  0.00  0.00     0.000 C
ATOM     54   O  GU6 D   3       2.406  40.886 -21.2330  0.00  0.00     0.000 O
ATOM     55   S  GU6 D   3       2.127  39.474 -21.7640  0.00  0.00     0.000 S
ATOM     56   O  GU6 D   3       3.436  38.892 -22.1410  0.00  0.00     0.000 O
ATOM     57   O  GU6 D   3       1.497  38.687 -20.6930  0.00  0.00     0.000 OA
ATOM     58   O  GU6 D   3       1.247  39.616 -22.9460  0.00  0.00     0.000 OA
ENDBRANCH 41 53
BRANCH 37 59
ATOM     59  O4  Z9K D   4       1.564  44.368 -18.9260  0.00  0.00     0.000 O
BRANCH 59 63
ATOM     60  C1  Z9K D   4       1.214  46.725 -15.8010  0.00  0.00     0.000 C
ATOM     61  C2  Z9K D   4       0.629  45.398 -15.2440  0.00  0.00     0.000 C
ATOM     62  C3  Z9K D   4       0.941  44.404 -16.4450  0.00  0.00     0.000 C
ATOM     63  C4  Z9K D   4       0.631  44.861 -17.9210  0.00  0.00     0.000 C
ATOM     64  C5  Z9K D   4       0.646  46.376 -18.1750  0.00  0.00     0.000 C
ATOM     65  O5  Z9K D   4       1.647  46.851 -17.2360  0.00  0.00     0.000 O
ATOM     66   O  Z9K D   4       0.291  43.127 -16.3100  0.00  0.00     0.000 O
ATOM     67   C  Z9K D   4       1.005  42.186 -15.5260  0.00  0.00     0.000 C
BRANCH 61 68
ATOM     68   O  Z9K D   4       1.450  45.001 -14.1800  0.00  0.00     0.000 O
ATOM     69   O  Z9K D   4      -0.967  44.242 -13.8170  0.00  0.00     0.000 OA
ATOM     70   S  Z9K D   4       0.023  45.207 -13.4430  0.00  0.00     0.000 S
ATOM     71   O  Z9K D   4      -0.204  46.607 -13.2500  0.00  0.00     0.000 OA
ATOM     72   O  Z9K D   4       0.845  44.710 -12.3870  0.00  0.00     0.000 OA
ENDBRANCH 61 68
BRANCH 64 73
ATOM     73   C  Z9K D   4       0.834  46.680 -19.6760  0.00  0.00     0.000 C
ATOM     74   O  Z9K D   4       1.787  47.406 -20.0840  0.00  0.00     0.000 O
ATOM     75   O  Z9K D   4       0.058  46.216 -20.5470  0.00  0.00     0.000 OA
ENDBRANCH 64 73
BRANCH 60 76
ATOM     76  O4  Z9L D   5       0.652  48.047 -15.7360  0.00  0.00     0.000 O
BRANCH 76 80
ATOM     77  C1  Z9L D   5       1.372  51.880 -14.8620  0.00  0.00     0.000 C
ATOM     78  C2  Z9L D   5       1.151  51.794 -16.4480  0.00  0.00     0.000 C
ATOM     79  C3  Z9L D   5       0.407  50.306 -16.7540  0.00  0.00     0.000 C
ATOM     80  C4  Z9L D   5       1.258  49.315 -15.7500  0.00  0.00     0.000 C
ATOM     81  C5  Z9L D   5       1.688  49.495 -14.2060  0.00  0.00     0.000 C
ATOM     82  O5  Z9L D   5       2.097  50.863 -14.0580  0.00  0.00     0.000 O
ATOM     83   C  Z9L D   5       0.139  52.264 -12.8060  0.00  0.00     0.000 C
ATOM     84   C  Z9L D   5       0.139  52.264 -12.8060  0.00  0.00     0.000 C
BRANCH 78 85
ATOM     85   O  Z9L D   5       0.288  52.820 -16.8200  0.00  0.00     0.000 O
ATOM     86   O  Z9L D   5       0.799  54.390 -17.8120  0.00  0.00     0.000 OA
ATOM     87   S  Z9L D   5       1.653  53.275 -17.5360  0.00  0.00     0.000 S
ATOM     88   O  Z9L D   5       1.875  52.648 -18.8160  0.00  0.00     0.000 OA
ATOM     89   O  Z9L D   5       2.674  53.786 -16.6880  0.00  0.00     0.000 OA
ENDBRANCH 78 85
BRANCH 79 90
ATOM     90   O  Z9L D   5       0.743  49.821 -18.0140  0.00  0.00     0.000 O
ATOM     91   S  Z9L D   5      -0.835  49.948 -18.1890  0.00  0.00     0.000 S
ATOM     92   O  Z9L D   5      -1.537  51.186 -17.9710  0.00  0.00     0.000 OA
ATOM     93   O  Z9L D   5      -1.453  48.681 -17.8850  0.00  0.00     0.000 O
ATOM     94   O  Z9L D   5      -0.457  49.914 -19.5650  0.00  0.00     0.000 OA
ENDBRANCH 79 90
BRANCH 81 95
ATOM     95   C  Z9L D   5       2.648  48.296 -13.5310  0.00  0.00     0.000 C
ATOM     96   S  Z9L D   5       4.493  47.827 -12.9470  0.00  0.00     0.000 S
ATOM     97   O  Z9L D   5       3.864  48.663 -14.1240  0.00  0.00     0.000 O
ATOM     98   O  Z9L D   5       4.242  46.440 -13.2420  0.00  0.00     0.000 OA
ATOM     99   O  Z9L D   5       4.295  48.354 -11.6390  0.00  0.00     0.000 OA
ATOM    100   O  Z9L D   5       5.712  48.220 -13.6110  0.00  0.00     0.000 O
ENDBRANCH 81 95
ENDBRANCH 76 80
ENDBRANCH 60 76
ENDBRANCH 59 63
ENDBRANCH 37 59
ENDBRANCH 36 40
ENDBRANCH 23 36
ENDBRANCH 22 26
ENDBRANCH 1 22
TORSDOF 19
ENDMDL
MODEL 37
REMARK VINA RESULT:      -7.1      4.728     12.924
ROOT
ATOM      1  C1  Z9H D   1      -0.408  12.412 -51.0500  0.00  0.00     0.000 C
ATOM      2  C2  Z9H D   1      -0.903  11.011 -51.4810  0.00  0.00     0.000 C
ATOM      3  C3  Z9H D   1      -2.391  11.379 -51.7680  0.00  0.00     0.000 C
ATOM      4  C4  Z9H D   1      -3.128  12.178 -50.6150  0.00  0.00     0.000 C
ATOM      5  C5  Z9H D   1      -2.497  13.435 -49.8950  0.00  0.00     0.000 C
ATOM      6  O5  Z9H D   1      -1.081  13.134 -49.9810  0.00  0.00     0.000 O
ATOM      7   O  Z9H D   1      -3.154  10.231 -52.1440  0.00  0.00     0.000 O
ATOM      8   C  Z9H D   1      -3.348  10.055 -53.5580  0.00  0.00     0.000 C
ATOM      9   O  Z9H D   1      -4.381  12.593 -51.1700  0.00  0.00     0.000 O
ATOM     10   C  Z9H D   1      -5.508  11.782 -50.8260  0.00  0.00     0.000 C
ENDROOT
BRANCH 2 11
ATOM     11   O  Z9H D   1      -0.310  10.868 -52.7450  0.00  0.00     0.000 O
ATOM     12   O  Z9H D   1       1.010   9.586 -53.1580  0.00  0.00     0.000 OA
ATOM     13   S  Z9H D   1       0.366   9.710 -51.8930  0.00  0.00     0.000 S
ATOM     14   O  Z9H D   1      -0.620   8.699 -51.6430  0.00  0.00     0.000 OA
ATOM     15   O  Z9H D   1       1.285  10.238 -50.9100  0.00  0.00     0.000 O
ENDBRANCH 2 11
BRANCH 5 16
ATOM     16   C  Z9H D   1      -3.211  13.851 -48.4400  0.00  0.00     0.000 C
ATOM     17   S  Z9H D   1      -2.853  14.542 -46.5870  0.00  0.00     0.000 S
ATOM     18   O  Z9H D   1      -2.318  14.875 -48.0730  0.00  0.00     0.000 O
ATOM     19   O  Z9H D   1      -2.464  13.257 -46.0800  0.00  0.00     0.000 O
ATOM     20   O  Z9H D   1      -4.148  15.096 -46.3970  0.00  0.00     0.000 OA
ATOM     21   O  Z9H D   1      -1.892  15.557 -46.2680  0.00  0.00     0.000 OA
ENDBRANCH 5 16
BRANCH 1 22
ATOM     22  O4  GU1 D   2      -0.429  13.430 -52.1150  0.00  0.00     0.000 O
BRANCH 22 26
ATOM     23  C1  GU1 D   2       1.579  16.647 -53.7250  0.00  0.00     0.000 C
ATOM     24  C2  GU1 D   2       2.471  15.574 -53.1180  0.00  0.00     0.000 C
ATOM     25  C3  GU1 D   2       1.675  14.317 -52.9230  0.00  0.00     0.000 C
ATOM     26  C4  GU1 D   2       0.406  14.594 -52.1300  0.00  0.00     0.000 C
ATOM     27  C5  GU1 D   2      -0.365  15.756 -52.7640  0.00  0.00     0.000 C
ATOM     28  O5  GU1 D   2       0.469  16.907 -52.8740  0.00  0.00     0.000 O
ATOM     29   O  GU1 D   2       3.583  15.272 -53.9530  0.00  0.00     0.000 O
ATOM     30   C  GU1 D   2       4.774  15.958 -53.5950  0.00  0.00     0.000 C
ATOM     31   C  GU1 D   2       3.061  12.350 -52.9800  0.00  0.00     0.000 C
ATOM     32   O  GU1 D   2       2.476  13.383 -52.1910  0.00  0.00     0.000 O
BRANCH 27 33
ATOM     33   C  GU1 D   2      -1.567  16.134 -51.9310  0.00  0.00     0.000 C
ATOM     34   O  GU1 D   2      -2.673  15.904 -52.3760  0.00  0.00     0.000 OA
ATOM     35   O  GU1 D   2      -1.424  16.654 -50.8350  0.00  0.00     0.000 O
ENDBRANCH 27 33
BRANCH 23 36
ATOM     36  O4  GU6 D   3       2.033  18.013 -53.7840  0.00  0.00     0.000 O
BRANCH 36 40
ATOM     37  C1  GU6 D   3       2.627  21.954 -52.8820  0.00  0.00     0.000 C
ATOM     38  C2  GU6 D   3       3.140  21.550 -54.2590  0.00  0.00     0.000 C
ATOM     39  C3  GU6 D   3       2.637  20.172 -54.6010  0.00  0.00     0.000 C
ATOM     40  C4  GU6 D   3       1.978  19.404 -53.5390  0.00  0.00     0.000 C
ATOM     41  C5  GU6 D   3       2.707  19.662 -52.1790  0.00  0.00     0.000 C
ATOM     42  O5  GU6 D   3       3.103  21.016 -51.9300  0.00  0.00     0.000 O
BRANCH 38 43
ATOM     43   O  GU6 D   3       2.715  22.477 -55.2400  0.00  0.00     0.000 O
ATOM     44   S  GU6 D   3       3.736  23.559 -55.5670  0.00  0.00     0.000 S
ATOM     45   O  GU6 D   3       3.646  24.613 -54.5420  0.00  0.00     0.000 OA
ATOM     46   O  GU6 D   3       5.083  22.960 -55.5370  0.00  0.00     0.000 O
ATOM     47   O  GU6 D   3       3.453  24.086 -56.8980  0.00  0.00     0.000 OA
ENDBRANCH 38 43
BRANCH 39 48
ATOM     48   O  GU6 D   3       2.589  19.729 -55.9440  0.00  0.00     0.000 O
ATOM     49   S  GU6 D   3       3.719  19.282 -56.8700  0.00  0.00     0.000 S
ATOM     50   O  GU6 D   3       4.484  18.196 -56.2460  0.00  0.00     0.000 OA
ATOM     51   O  GU6 D   3       3.005  18.811 -58.0640  0.00  0.00     0.000 OA
ATOM     52   O  GU6 D   3       4.606  20.437 -57.1380  0.00  0.00     0.000 O
ENDBRANCH 39 48
BRANCH 41 53
ATOM     53   C  GU6 D   3       3.040  18.687 -51.0820  0.00  0.00     0.000 C
ATOM     54   O  GU6 D   3       2.147  19.175 -50.1150  0.00  0.00     0.000 O
ATOM     55   S  GU6 D   3       2.143  18.593 -48.6950  0.00  0.00     0.000 S
ATOM     56   O  GU6 D   3       3.443  18.950 -48.0820  0.00  0.00     0.000 O
ATOM     57   O  GU6 D   3       1.031  19.195 -47.9450  0.00  0.00     0.000 OA
ATOM     58   O  GU6 D   3       2.000  17.125 -48.8240  0.00  0.00     0.000 OA
ENDBRANCH 41 53
BRANCH 37 59
ATOM     59  O4  Z9K D   4       1.248  22.231 -52.5600  0.00  0.00     0.000 O
BRANCH 59 63
ATOM     60  C1  Z9K D   4      -2.546  23.235 -52.7750  0.00  0.00     0.000 C
ATOM     61  C2  Z9K D   4      -2.180  23.118 -54.2800  0.00  0.00     0.000 C
ATOM     62  C3  Z9K D   4      -0.703  22.535 -54.1870  0.00  0.00     0.000 C
ATOM     63  C4  Z9K D   4       0.310  23.171 -53.1610  0.00  0.00     0.000 C
ATOM     64  C5  Z9K D   4      -0.312  23.847 -51.9290  0.00  0.00     0.000 C
ATOM     65  O5  Z9K D   4      -1.509  23.058 -51.6990  0.00  0.00     0.000 O
ATOM     66   O  Z9K D   4      -0.008  22.544 -55.4470  0.00  0.00     0.000 O
ATOM     67   C  Z9K D   4      -0.257  21.411 -56.2620  0.00  0.00     0.000 C
BRANCH 61 68
ATOM     68   O  Z9K D   4      -2.973  22.096 -54.8180  0.00  0.00     0.000 O
ATOM     69   O  Z9K D   4      -2.532  23.933 -56.5450  0.00  0.00     0.000 OA
ATOM     70   S  Z9K D   4      -3.497  23.393 -55.6360  0.00  0.00     0.000 S
ATOM     71   O  Z9K D   4      -4.370  24.153 -54.7940  0.00  0.00     0.000 OA
ATOM     72   O  Z9K D   4      -4.231  22.330 -56.2430  0.00  0.00     0.000 OA
ENDBRANCH 61 68
BRANCH 64 73
ATOM     73   C  Z9K D   4       0.723  23.974 -50.7910  0.00  0.00     0.000 C
ATOM     74   O  Z9K D   4       0.607  23.307 -49.7220  0.00  0.00     0.000 O
ATOM     75   O  Z9K D   4       1.718  24.733 -50.8840  0.00  0.00     0.000 OA
ENDBRANCH 64 73
BRANCH 60 76
ATOM     76  O4  Z9L D   5      -3.228  24.306 -52.1000  0.00  0.00     0.000 O
BRANCH 76 80
ATOM     77  C1  Z9L D   5      -6.504  24.732 -49.8520  0.00  0.00     0.000 C
ATOM     78  C2  Z9L D   5      -5.368  25.660 -49.2060  0.00  0.00     0.000 C
ATOM     79  C3  Z9L D   5      -4.164  25.843 -50.3800  0.00  0.00     0.000 C
ATOM     80  C4  Z9L D   5      -4.065  24.309 -50.9730  0.00  0.00     0.000 C
ATOM     81  C5  Z9L D   5      -5.219  23.272 -51.4130  0.00  0.00     0.000 C
ATOM     82  O5  Z9L D   5      -6.260  23.386 -50.4320  0.00  0.00     0.000 O
ATOM     83   C  Z9L D   5      -8.322  24.822 -51.4590  0.00  0.00     0.000 C
ATOM     84   C  Z9L D   5      -8.322  24.822 -51.4590  0.00  0.00     0.000 C
BRANCH 78 85
ATOM     85   O  Z9L D   5      -5.930  26.904 -48.9310  0.00  0.00     0.000 O
ATOM     86   O  Z9L D   5      -6.343  27.567 -47.1700  0.00  0.00     0.000 OA
ATOM     87   S  Z9L D   5      -5.651  26.345 -47.4500  0.00  0.00     0.000 S
ATOM     88   O  Z9L D   5      -4.302  26.565 -46.9900  0.00  0.00     0.000 OA
ATOM     89   O  Z9L D   5      -6.515  25.313 -46.9900  0.00  0.00     0.000 OA
ENDBRANCH 78 85
BRANCH 79 90
ATOM     90   O  Z9L D   5      -2.912  26.025 -49.8000  0.00  0.00     0.000 O
ATOM     91   S  Z9L D   5      -2.978  27.332 -50.7070  0.00  0.00     0.000 S
ATOM     92   O  Z9L D   5      -4.051  28.286 -50.6080  0.00  0.00     0.000 OA
ATOM     93   O  Z9L D   5      -2.335  27.069 -51.9710  0.00  0.00     0.000 O
ATOM     94   O  Z9L D   5      -1.961  27.742 -49.7940  0.00  0.00     0.000 OA
ENDBRANCH 79 90
BRANCH 81 95
ATOM     95   C  Z9L D   5      -4.734  21.739 -51.8890  0.00  0.00     0.000 C
ATOM     96   S  Z9L D   5      -4.351  19.887 -51.2640  0.00  0.00     0.000 S
ATOM     97   O  Z9L D   5      -4.148  21.336 -50.6810  0.00  0.00     0.000 O
ATOM     98   O  Z9L D   5      -3.382  19.724 -52.3170  0.00  0.00     0.000 OA
ATOM     99   O  Z9L D   5      -5.703  19.471 -51.4300  0.00  0.00     0.000 OA
ATOM    100   O  Z9L D   5      -3.728  19.533 -50.0130  0.00  0.00     0.000 O
ENDBRANCH 81 95
ENDBRANCH 76 80
ENDBRANCH 60 76
ENDBRANCH 59 63
ENDBRANCH 37 59
ENDBRANCH 36 40
ENDBRANCH 23 36
ENDBRANCH 22 26
ENDBRANCH 1 22
TORSDOF 19
ENDMDL
MODEL 38
REMARK VINA RESULT:      -7.0     31.301     37.058
ROOT
ATOM      1  C1  Z9H D   1       7.602  40.837 -34.4710  0.00  0.00     0.000 C
ATOM      2  C2  Z9H D   1       7.938  39.635 -35.3860  0.00  0.00     0.000 C
ATOM      3  C3  Z9H D   1       9.485  39.828 -35.4480  0.00  0.00     0.000 C
ATOM      4  C4  Z9H D   1       9.973  41.289 -35.8190  0.00  0.00     0.000 C
ATOM      5  C5  Z9H D   1       9.395  42.593 -35.1370  0.00  0.00     0.000 C
ATOM      6  O5  Z9H D   1       8.041  42.178 -34.8250  0.00  0.00     0.000 O
ATOM      7   O  Z9H D   1      10.102  38.865 -36.3040  0.00  0.00     0.000 O
ATOM      8   C  Z9H D   1      10.677  37.729 -35.6390  0.00  0.00     0.000 C
ATOM      9   O  Z9H D   1      11.388  41.293 -35.6060  0.00  0.00     0.000 O
ATOM     10   C  Z9H D   1      12.190  41.124 -36.7790  0.00  0.00     0.000 C
ENDROOT
BRANCH 2 11
ATOM     11   O  Z9H D   1       7.740  38.546 -34.5230  0.00  0.00     0.000 O
ATOM     12   O  Z9H D   1       6.393  37.246 -34.7510  0.00  0.00     0.000 OA
ATOM     13   S  Z9H D   1       6.636  38.328 -35.6440  0.00  0.00     0.000 S
ATOM     14   O  Z9H D   1       7.297  37.941 -36.8580  0.00  0.00     0.000 OA
ATOM     15   O  Z9H D   1       5.578  39.307 -35.5500  0.00  0.00     0.000 O
ENDBRANCH 2 11
BRANCH 5 16
ATOM     16   C  Z9H D   1       9.700  44.018 -35.9590  0.00  0.00     0.000 C
ATOM     17   S  Z9H D   1      10.444  44.792 -37.6590  0.00  0.00     0.000 S
ATOM     18   O  Z9H D   1       9.519  43.529 -37.2660  0.00  0.00     0.000 O
ATOM     19   O  Z9H D   1      11.806  44.702 -37.2170  0.00  0.00     0.000 O
ATOM     20   O  Z9H D   1       9.684  45.992 -37.6050  0.00  0.00     0.000 OA
ATOM     21   O  Z9H D   1      10.264  44.219 -38.9610  0.00  0.00     0.000 OA
ENDBRANCH 5 16
BRANCH 1 22
ATOM     22  O4  GU1 D   2       8.130  40.736 -33.0990  0.00  0.00     0.000 O
BRANCH 22 26
ATOM     23  C1  GU1 D   2       7.350  41.384 -29.1060  0.00  0.00     0.000 C
ATOM     24  C2  GU1 D   2       6.179  40.834 -29.9050  0.00  0.00     0.000 C
ATOM     25  C3  GU1 D   2       6.680  40.289 -31.2110  0.00  0.00     0.000 C
ATOM     26  C4  GU1 D   2       7.508  41.329 -31.9530  0.00  0.00     0.000 C
ATOM     27  C5  GU1 D   2       8.591  41.894 -31.0290  0.00  0.00     0.000 C
ATOM     28  O5  GU1 D   2       8.009  42.413 -29.8360  0.00  0.00     0.000 O
ATOM     29   O  GU1 D   2       5.509  39.787 -29.2140  0.00  0.00     0.000 O
ATOM     30   C  GU1 D   2       4.357  40.214 -28.5010  0.00  0.00     0.000 C
ATOM     31   C  GU1 D   2       5.258  38.548 -32.0700  0.00  0.00     0.000 C
ATOM     32   O  GU1 D   2       5.551  39.942 -32.0190  0.00  0.00     0.000 O
BRANCH 27 33
ATOM     33   C  GU1 D   2       9.351  43.014 -31.6980  0.00  0.00     0.000 C
ATOM     34   O  GU1 D   2       8.742  44.012 -32.0240  0.00  0.00     0.000 OA
ATOM     35   O  GU1 D   2      10.551  42.915 -31.9020  0.00  0.00     0.000 O
ENDBRANCH 27 33
BRANCH 23 36
ATOM     36  O4  GU6 D   3       7.110  42.181 -27.9290  0.00  0.00     0.000 O
BRANCH 36 40
ATOM     37  C1  GU6 D   3       6.090  43.622 -24.2440  0.00  0.00     0.000 C
ATOM     38  C2  GU6 D   3       5.385  44.323 -25.3990  0.00  0.00     0.000 C
ATOM     39  C3  GU6 D   3       5.614  43.552 -26.6730  0.00  0.00     0.000 C
ATOM     40  C4  GU6 D   3       6.596  42.463 -26.6430  0.00  0.00     0.000 C
ATOM     41  C5  GU6 D   3       7.808  42.876 -25.7430  0.00  0.00     0.000 C
ATOM     42  O5  GU6 D   3       7.479  43.563 -24.5310  0.00  0.00     0.000 O
BRANCH 38 43
ATOM     43   O  GU6 D   3       3.999  44.433 -25.1430  0.00  0.00     0.000 O
ATOM     44   S  GU6 D   3       3.556  45.804 -24.6500  0.00  0.00     0.000 S
ATOM     45   O  GU6 D   3       3.823  45.890 -23.2040  0.00  0.00     0.000 OA
ATOM     46   O  GU6 D   3       4.341  46.834 -25.3550  0.00  0.00     0.000 O
ATOM     47   O  GU6 D   3       2.136  45.973 -24.9400  0.00  0.00     0.000 OA
ENDBRANCH 38 43
BRANCH 39 48
ATOM     48   O  GU6 D   3       4.754  43.714 -27.7840  0.00  0.00     0.000 O
ATOM     49   S  GU6 D   3       4.749  44.786 -28.8730  0.00  0.00     0.000 S
ATOM     50   O  GU6 D   3       6.062  44.849 -29.5260  0.00  0.00     0.000 OA
ATOM     51   O  GU6 D   3       3.715  44.312 -29.8030  0.00  0.00     0.000 OA
ATOM     52   O  GU6 D   3       4.426  46.093 -28.2580  0.00  0.00     0.000 O
ENDBRANCH 39 48
BRANCH 41 53
ATOM     53   C  GU6 D   3       9.277  42.639 -25.9650  0.00  0.00     0.000 C
ATOM     54   O  GU6 D   3       9.445  43.497 -27.0630  0.00  0.00     0.000 O
ATOM     55   S  GU6 D   3      10.791  43.567 -27.7980  0.00  0.00     0.000 S
ATOM     56   O  GU6 D   3      10.995  42.248 -28.4400  0.00  0.00     0.000 O
ATOM     57   O  GU6 D   3      10.718  44.632 -28.8080  0.00  0.00     0.000 OA
ATOM     58   O  GU6 D   3      11.833  43.831 -26.7810  0.00  0.00     0.000 OA
ENDBRANCH 41 53
BRANCH 37 59
ATOM     59  O4  Z9K D   4       5.710  42.343 -23.6960  0.00  0.00     0.000 O
BRANCH 59 63
ATOM     60  C1  Z9K D   4       2.529  43.148 -21.5330  0.00  0.00     0.000 C
ATOM     61  C2  Z9K D   4       3.660  43.330 -20.4840  0.00  0.00     0.000 C
ATOM     62  C3  Z9K D   4       4.950  43.185 -21.4030  0.00  0.00     0.000 C
ATOM     63  C4  Z9K D   4       5.013  42.016 -22.4580  0.00  0.00     0.000 C
ATOM     64  C5  Z9K D   4       3.661  41.495 -22.9700  0.00  0.00     0.000 C
ATOM     65  O5  Z9K D   4       2.824  42.680 -22.9320  0.00  0.00     0.000 O
ATOM     66   O  Z9K D   4       6.173  43.073 -20.6530  0.00  0.00     0.000 O
ATOM     67   C  Z9K D   4       6.747  44.315 -20.2800  0.00  0.00     0.000 C
BRANCH 61 68
ATOM     68   O  Z9K D   4       3.622  44.667 -20.0660  0.00  0.00     0.000 O
ATOM     69   O  Z9K D   4       4.452  43.134 -18.1920  0.00  0.00     0.000 OA
ATOM     70   S  Z9K D   4       3.330  43.876 -18.6830  0.00  0.00     0.000 S
ATOM     71   O  Z9K D   4       1.969  43.434 -18.6790  0.00  0.00     0.000 OA
ATOM     72   O  Z9K D   4       3.389  45.235 -18.2530  0.00  0.00     0.000 OA
ENDBRANCH 61 68
BRANCH 64 73
ATOM     73   C  Z9K D   4       3.832  40.749 -24.3100  0.00  0.00     0.000 C
ATOM     74   O  Z9K D   4       4.451  39.647 -24.3730  0.00  0.00     0.000 O
ATOM     75   O  Z9K D   4       3.361  41.201 -25.3830  0.00  0.00     0.000 OA
ENDBRANCH 64 73
BRANCH 60 76
ATOM     76  O4  Z9L D   5       1.312  42.391 -21.4140  0.00  0.00     0.000 O
BRANCH 76 80
ATOM     77  C1  Z9L D   5      -2.643  42.386 -21.9910  0.00  0.00     0.000 C
ATOM     78  C2  Z9L D   5      -2.009  41.389 -23.0750  0.00  0.00     0.000 C
ATOM     79  C3  Z9L D   5      -0.439  41.036 -22.5510  0.00  0.00     0.000 C
ATOM     80  C4  Z9L D   5       0.071  42.523 -22.0580  0.00  0.00     0.000 C
ATOM     81  C5  Z9L D   5      -0.658  43.639 -21.1500  0.00  0.00     0.000 C
ATOM     82  O5  Z9L D   5      -2.029  43.672 -21.5730  0.00  0.00     0.000 O
ATOM     83   C  Z9L D   5      -3.572  42.386 -19.7480  0.00  0.00     0.000 C
ATOM     84   C  Z9L D   5      -3.572  42.386 -19.7480  0.00  0.00     0.000 C
BRANCH 78 85
ATOM     85   O  Z9L D   5      -2.762  40.219 -23.0790  0.00  0.00     0.000 O
ATOM     86   O  Z9L D   5      -3.941  39.666 -24.4980  0.00  0.00     0.000 OA
ATOM     87   S  Z9L D   5      -3.071  40.801 -24.5440  0.00  0.00     0.000 S
ATOM     88   O  Z9L D   5      -2.070  40.466 -25.5260  0.00  0.00     0.000 OA
ATOM     89   O  Z9L D   5      -3.933  41.931 -24.6080  0.00  0.00     0.000 OA
ENDBRANCH 78 85
BRANCH 79 90
ATOM     90   O  Z9L D   5       0.405  40.767 -23.6250  0.00  0.00     0.000 O
ATOM     91   S  Z9L D   5       0.473  39.364 -22.8740  0.00  0.00     0.000 S
ATOM     92   O  Z9L D   5      -0.705  38.594 -22.5730  0.00  0.00     0.000 OA
ATOM     93   O  Z9L D   5       1.615  39.349 -21.9940  0.00  0.00     0.000 O
ATOM     94   O  Z9L D   5       0.929  38.953 -24.1630  0.00  0.00     0.000 OA
ENDBRANCH 79 90
BRANCH 81 95
ATOM     95   C  Z9L D   5       0.146  45.095 -20.9300  0.00  0.00     0.000 C
ATOM     96   S  Z9L D   5       0.245  47.000 -21.5020  0.00  0.00     0.000 S
ATOM     97   O  Z9L D   5      -0.063  45.628 -22.2110  0.00  0.00     0.000 O
ATOM     98   O  Z9L D   5       1.658  47.017 -21.2260  0.00  0.00     0.000 OA
ATOM     99   O  Z9L D   5      -0.705  47.421 -20.5280  0.00  0.00     0.000 OA
ATOM    100   O  Z9L D   5       0.036  47.489 -22.8430  0.00  0.00     0.000 O
ENDBRANCH 81 95
ENDBRANCH 76 80
ENDBRANCH 60 76
ENDBRANCH 59 63
ENDBRANCH 37 59
ENDBRANCH 36 40
ENDBRANCH 23 36
ENDBRANCH 22 26
ENDBRANCH 1 22
TORSDOF 19
ENDMDL
MODEL 39
REMARK VINA RESULT:      -7.0     42.646     49.405
ROOT
ATOM      1  C1  Z9H D   1       8.787   9.646  -4.5220  0.00  0.00     0.000 C
ATOM      2  C2  Z9H D   1       9.169   8.814  -3.2750  0.00  0.00     0.000 C
ATOM      3  C3  Z9H D   1       7.851   9.010  -2.4650  0.00  0.00     0.000 C
ATOM      4  C4  Z9H D   1       7.360  10.509  -2.3170  0.00  0.00     0.000 C
ATOM      5  C5  Z9H D   1       7.282  11.516  -3.5330  0.00  0.00     0.000 C
ATOM      6  O5  Z9H D   1       8.351  11.027  -4.3810  0.00  0.00     0.000 O
ATOM      7   O  Z9H D   1       7.922   8.382  -1.1830  0.00  0.00     0.000 O
ATOM      8   C  Z9H D   1       7.305   7.087  -1.0960  0.00  0.00     0.000 C
ATOM      9   O  Z9H D   1       6.051  10.436  -1.7440  0.00  0.00     0.000 O
ATOM     10   C  Z9H D   1       5.981  10.661  -0.3330  0.00  0.00     0.000 C
ENDROOT
BRANCH 2 11
ATOM     11   O  Z9H D   1       9.103   7.502  -3.7680  0.00  0.00     0.000 O
ATOM     12   O  Z9H D   1      10.596   6.365  -3.9580  0.00  0.00     0.000 OA
ATOM     13   S  Z9H D   1      10.641   7.681  -3.4150  0.00  0.00     0.000 S
ATOM     14   O  Z9H D   1      10.775   7.714  -1.9860  0.00  0.00     0.000 OA
ATOM     15   O  Z9H D   1      11.299   8.583  -4.3320  0.00  0.00     0.000 O
ENDBRANCH 2 11
BRANCH 5 16
ATOM     16   C  Z9H D   1       7.177  13.132  -3.1090  0.00  0.00     0.000 C
ATOM     17   S  Z9H D   1       8.165  14.661  -2.2570  0.00  0.00     0.000 S
ATOM     18   O  Z9H D   1       8.535  13.462  -3.2730  0.00  0.00     0.000 O
ATOM     19   O  Z9H D   1       7.852  14.243  -0.9210  0.00  0.00     0.000 O
ATOM     20   O  Z9H D   1       7.451  15.681  -2.9420  0.00  0.00     0.000 OA
ATOM     21   O  Z9H D   1       9.565  14.920  -2.4250  0.00  0.00     0.000 OA
ENDBRANCH 5 16
BRANCH 1 22
ATOM     22  O4  GU1 D   2       7.676   9.095  -5.3180  0.00  0.00     0.000 O
BRANCH 22 26
ATOM     23  C1  GU1 D   2       6.231   8.589  -9.1420  0.00  0.00     0.000 C
ATOM     24  C2  GU1 D   2       7.748   8.608  -9.0290  0.00  0.00     0.000 C
ATOM     25  C3  GU1 D   2       8.142   8.411  -7.5930  0.00  0.00     0.000 C
ATOM     26  C4  GU1 D   2       7.437   9.415  -6.6930  0.00  0.00     0.000 C
ATOM     27  C5  GU1 D   2       5.928   9.390  -6.9590  0.00  0.00     0.000 C
ATOM     28  O5  GU1 D   2       5.662   9.618  -8.3400  0.00  0.00     0.000 O
ATOM     29   O  GU1 D   2       8.352   7.577  -9.8010  0.00  0.00     0.000 O
ATOM     30   C  GU1 D   2       8.801   8.005 -11.0790  0.00  0.00     0.000 C
ATOM     31   C  GU1 D   2      10.321   7.412  -7.3820  0.00  0.00     0.000 C
ATOM     32   O  GU1 D   2       9.555   8.610  -7.4810  0.00  0.00     0.000 O
BRANCH 27 33
ATOM     33   C  GU1 D   2       5.215  10.460  -6.1670  0.00  0.00     0.000 C
ATOM     34   O  GU1 D   2       4.632  10.136  -5.1530  0.00  0.00     0.000 OA
ATOM     35   O  GU1 D   2       5.232  11.622  -6.5400  0.00  0.00     0.000 O
ENDBRANCH 27 33
BRANCH 23 36
ATOM     36  O4  GU6 D   3       5.594   8.999 -10.3680  0.00  0.00     0.000 O
BRANCH 36 40
ATOM     37  C1  GU6 D   3       3.865  11.310 -13.2600  0.00  0.00     0.000 C
ATOM     38  C2  GU6 D   3       3.779   9.813 -13.5310  0.00  0.00     0.000 C
ATOM     39  C3  GU6 D   3       4.192   9.052 -12.2980  0.00  0.00     0.000 C
ATOM     40  C4  GU6 D   3       4.789   9.814 -11.1960  0.00  0.00     0.000 C
ATOM     41  C5  GU6 D   3       5.712  10.936 -11.7760  0.00  0.00     0.000 C
ATOM     42  O5  GU6 D   3       5.205  11.631 -12.9210  0.00  0.00     0.000 O
BRANCH 38 43
ATOM     43   O  GU6 D   3       2.463   9.450 -13.9040  0.00  0.00     0.000 O
ATOM     44   S  GU6 D   3       2.204   9.479 -15.4050  0.00  0.00     0.000 S
ATOM     45   O  GU6 D   3       1.927  10.869 -15.8050  0.00  0.00     0.000 OA
ATOM     46   O  GU6 D   3       3.413   9.001 -16.1000  0.00  0.00     0.000 O
ATOM     47   O  GU6 D   3       1.076   8.604 -15.7040  0.00  0.00     0.000 OA
ENDBRANCH 38 43
BRANCH 39 48
ATOM     48   O  GU6 D   3       3.807   7.703 -12.1140  0.00  0.00     0.000 O
ATOM     49   S  GU6 D   3       4.416   6.423 -12.6860  0.00  0.00     0.000 S
ATOM     50   O  GU6 D   3       5.844   6.353 -12.3590  0.00  0.00     0.000 OA
ATOM     51   O  GU6 D   3       3.661   5.363 -12.0040  0.00  0.00     0.000 OA
ATOM     52   O  GU6 D   3       4.232   6.420 -14.1540  0.00  0.00     0.000 O
ENDBRANCH 39 48
BRANCH 41 53
ATOM     53   C  GU6 D   3       7.058  11.402 -11.2900  0.00  0.00     0.000 C
ATOM     54   O  GU6 D   3       7.597  11.761 -12.5360  0.00  0.00     0.000 O
ATOM     55   S  GU6 D   3       9.057  12.219 -12.6480  0.00  0.00     0.000 S
ATOM     56   O  GU6 D   3       9.900  11.050 -12.3060  0.00  0.00     0.000 O
ATOM     57   O  GU6 D   3       9.307  12.652 -14.0310  0.00  0.00     0.000 OA
ATOM     58   O  GU6 D   3       9.249  13.318 -11.6750  0.00  0.00     0.000 OA
ENDBRANCH 41 53
BRANCH 37 59
ATOM     59  O4  Z9K D   4       3.007  12.040 -12.3590  0.00  0.00     0.000 O
BRANCH 59 63
ATOM     60  C1  Z9K D   4       0.003  13.413 -10.2280  0.00  0.00     0.000 C
ATOM     61  C2  Z9K D   4      -0.316  11.893 -10.2530  0.00  0.00     0.000 C
ATOM     62  C3  Z9K D   4       0.993  11.322 -10.9540  0.00  0.00     0.000 C
ATOM     63  C4  Z9K D   4       1.555  12.046 -12.2360  0.00  0.00     0.000 C
ATOM     64  C5  Z9K D   4       1.220  13.539 -12.3690  0.00  0.00     0.000 C
ATOM     65  O5  Z9K D   4       1.170  13.982 -10.9870  0.00  0.00     0.000 O
ATOM     66   O  Z9K D   4       0.878   9.938 -11.3320  0.00  0.00     0.000 O
ATOM     67   C  Z9K D   4       1.197   9.020 -10.2990  0.00  0.00     0.000 C
BRANCH 61 68
ATOM     68   O  Z9K D   4      -0.279  11.443  -8.9260  0.00  0.00     0.000 O
ATOM     69   O  Z9K D   4      -2.015  10.153 -10.2940  0.00  0.00     0.000 OA
ATOM     70   S  Z9K D   4      -1.829  11.189  -9.3230  0.00  0.00     0.000 S
ATOM     71   O  Z9K D   4      -2.529  12.436  -9.2860  0.00  0.00     0.000 OA
ATOM     72   O  Z9K D   4      -1.756  10.646  -8.0050  0.00  0.00     0.000 OA
ENDBRANCH 61 68
BRANCH 64 73
ATOM     73   C  Z9K D   4       2.198  14.237 -13.3370  0.00  0.00     0.000 C
ATOM     74   O  Z9K D   4       2.104  14.081 -14.5900  0.00  0.00     0.000 O
ATOM     75   O  Z9K D   4       3.115  14.988 -12.9240  0.00  0.00     0.000 OA
ENDBRANCH 64 73
BRANCH 60 76
ATOM     76  O4  Z9L D   5      -0.872  14.515 -10.5210  0.00  0.00     0.000 O
BRANCH 76 80
ATOM     77  C1  Z9L D   5      -2.055  18.077  -9.1470  0.00  0.00     0.000 C
ATOM     78  C2  Z9L D   5      -1.473  18.313 -10.6230  0.00  0.00     0.000 C
ATOM     79  C3  Z9L D   5      -1.407  16.795 -11.3670  0.00  0.00     0.000 C
ATOM     80  C4  Z9L D   5      -0.824  15.866 -10.1370  0.00  0.00     0.000 C
ATOM     81  C5  Z9L D   5      -1.250  15.785  -8.5840  0.00  0.00     0.000 C
ATOM     82  O5  Z9L D   5      -1.474  17.136  -8.1560  0.00  0.00     0.000 O
ATOM     83   C  Z9L D   5      -4.141  17.609  -7.9980  0.00  0.00     0.000 C
ATOM     84   C  Z9L D   5      -4.141  17.609  -7.9980  0.00  0.00     0.000 C
BRANCH 78 85
ATOM     85   O  Z9L D   5      -2.368  19.122 -11.3160  0.00  0.00     0.000 O
ATOM     86   O  Z9L D   5      -2.064  20.967 -11.7760  0.00  0.00     0.000 OA
ATOM     87   S  Z9L D   5      -1.099  20.098 -11.1760  0.00  0.00     0.000 S
ATOM     88   O  Z9L D   5      -0.095  19.895 -12.1910  0.00  0.00     0.000 OA
ATOM     89   O  Z9L D   5      -0.858  20.641  -9.8840  0.00  0.00     0.000 OA
ENDBRANCH 78 85
BRANCH 79 90
ATOM     90   O  Z9L D   5      -0.380  16.734 -12.3040  0.00  0.00     0.000 O
ATOM     91   S  Z9L D   5      -1.616  16.369 -13.2390  0.00  0.00     0.000 S
ATOM     92   O  Z9L D   5      -2.765  17.226 -13.3670  0.00  0.00     0.000 OA
ATOM     93   O  Z9L D   5      -1.749  14.935 -13.3160  0.00  0.00     0.000 O
ATOM     94   O  Z9L D   5      -0.682  16.761 -14.2440  0.00  0.00     0.000 OA
ENDBRANCH 79 90
BRANCH 81 95
ATOM     95   C  Z9L D   5      -0.355  14.770  -7.5930  0.00  0.00     0.000 C
ATOM     96   S  Z9L D   5       1.335  14.587  -6.5550  0.00  0.00     0.000 S
ATOM     97   O  Z9L D   5       0.920  15.253  -7.9200  0.00  0.00     0.000 O
ATOM     98   O  Z9L D   5       1.319  13.162  -6.7670  0.00  0.00     0.000 OA
ATOM     99   O  Z9L D   5       0.768  15.167  -5.3850  0.00  0.00     0.000 OA
ATOM    100   O  Z9L D   5       2.625  15.093  -6.9520  0.00  0.00     0.000 O
ENDBRANCH 81 95
ENDBRANCH 76 80
ENDBRANCH 60 76
ENDBRANCH 59 63
ENDBRANCH 37 59
ENDBRANCH 36 40
ENDBRANCH 23 36
ENDBRANCH 22 26
ENDBRANCH 1 22
TORSDOF 19
ENDMDL
MODEL 40
REMARK VINA RESULT:      -7.0      2.772      5.983
ROOT
ATOM      1  C1  Z9H D   1       2.599  26.385 -58.8480  0.00  0.00     0.000 C
ATOM      2  C2  Z9H D   1       2.226  27.886 -58.8780  0.00  0.00     0.000 C
ATOM      3  C3  Z9H D   1       0.928  27.775 -59.7360  0.00  0.00     0.000 C
ATOM      4  C4  Z9H D   1       1.072  26.951 -61.0810  0.00  0.00     0.000 C
ATOM      5  C5  Z9H D   1       1.770  25.534 -61.1560  0.00  0.00     0.000 C
ATOM      6  O5  Z9H D   1       2.744  25.637 -60.0870  0.00  0.00     0.000 O
ATOM      7   O  Z9H D   1       0.360  29.060 -59.9980  0.00  0.00     0.000 O
ATOM      8   C  Z9H D   1      -0.727  29.440 -59.1380  0.00  0.00     0.000 C
ATOM      9   O  Z9H D   1      -0.258  26.794 -61.5850  0.00  0.00     0.000 O
ATOM     10   C  Z9H D   1      -0.640  27.708 -62.6170  0.00  0.00     0.000 C
ENDROOT
BRANCH 2 11
ATOM     11   O  Z9H D   1       1.779  28.102 -57.5650  0.00  0.00     0.000 O
ATOM     12   O  Z9H D   1       2.656  29.210 -56.3150  0.00  0.00     0.000 OA
ATOM     13   S  Z9H D   1       3.071  29.020 -57.6640  0.00  0.00     0.000 S
ATOM     14   O  Z9H D   1       2.772  30.128 -58.5250  0.00  0.00     0.000 OA
ATOM     15   O  Z9H D   1       4.283  28.233 -57.7120  0.00  0.00     0.000 O
ENDBRANCH 2 11
BRANCH 5 16
ATOM     16   C  Z9H D   1       2.213  25.043 -62.6940  0.00  0.00     0.000 C
ATOM     17   S  Z9H D   1       2.595  23.441 -63.8460  0.00  0.00     0.000 S
ATOM     18   O  Z9H D   1       1.506  23.827 -62.7180  0.00  0.00     0.000 O
ATOM     19   O  Z9H D   1       3.938  23.294 -63.3620  0.00  0.00     0.000 O
ATOM     20   O  Z9H D   1       2.275  24.080 -65.0750  0.00  0.00     0.000 OA
ATOM     21   O  Z9H D   1       1.867  22.208 -63.7920  0.00  0.00     0.000 OA
ENDBRANCH 5 16
BRANCH 1 22
ATOM     22  O4  GU1 D   2       1.646  25.524 -58.1250  0.00  0.00     0.000 O
BRANCH 22 26
ATOM     23  C1  GU1 D   2       1.327  22.159 -55.7710  0.00  0.00     0.000 C
ATOM     24  C2  GU1 D   2       2.655  22.892 -55.6620  0.00  0.00     0.000 C
ATOM     25  C3  GU1 D   2       2.513  24.268 -56.2460  0.00  0.00     0.000 C
ATOM     26  C4  GU1 D   2       1.950  24.204 -57.6580  0.00  0.00     0.000 C
ATOM     27  C5  GU1 D   2       0.672  23.360 -57.6750  0.00  0.00     0.000 C
ATOM     28  O5  GU1 D   2       0.923  22.066 -57.1320  0.00  0.00     0.000 O
ATOM     29   O  GU1 D   2       3.082  23.023 -54.3120  0.00  0.00     0.000 O
ATOM     30   C  GU1 D   2       4.007  22.026 -53.9020  0.00  0.00     0.000 C
ATOM     31   C  GU1 D   2       4.065  25.828 -55.2700  0.00  0.00     0.000 C
ATOM     32   O  GU1 D   2       3.809  24.873 -56.2970  0.00  0.00     0.000 O
BRANCH 27 33
ATOM     33   C  GU1 D   2       0.156  23.179 -59.0830  0.00  0.00     0.000 C
ATOM     34   O  GU1 D   2      -0.762  23.880 -59.4560  0.00  0.00     0.000 OA
ATOM     35   O  GU1 D   2       0.656  22.348 -59.8250  0.00  0.00     0.000 O
ENDBRANCH 27 33
BRANCH 23 36
ATOM     36  O4  GU6 D   3       1.261  20.743 -55.5090  0.00  0.00     0.000 O
BRANCH 36 40
ATOM     37  C1  GU6 D   3       2.592  17.553 -53.3300  0.00  0.00     0.000 C
ATOM     38  C2  GU6 D   3       2.333  18.804 -52.5000  0.00  0.00     0.000 C
ATOM     39  C3  GU6 D   3       1.597  19.820 -53.3340  0.00  0.00     0.000 C
ATOM     40  C4  GU6 D   3       1.465  19.555 -54.7710  0.00  0.00     0.000 C
ATOM     41  C5  GU6 D   3       2.782  18.901 -55.3050  0.00  0.00     0.000 C
ATOM     42  O5  GU6 D   3       3.377  17.912 -54.4570  0.00  0.00     0.000 O
BRANCH 38 43
ATOM     43   O  GU6 D   3       1.578  18.489 -51.3460  0.00  0.00     0.000 O
ATOM     44   S  GU6 D   3       2.285  18.786 -50.0300  0.00  0.00     0.000 S
ATOM     45   O  GU6 D   3       3.199  17.672 -49.7280  0.00  0.00     0.000 OA
ATOM     46   O  GU6 D   3       3.062  20.030 -50.1840  0.00  0.00     0.000 O
ATOM     47   O  GU6 D   3       1.281  18.950 -48.9840  0.00  0.00     0.000 OA
ENDBRANCH 38 43
BRANCH 39 48
ATOM     48   O  GU6 D   3       0.863  20.866 -52.7260  0.00  0.00     0.000 O
ATOM     49   S  GU6 D   3      -0.633  20.974 -52.4380  0.00  0.00     0.000 S
ATOM     50   O  GU6 D   3      -1.081  19.823 -51.6450  0.00  0.00     0.000 OA
ATOM     51   O  GU6 D   3      -0.734  22.221 -51.6670  0.00  0.00     0.000 OA
ATOM     52   O  GU6 D   3      -1.367  21.021 -53.7220  0.00  0.00     0.000 O
ENDBRANCH 39 48
BRANCH 41 53
ATOM     53   C  GU6 D   3       3.509  19.154 -56.5990  0.00  0.00     0.000 C
ATOM     54   O  GU6 D   3       4.614  19.836 -56.0660  0.00  0.00     0.000 O
ATOM     55   S  GU6 D   3       5.671  20.449 -56.9940  0.00  0.00     0.000 S
ATOM     56   O  GU6 D   3       5.003  21.540 -57.7410  0.00  0.00     0.000 O
ATOM     57   O  GU6 D   3       6.768  20.979 -56.1700  0.00  0.00     0.000 OA
ATOM     58   O  GU6 D   3       6.126  19.379 -57.9100  0.00  0.00     0.000 OA
ENDBRANCH 41 53
BRANCH 37 59
ATOM     59  O4  Z9K D   4       1.575  16.638 -53.7890  0.00  0.00     0.000 O
BRANCH 59 63
ATOM     60  C1  Z9K D   4      -0.047  14.010 -51.3590  0.00  0.00     0.000 C
ATOM     61  C2  Z9K D   4       1.424  13.511 -51.4030  0.00  0.00     0.000 C
ATOM     62  C3  Z9K D   4       2.113  14.678 -52.2350  0.00  0.00     0.000 C
ATOM     63  C4  Z9K D   4       1.406  15.213 -53.5390  0.00  0.00     0.000 C
ATOM     64  C5  Z9K D   4      -0.121  15.048 -53.5940  0.00  0.00     0.000 C
ATOM     65  O5  Z9K D   4      -0.508  15.168 -52.2000  0.00  0.00     0.000 O
ATOM     66   O  Z9K D   4       3.457  14.368 -52.6450  0.00  0.00     0.000 O
ATOM     67   C  Z9K D   4       4.448  14.662 -51.6730  0.00  0.00     0.000 C
BRANCH 61 68
ATOM     68   O  Z9K D   4       1.930  13.606 -50.1000  0.00  0.00     0.000 O
ATOM     69   O  Z9K D   4       2.913  11.589 -51.3310  0.00  0.00     0.000 OA
ATOM     70   S  Z9K D   4       1.953  12.006 -50.3530  0.00  0.00     0.000 S
ATOM     71   O  Z9K D   4       0.625  11.493 -50.2130  0.00  0.00     0.000 OA
ATOM     72   O  Z9K D   4       2.556  12.122 -49.0650  0.00  0.00     0.000 OA
ENDBRANCH 61 68
BRANCH 64 73
ATOM     73   C  Z9K D   4      -0.741  16.017 -54.6230  0.00  0.00     0.000 C
ATOM     74   O  Z9K D   4      -1.330  17.075 -54.2550  0.00  0.00     0.000 O
ATOM     75   O  Z9K D   4      -0.679  15.799 -55.8570  0.00  0.00     0.000 OA
ENDBRANCH 64 73
BRANCH 60 76
ATOM     76  O4  Z9L D   5      -1.254  13.250 -51.5380  0.00  0.00     0.000 O
BRANCH 76 80
ATOM     77  C1  Z9L D   5      -5.092  12.990 -50.4540  0.00  0.00     0.000 C
ATOM     78  C2  Z9L D   5      -5.068  13.253 -52.0360  0.00  0.00     0.000 C
ATOM     79  C3  Z9L D   5      -3.498  12.907 -52.5610  0.00  0.00     0.000 C
ATOM     80  C4  Z9L D   5      -2.604  13.597 -51.3620  0.00  0.00     0.000 C
ATOM     81  C5  Z9L D   5      -2.758  13.527 -49.7580  0.00  0.00     0.000 C
ATOM     82  O5  Z9L D   5      -4.164  13.624 -49.4830  0.00  0.00     0.000 O
ATOM     83   C  Z9L D   5      -5.135  11.171 -48.8470  0.00  0.00     0.000 C
ATOM     84   C  Z9L D   5      -5.135  11.171 -48.8470  0.00  0.00     0.000 C
BRANCH 78 85
ATOM     85   O  Z9L D   5      -5.956  12.364 -52.6350  0.00  0.00     0.000 O
ATOM     86   O  Z9L D   5      -7.623  12.856 -53.4650  0.00  0.00     0.000 OA
ATOM     87   S  Z9L D   5      -6.650  13.776 -52.9610  0.00  0.00     0.000 S
ATOM     88   O  Z9L D   5      -6.114  14.431 -54.1280  0.00  0.00     0.000 OA
ATOM     89   O  Z9L D   5      -7.286  14.435 -51.8730  0.00  0.00     0.000 OA
ENDBRANCH 78 85
BRANCH 79 90
ATOM     90   O  Z9L D   5      -3.155  13.672 -53.6730  0.00  0.00     0.000 O
ATOM     91   S  Z9L D   5      -2.867  12.216 -54.2510  0.00  0.00     0.000 S
ATOM     92   O  Z9L D   5      -3.869  11.183 -54.2710  0.00  0.00     0.000 OA
ATOM     93   O  Z9L D   5      -1.474  11.895 -54.0640  0.00  0.00     0.000 O
ATOM     94   O  Z9L D   5      -2.973  12.932 -55.4820  0.00  0.00     0.000 OA
ENDBRANCH 79 90
BRANCH 81 95
ATOM     95   C  Z9L D   5      -1.699  14.450 -48.8420  0.00  0.00     0.000 C
ATOM     96   S  Z9L D   5      -1.466  16.173 -47.8710  0.00  0.00     0.000 S
ATOM     97   O  Z9L D   5      -2.192  15.716 -49.1920  0.00  0.00     0.000 O
ATOM     98   O  Z9L D   5      -0.052  16.144 -48.1440  0.00  0.00     0.000 OA
ATOM     99   O  Z9L D   5      -1.998  15.649 -46.6590  0.00  0.00     0.000 OA
ATOM    100   O  Z9L D   5      -1.984  17.452 -48.2890  0.00  0.00     0.000 O
ENDBRANCH 81 95
ENDBRANCH 76 80
ENDBRANCH 60 76
ENDBRANCH 59 63
ENDBRANCH 37 59
ENDBRANCH 36 40
ENDBRANCH 23 36
ENDBRANCH 22 26
ENDBRANCH 1 22
TORSDOF 19
ENDMDL
MODEL 41
REMARK VINA RESULT:      -7.0     20.869     27.522
ROOT
ATOM      1  C1  Z9H D   1      29.538  23.447 -59.5820  0.00  0.00     0.000 C
ATOM      2  C2  Z9H D   1      30.940  22.820 -59.3890  0.00  0.00     0.000 C
ATOM      3  C3  Z9H D   1      30.783  21.618 -60.3710  0.00  0.00     0.000 C
ATOM      4  C4  Z9H D   1      29.474  20.747 -60.1730  0.00  0.00     0.000 C
ATOM      5  C5  Z9H D   1      28.033  21.377 -60.0170  0.00  0.00     0.000 C
ATOM      6  O5  Z9H D   1      28.340  22.645 -59.3860  0.00  0.00     0.000 O
ATOM      7   O  Z9H D   1      31.941  20.782 -60.3680  0.00  0.00     0.000 O
ATOM      8   C  Z9H D   1      32.870  21.012 -61.4410  0.00  0.00     0.000 C
ATOM      9   O  Z9H D   1      29.427  19.857 -61.2940  0.00  0.00     0.000 O
ATOM     10   C  Z9H D   1      29.903  18.531 -61.0480  0.00  0.00     0.000 C
ENDROOT
BRANCH 2 11
ATOM     11   O  Z9H D   1      31.764  23.736 -60.0620  0.00  0.00     0.000 O
ATOM     12   O  Z9H D   1      33.077  24.797 -59.2210  0.00  0.00     0.000 OA
ATOM     13   S  Z9H D   1      32.268  23.830 -58.5580  0.00  0.00     0.000 S
ATOM     14   O  Z9H D   1      32.961  22.615 -58.2380  0.00  0.00     0.000 OA
ATOM     15   O  Z9H D   1      31.296  24.482 -57.7100  0.00  0.00     0.000 O
ENDBRANCH 2 11
BRANCH 5 16
ATOM     16   C  Z9H D   1      26.875  20.348 -59.3840  0.00  0.00     0.000 C
ATOM     17   S  Z9H D   1      26.556  18.497 -58.6670  0.00  0.00     0.000 S
ATOM     18   O  Z9H D   1      27.718  19.610 -58.5330  0.00  0.00     0.000 O
ATOM     19   O  Z9H D   1      26.431  17.910 -59.9700  0.00  0.00     0.000 O
ATOM     20   O  Z9H D   1      25.440  18.855 -57.8620  0.00  0.00     0.000 OA
ATOM     21   O  Z9H D   1      27.478  17.775 -57.8400  0.00  0.00     0.000 OA
ENDBRANCH 5 16
BRANCH 1 22
ATOM     22  O4  GU1 D   2      29.281  23.987 -60.9280  0.00  0.00     0.000 O
BRANCH 22 26
ATOM     23  C1  GU1 D   2      27.527  27.102 -62.9750  0.00  0.00     0.000 C
ATOM     24  C2  GU1 D   2      27.988  27.442 -61.5660  0.00  0.00     0.000 C
ATOM     25  C3  GU1 D   2      28.930  26.378 -61.0810  0.00  0.00     0.000 C
ATOM     26  C4  GU1 D   2      28.307  24.996 -61.2170  0.00  0.00     0.000 C
ATOM     27  C5  GU1 D   2      27.783  24.796 -62.6420  0.00  0.00     0.000 C
ATOM     28  O5  GU1 D   2      26.875  25.837 -62.9910  0.00  0.00     0.000 O
ATOM     29   O  GU1 D   2      28.664  28.692 -61.5140  0.00  0.00     0.000 O
ATOM     30   C  GU1 D   2      27.837  29.777 -61.1190  0.00  0.00     0.000 C
ATOM     31   C  GU1 D   2      30.477  27.219 -59.4410  0.00  0.00     0.000 C
ATOM     32   O  GU1 D   2      29.210  26.619 -59.6980  0.00  0.00     0.000 O
BRANCH 27 33
ATOM     33   C  GU1 D   2      27.052  23.481 -62.7750  0.00  0.00     0.000 C
ATOM     34   O  GU1 D   2      25.889  23.429 -62.4300  0.00  0.00     0.000 OA
ATOM     35   O  GU1 D   2      27.620  22.497 -63.2240  0.00  0.00     0.000 O
ENDBRANCH 27 33
BRANCH 23 36
ATOM     36  O4  GU6 D   3      26.435  27.830 -63.5710  0.00  0.00     0.000 O
BRANCH 36 40
ATOM     37  C1  GU6 D   3      23.692  30.691 -64.5660  0.00  0.00     0.000 C
ATOM     38  C2  GU6 D   3      23.209  29.264 -64.7950  0.00  0.00     0.000 C
ATOM     39  C3  GU6 D   3      24.168  28.296 -64.1530  0.00  0.00     0.000 C
ATOM     40  C4  GU6 D   3      25.439  28.829 -63.6490  0.00  0.00     0.000 C
ATOM     41  C5  GU6 D   3      25.967  29.931 -64.6260  0.00  0.00     0.000 C
ATOM     42  O5  GU6 D   3      24.980  30.831 -65.1450  0.00  0.00     0.000 O
BRANCH 38 43
ATOM     43   O  GU6 D   3      21.912  29.086 -64.2600  0.00  0.00     0.000 O
ATOM     44   S  GU6 D   3      20.795  29.115 -65.2950  0.00  0.00     0.000 S
ATOM     45   O  GU6 D   3      20.470  30.520 -65.5950  0.00  0.00     0.000 OA
ATOM     46   O  GU6 D   3      21.272  28.450 -66.5210  0.00  0.00     0.000 O
ATOM     47   O  GU6 D   3      19.638  28.405 -64.7590  0.00  0.00     0.000 OA
ENDBRANCH 38 43
BRANCH 39 48
ATOM     48   O  GU6 D   3      23.766  26.977 -63.8360  0.00  0.00     0.000 O
ATOM     49   S  GU6 D   3      23.634  25.749 -64.7360  0.00  0.00     0.000 S
ATOM     50   O  GU6 D   3      24.901  25.494 -65.4300  0.00  0.00     0.000 OA
ATOM     51   O  GU6 D   3      23.323  24.672 -63.7860  0.00  0.00     0.000 OA
ATOM     52   O  GU6 D   3      22.556  25.989 -65.7200  0.00  0.00     0.000 O
ENDBRANCH 39 48
BRANCH 41 53
ATOM     53   C  GU6 D   3      27.375  30.191 -65.0890  0.00  0.00     0.000 C
ATOM     54   O  GU6 D   3      27.428  29.215 -66.0970  0.00  0.00     0.000 O
ATOM     55   S  GU6 D   3      28.734  28.953 -66.8580  0.00  0.00     0.000 S
ATOM     56   O  GU6 D   3      29.696  28.396 -65.8790  0.00  0.00     0.000 O
ATOM     57   O  GU6 D   3      28.464  27.985 -67.9310  0.00  0.00     0.000 OA
ATOM     58   O  GU6 D   3      29.204  30.254 -67.3850  0.00  0.00     0.000 OA
ENDBRANCH 41 53
BRANCH 37 59
ATOM     59  O4  Z9K D   4      23.721  31.360 -63.2870  0.00  0.00     0.000 O
BRANCH 59 63
ATOM     60  C1  Z9K D   4      19.935  31.972 -62.4300  0.00  0.00     0.000 C
ATOM     61  C2  Z9K D   4      20.282  33.272 -63.2070  0.00  0.00     0.000 C
ATOM     62  C3  Z9K D   4      21.754  32.940 -63.7090  0.00  0.00     0.000 C
ATOM     63  C4  Z9K D   4      22.785  32.309 -62.6980  0.00  0.00     0.000 C
ATOM     64  C5  Z9K D   4      22.185  31.500 -61.5380  0.00  0.00     0.000 C
ATOM     65  O5  Z9K D   4      20.983  30.937 -62.1260  0.00  0.00     0.000 O
ATOM     66   O  Z9K D   4      22.434  34.077 -64.2690  0.00  0.00     0.000 O
ATOM     67   C  Z9K D   4      22.164  34.303 -65.6430  0.00  0.00     0.000 C
BRANCH 61 68
ATOM     68   O  Z9K D   4      19.472  33.296 -64.3510  0.00  0.00     0.000 O
ATOM     69   O  Z9K D   4      19.949  35.664 -63.5030  0.00  0.00     0.000 OA
ATOM     70   S  Z9K D   4      18.972  34.618 -63.5580  0.00  0.00     0.000 S
ATOM     71   O  Z9K D   4      18.111  34.221 -62.4870  0.00  0.00     0.000 OA
ATOM     72   O  Z9K D   4      18.222  34.684 -64.7710  0.00  0.00     0.000 OA
ENDBRANCH 61 68
BRANCH 64 73
ATOM     73   C  Z9K D   4      23.234  30.543 -60.9340  0.00  0.00     0.000 C
ATOM     74   O  Z9K D   4      23.099  29.288 -61.0140  0.00  0.00     0.000 O
ATOM     75   O  Z9K D   4      24.260  30.970 -60.3500  0.00  0.00     0.000 OA
ENDBRANCH 64 73
BRANCH 60 76
ATOM     76  O4  Z9L D   5      19.271  31.838 -61.1620  0.00  0.00     0.000 O
BRANCH 76 80
ATOM     77  C1  Z9L D   5      16.562  29.813 -59.0320  0.00  0.00     0.000 C
ATOM     78  C2  Z9L D   5      18.006  29.399 -58.4710  0.00  0.00     0.000 C
ATOM     79  C3  Z9L D   5      19.097  30.564 -59.0300  0.00  0.00     0.000 C
ATOM     80  C4  Z9L D   5      18.584  30.759 -60.5830  0.00  0.00     0.000 C
ATOM     81  C5  Z9L D   5      17.101  30.947 -61.1870  0.00  0.00     0.000 C
ATOM     82  O5  Z9L D   5      16.253  30.040 -60.4670  0.00  0.00     0.000 O
ATOM     83   C  Z9L D   5      14.783  31.420 -58.6510  0.00  0.00     0.000 C
ATOM     84   C  Z9L D   5      14.783  31.420 -58.6510  0.00  0.00     0.000 C
BRANCH 78 85
ATOM     85   O  Z9L D   5      17.959  29.447 -57.0810  0.00  0.00     0.000 O
ATOM     86   O  Z9L D   5      18.086  27.919 -55.9150  0.00  0.00     0.000 OA
ATOM     87   S  Z9L D   5      18.260  27.889 -57.3350  0.00  0.00     0.000 S
ATOM     88   O  Z9L D   5      19.656  27.592 -57.5360  0.00  0.00     0.000 OA
ATOM     89   O  Z9L D   5      17.178  27.108 -57.8280  0.00  0.00     0.000 OA
ENDBRANCH 78 85
BRANCH 79 90
ATOM     90   O  Z9L D   5      20.371  30.028 -59.1970  0.00  0.00     0.000 O
ATOM     91   S  Z9L D   5      20.684  31.112 -58.0730  0.00  0.00     0.000 S
ATOM     92   O  Z9L D   5      19.987  31.139 -56.8140  0.00  0.00     0.000 OA
ATOM     93   O  Z9L D   5      21.134  32.331 -58.6980  0.00  0.00     0.000 O
ATOM     94   O  Z9L D   5      21.828  30.276 -57.9060  0.00  0.00     0.000 OA
ENDBRANCH 79 90
BRANCH 81 95
ATOM     95   C  Z9L D   5      16.954  31.024 -62.8560  0.00  0.00     0.000 C
ATOM     96   S  Z9L D   5      16.280  30.079 -64.4750  0.00  0.00     0.000 S
ATOM     97   O  Z9L D   5      16.945  29.645 -63.1150  0.00  0.00     0.000 O
ATOM     98   O  Z9L D   5      17.317  30.684 -65.2700  0.00  0.00     0.000 OA
ATOM     99   O  Z9L D   5      14.987  30.666 -64.3720  0.00  0.00     0.000 OA
ATOM    100   O  Z9L D   5      16.312  28.653 -64.6920  0.00  0.00     0.000 O
ENDBRANCH 81 95
ENDBRANCH 76 80
ENDBRANCH 60 76
ENDBRANCH 59 63
ENDBRANCH 37 59
ENDBRANCH 36 40
ENDBRANCH 23 36
ENDBRANCH 22 26
ENDBRANCH 1 22
TORSDOF 19
ENDMDL
MODEL 42
REMARK VINA RESULT:      -7.0     27.616     34.730
ROOT
ATOM      1  C1  Z9H D   1       4.612  41.338 -24.5240  0.00  0.00     0.000 C
ATOM      2  C2  Z9H D   1       3.857  41.745 -23.2360  0.00  0.00     0.000 C
ATOM      3  C3  Z9H D   1       4.021  43.291 -23.3610  0.00  0.00     0.000 C
ATOM      4  C4  Z9H D   1       5.498  43.798 -23.6280  0.00  0.00     0.000 C
ATOM      5  C5  Z9H D   1       6.444  43.166 -24.7250  0.00  0.00     0.000 C
ATOM      6  O5  Z9H D   1       5.973  41.795 -24.7560  0.00  0.00     0.000 O
ATOM      7   O  Z9H D   1       3.456  43.973 -22.2400  0.00  0.00     0.000 O
ATOM      8   C  Z9H D   1       2.136  44.504 -22.4430  0.00  0.00     0.000 C
ATOM      9   O  Z9H D   1       5.383  45.194 -23.9230  0.00  0.00     0.000 O
ATOM     10   C  Z9H D   1       5.667  46.080 -22.8360  0.00  0.00     0.000 C
ENDROOT
BRANCH 2 11
ATOM     11   O  Z9H D   1       2.523  41.489 -23.5860  0.00  0.00     0.000 O
ATOM     12   O  Z9H D   1       1.463  40.137 -22.8060  0.00  0.00     0.000 OA
ATOM     13   S  Z9H D   1       2.803  40.439 -22.4270  0.00  0.00     0.000 S
ATOM     14   O  Z9H D   1       2.907  41.153 -21.1870  0.00  0.00     0.000 OA
ATOM     15   O  Z9H D   1       3.698  39.391 -22.8610  0.00  0.00     0.000 O
ENDBRANCH 2 11
BRANCH 5 16
ATOM     16   C  Z9H D   1       8.070  43.525 -24.5520  0.00  0.00     0.000 C
ATOM     17   S  Z9H D   1       9.932  42.829 -24.8440  0.00  0.00     0.000 S
ATOM     18   O  Z9H D   1       8.544  42.811 -25.6680  0.00  0.00     0.000 O
ATOM     19   O  Z9H D   1       9.931  42.045 -23.6430  0.00  0.00     0.000 O
ATOM     20   O  Z9H D   1      10.542  44.109 -24.9380  0.00  0.00     0.000 OA
ATOM     21   O  Z9H D   1      10.346  42.063 -25.9840  0.00  0.00     0.000 OA
ENDBRANCH 5 16
BRANCH 1 22
ATOM     22  O4  GU1 D   2       3.969  41.764 -25.7790  0.00  0.00     0.000 O
BRANCH 22 26
ATOM     23  C1  GU1 D   2       3.385  40.807 -29.7430  0.00  0.00     0.000 C
ATOM     24  C2  GU1 D   2       3.514  39.613 -28.8090  0.00  0.00     0.000 C
ATOM     25  C3  GU1 D   2       3.337  40.070 -27.3900  0.00  0.00     0.000 C
ATOM     26  C4  GU1 D   2       4.280  41.220 -27.0670  0.00  0.00     0.000 C
ATOM     27  C5  GU1 D   2       4.146  42.321 -28.1230  0.00  0.00     0.000 C
ATOM     28  O5  GU1 D   2       4.363  41.790 -29.4270  0.00  0.00     0.000 O
ATOM     29   O  GU1 D   2       2.536  38.617 -29.0800  0.00  0.00     0.000 O
ATOM     30   C  GU1 D   2       3.004  37.563 -29.9100  0.00  0.00     0.000 C
ATOM     31   C  GU1 D   2       2.498  38.316 -25.9720  0.00  0.00     0.000 C
ATOM     32   O  GU1 D   2       3.637  38.974 -26.5210  0.00  0.00     0.000 O
BRANCH 27 33
ATOM     33   C  GU1 D   2       5.155  43.421 -27.8970  0.00  0.00     0.000 C
ATOM     34   O  GU1 D   2       6.318  43.204 -28.1700  0.00  0.00     0.000 OA
ATOM     35   O  GU1 D   2       4.805  44.504 -27.4530  0.00  0.00     0.000 O
ENDBRANCH 27 33
BRANCH 23 36
ATOM     36  O4  GU6 D   3       3.756  40.680 -31.1300  0.00  0.00     0.000 O
BRANCH 36 40
ATOM     37  C1  GU6 D   3       5.752  42.155 -34.3760  0.00  0.00     0.000 C
ATOM     38  C2  GU6 D   3       6.473  42.377 -33.0520  0.00  0.00     0.000 C
ATOM     39  C3  GU6 D   3       5.804  41.571 -31.9710  0.00  0.00     0.000 C
ATOM     40  C4  GU6 D   3       4.521  40.934 -32.2900  0.00  0.00     0.000 C
ATOM     41  C5  GU6 D   3       3.678  41.886 -33.2010  0.00  0.00     0.000 C
ATOM     42  O5  GU6 D   3       4.402  42.570 -34.2300  0.00  0.00     0.000 O
BRANCH 38 43
ATOM     43   O  GU6 D   3       7.834  42.006 -33.1590  0.00  0.00     0.000 O
ATOM     44   S  GU6 D   3       8.815  43.163 -33.0230  0.00  0.00     0.000 S
ATOM     45   O  GU6 D   3       8.909  43.853 -34.3210  0.00  0.00     0.000 OA
ATOM     46   O  GU6 D   3       8.300  44.099 -32.0060  0.00  0.00     0.000 O
ATOM     47   O  GU6 D   3      10.110  42.635 -32.6060  0.00  0.00     0.000 OA
ENDBRANCH 38 43
BRANCH 39 48
ATOM     48   O  GU6 D   3       6.490  41.246 -30.7760  0.00  0.00     0.000 O
ATOM     49   S  GU6 D   3       7.272  39.986 -30.4060  0.00  0.00     0.000 S
ATOM     50   O  GU6 D   3       8.315  39.728 -31.4050  0.00  0.00     0.000 OA
ATOM     51   O  GU6 D   3       7.858  40.329 -29.1030  0.00  0.00     0.000 OA
ATOM     52   O  GU6 D   3       6.336  38.842 -30.3430  0.00  0.00     0.000 O
ENDBRANCH 39 48
BRANCH 41 53
ATOM     53   C  GU6 D   3       2.201  42.175 -33.1590  0.00  0.00     0.000 C
ATOM     54   O  GU6 D   3       1.875  41.688 -34.4350  0.00  0.00     0.000 O
ATOM     55   S  GU6 D   3       0.450  41.840 -34.9850  0.00  0.00     0.000 S
ATOM     56   O  GU6 D   3       0.217  43.291 -35.1710  0.00  0.00     0.000 O
ATOM     57   O  GU6 D   3       0.366  41.131 -36.2700  0.00  0.00     0.000 OA
ATOM     58   O  GU6 D   3      -0.473  41.278 -33.9740  0.00  0.00     0.000 OA
ENDBRANCH 41 53
BRANCH 37 59
ATOM     59  O4  Z9K D   4       5.743  40.917 -35.1170  0.00  0.00     0.000 O
BRANCH 59 63
ATOM     60  C1  Z9K D   4       7.907  42.001 -38.2140  0.00  0.00     0.000 C
ATOM     61  C2  Z9K D   4       6.472  42.105 -38.7990  0.00  0.00     0.000 C
ATOM     62  C3  Z9K D   4       5.596  41.847 -37.4960  0.00  0.00     0.000 C
ATOM     63  C4  Z9K D   4       5.986  40.663 -36.5310  0.00  0.00     0.000 C
ATOM     64  C5  Z9K D   4       7.464  40.244 -36.5410  0.00  0.00     0.000 C
ATOM     65  O5  Z9K D   4       8.151  41.493 -36.8190  0.00  0.00     0.000 O
ATOM     66   O  Z9K D   4       4.200  41.647 -37.7800  0.00  0.00     0.000 O
ATOM     67   C  Z9K D   4       3.446  42.844 -37.8830  0.00  0.00     0.000 C
BRANCH 61 68
ATOM     68   O  Z9K D   4       6.267  43.446 -39.1500  0.00  0.00     0.000 O
ATOM     69   O  Z9K D   4       5.043  41.872 -40.7530  0.00  0.00     0.000 OA
ATOM     70   S  Z9K D   4       6.194  42.708 -40.5900  0.00  0.00     0.000 S
ATOM     71   O  Z9K D   4       7.522  42.396 -41.0220  0.00  0.00     0.000 OA
ATOM     72   O  Z9K D   4       5.892  44.062 -40.9240  0.00  0.00     0.000 OA
ENDBRANCH 61 68
BRANCH 64 73
ATOM     73   C  Z9K D   4       7.824  39.471 -35.2540  0.00  0.00     0.000 C
ATOM     74   O  Z9K D   4       7.040  38.603 -34.7700  0.00  0.00     0.000 O
ATOM     75   O  Z9K D   4       8.904  39.666 -34.6450  0.00  0.00     0.000 OA
ENDBRANCH 64 73
BRANCH 60 76
ATOM     76  O4  Z9L D   5       9.057  41.345 -38.7760  0.00  0.00     0.000 O
BRANCH 76 80
ATOM     77  C1  Z9L D   5      13.024  41.608 -39.1780  0.00  0.00     0.000 C
ATOM     78  C2  Z9L D   5      12.722  40.249 -38.3820  0.00  0.00     0.000 C
ATOM     79  C3  Z9L D   5      11.082  39.906 -38.6120  0.00  0.00     0.000 C
ATOM     80  C4  Z9L D   5      10.418  41.404 -38.4360  0.00  0.00     0.000 C
ATOM     81  C5  Z9L D   5      10.853  42.829 -39.0520  0.00  0.00     0.000 C
ATOM     82  O5  Z9L D   5      12.285  42.881 -38.9770  0.00  0.00     0.000 O
ATOM     83   C  Z9L D   5      13.340  42.438 -41.4380  0.00  0.00     0.000 C
ATOM     84   C  Z9L D   5      13.340  42.438 -41.4380  0.00  0.00     0.000 C
BRANCH 78 85
ATOM     85   O  Z9L D   5      13.485  39.235 -38.9540  0.00  0.00     0.000 O
ATOM     86   O  Z9L D   5      15.000  38.387 -38.1210  0.00  0.00     0.000 OA
ATOM     87   S  Z9L D   5      14.138  39.339 -37.4890  0.00  0.00     0.000 S
ATOM     88   O  Z9L D   5      13.429  38.590 -36.4820  0.00  0.00     0.000 OA
ATOM     89   O  Z9L D   5      14.956  40.476 -37.2400  0.00  0.00     0.000 OA
ENDBRANCH 78 85
BRANCH 79 90
ATOM     90   O  Z9L D   5      10.552  39.211 -37.5290  0.00  0.00     0.000 O
ATOM     91   S  Z9L D   5      10.227  38.176 -38.6940  0.00  0.00     0.000 S
ATOM     92   O  Z9L D   5      11.246  37.647 -39.5620  0.00  0.00     0.000 OA
ATOM     93   O  Z9L D   5       8.888  38.407 -39.1780  0.00  0.00     0.000 O
ATOM     94   O  Z9L D   5      10.124  37.296 -37.5760  0.00  0.00     0.000 OA
ENDBRANCH 79 90
BRANCH 81 95
ATOM     95   C  Z9L D   5       9.978  44.175 -38.5680  0.00  0.00     0.000 C
ATOM     96   S  Z9L D   5      10.021  45.833 -37.4650  0.00  0.00     0.000 S
ATOM     97   O  Z9L D   5      10.596  44.374 -37.3250  0.00  0.00     0.000 O
ATOM     98   O  Z9L D   5       8.599  45.741 -37.2570  0.00  0.00     0.000 OA
ATOM     99   O  Z9L D   5      10.566  46.614 -38.5240  0.00  0.00     0.000 OA
ATOM    100   O  Z9L D   5      10.662  45.973 -36.1800  0.00  0.00     0.000 O
ENDBRANCH 81 95
ENDBRANCH 76 80
ENDBRANCH 60 76
ENDBRANCH 59 63
ENDBRANCH 37 59
ENDBRANCH 36 40
ENDBRANCH 23 36
ENDBRANCH 22 26
ENDBRANCH 1 22
TORSDOF 19
ENDMDL
MODEL 43
REMARK VINA RESULT:      -7.0      2.853     14.245
ROOT
ATOM      1  C1  Z9H D   1       2.258  16.852 -53.8120  0.00  0.00     0.000 C
ATOM      2  C2  Z9H D   1       2.143  16.169 -52.4280  0.00  0.00     0.000 C
ATOM      3  C3  Z9H D   1       2.583  17.378 -51.5460  0.00  0.00     0.000 C
ATOM      4  C4  Z9H D   1       3.929  18.087 -51.9890  0.00  0.00     0.000 C
ATOM      5  C5  Z9H D   1       4.238  18.499 -53.4830  0.00  0.00     0.000 C
ATOM      6  O5  Z9H D   1       3.502  17.489 -54.2180  0.00  0.00     0.000 O
ATOM      7   O  Z9H D   1       2.638  17.027 -50.1620  0.00  0.00     0.000 O
ATOM      8   C  Z9H D   1       1.487  17.401 -49.3860  0.00  0.00     0.000 C
ATOM      9   O  Z9H D   1       4.022  19.275 -51.1950  0.00  0.00     0.000 O
ATOM     10   C  Z9H D   1       4.875  19.187 -50.0500  0.00  0.00     0.000 C
ENDROOT
BRANCH 2 11
ATOM     11   O  Z9H D   1       0.752  16.081 -52.2610  0.00  0.00     0.000 O
ATOM     12   O  Z9H D   1      -0.218  14.464 -52.2870  0.00  0.00     0.000 OA
ATOM     13   S  Z9H D   1       1.198  14.563 -52.4070  0.00  0.00     0.000 S
ATOM     14   O  Z9H D   1       1.909  14.185 -51.2190  0.00  0.00     0.000 OA
ATOM     15   O  Z9H D   1       1.612  14.256 -53.7570  0.00  0.00     0.000 O
ENDBRANCH 2 11
BRANCH 5 16
ATOM     16   C  Z9H D   1       5.848  18.815 -53.8130  0.00  0.00     0.000 C
ATOM     17   S  Z9H D   1       7.112  20.135 -54.6480  0.00  0.00     0.000 S
ATOM     18   O  Z9H D   1       5.791  20.218 -53.7240  0.00  0.00     0.000 O
ATOM     19   O  Z9H D   1       6.887  19.653 -55.9800  0.00  0.00     0.000 O
ATOM     20   O  Z9H D   1       8.237  19.761 -53.8630  0.00  0.00     0.000 OA
ATOM     21   O  Z9H D   1       6.975  21.560 -54.5620  0.00  0.00     0.000 OA
ENDBRANCH 5 16
BRANCH 1 22
ATOM     22  O4  GU1 D   2       1.306  17.954 -54.0390  0.00  0.00     0.000 O
BRANCH 22 26
ATOM     23  C1  GU1 D   2      -0.948  19.999 -56.8140  0.00  0.00     0.000 C
ATOM     24  C2  GU1 D   2      -1.007  18.484 -56.9350  0.00  0.00     0.000 C
ATOM     25  C3  GU1 D   2      -0.479  17.865 -55.6730  0.00  0.00     0.000 C
ATOM     26  C4  GU1 D   2       0.901  18.411 -55.3350  0.00  0.00     0.000 C
ATOM     27  C5  GU1 D   2       0.875  19.942 -55.3420  0.00  0.00     0.000 C
ATOM     28  O5  GU1 D   2       0.390  20.427 -56.5910  0.00  0.00     0.000 O
ATOM     29   O  GU1 D   2      -2.335  18.017 -57.1370  0.00  0.00     0.000 O
ATOM     30   C  GU1 D   2      -2.659  17.779 -58.5000  0.00  0.00     0.000 C
ATOM     31   C  GU1 D   2      -1.417  15.684 -55.2750  0.00  0.00     0.000 C
ATOM     32   O  GU1 D   2      -0.375  16.451 -55.8730  0.00  0.00     0.000 O
BRANCH 27 33
ATOM     33   C  GU1 D   2       2.256  20.513 -55.1280  0.00  0.00     0.000 C
ATOM     34   O  GU1 D   2       3.095  20.332 -55.9870  0.00  0.00     0.000 OA
ATOM     35   O  GU1 D   2       2.518  21.144 -54.1160  0.00  0.00     0.000 O
ENDBRANCH 27 33
BRANCH 23 36
ATOM     36  O4  GU6 D   3      -1.166  20.824 -57.9770  0.00  0.00     0.000 O
BRANCH 36 40
ATOM     37  C1  GU6 D   3      -0.826  23.344 -61.1740  0.00  0.00     0.000 C
ATOM     38  C2  GU6 D   3      -1.966  23.698 -60.2270  0.00  0.00     0.000 C
ATOM     39  C3  GU6 D   3      -1.838  22.891 -58.9610  0.00  0.00     0.000 C
ATOM     40  C4  GU6 D   3      -0.849  21.808 -58.9400  0.00  0.00     0.000 C
ATOM     41  C5  GU6 D   3      -0.821  21.098 -60.3330  0.00  0.00     0.000 C
ATOM     42  O5  GU6 D   3      -0.901  21.959 -61.4750  0.00  0.00     0.000 O
BRANCH 38 43
ATOM     43   O  GU6 D   3      -1.950  25.079 -59.9230  0.00  0.00     0.000 O
ATOM     44   S  GU6 D   3      -2.934  25.913 -60.7330  0.00  0.00     0.000 S
ATOM     45   O  GU6 D   3      -2.333  26.202 -62.0460  0.00  0.00     0.000 OA
ATOM     46   O  GU6 D   3      -4.170  25.131 -60.9210  0.00  0.00     0.000 O
ATOM     47   O  GU6 D   3      -3.226  27.141 -59.9990  0.00  0.00     0.000 OA
ENDBRANCH 38 43
BRANCH 39 48
ATOM     48   O  GU6 D   3      -2.475  23.306 -57.7670  0.00  0.00     0.000 O
ATOM     49   S  GU6 D   3      -3.899  23.051 -57.2760  0.00  0.00     0.000 S
ATOM     50   O  GU6 D   3      -4.175  21.610 -57.2510  0.00  0.00     0.000 OA
ATOM     51   O  GU6 D   3      -3.889  23.614 -55.9190  0.00  0.00     0.000 OA
ATOM     52   O  GU6 D   3      -4.849  23.733 -58.1830  0.00  0.00     0.000 O
ENDBRANCH 39 48
BRANCH 41 53
ATOM     53   C  GU6 D   3      -0.708  19.630 -60.6470  0.00  0.00     0.000 C
ATOM     54   O  GU6 D   3      -1.377  19.646 -61.8810  0.00  0.00     0.000 O
ATOM     55   S  GU6 D   3      -1.661  18.337 -62.6300  0.00  0.00     0.000 S
ATOM     56   O  GU6 D   3      -2.620  17.571 -61.8010  0.00  0.00     0.000 O
ATOM     57   O  GU6 D   3      -2.248  18.663 -63.9370  0.00  0.00     0.000 OA
ATOM     58   O  GU6 D   3      -0.374  17.617 -62.7580  0.00  0.00     0.000 OA
ENDBRANCH 41 53
BRANCH 37 59
ATOM     59  O4  Z9K D   4       0.564  23.661 -60.9530  0.00  0.00     0.000 O
BRANCH 59 63
ATOM     60  C1  Z9K D   4       1.022  27.198 -62.6040  0.00  0.00     0.000 C
ATOM     61  C2  Z9K D   4       1.347  26.263 -63.8010  0.00  0.00     0.000 C
ATOM     62  C3  Z9K D   4       0.982  24.844 -63.1830  0.00  0.00     0.000 C
ATOM     63  C4  Z9K D   4       1.478  24.490 -61.7290  0.00  0.00     0.000 C
ATOM     64  C5  Z9K D   4       1.719  25.682 -60.7900  0.00  0.00     0.000 C
ATOM     65  O5  Z9K D   4       0.732  26.648 -61.2350  0.00  0.00     0.000 O
ATOM     66   O  Z9K D   4       1.413  23.740 -63.9990  0.00  0.00     0.000 O
ATOM     67   C  Z9K D   4       0.500  23.375 -65.0210  0.00  0.00     0.000 C
BRANCH 61 68
ATOM     68   O  Z9K D   4       0.390  26.517 -64.7940  0.00  0.00     0.000 O
ATOM     69   O  Z9K D   4       2.623  25.804 -65.8210  0.00  0.00     0.000 OA
ATOM     70   S  Z9K D   4       1.768  26.918 -65.5450  0.00  0.00     0.000 S
ATOM     71   O  Z9K D   4       2.193  28.204 -65.0840  0.00  0.00     0.000 OA
ATOM     72   O  Z9K D   4       0.796  27.082 -66.5780  0.00  0.00     0.000 OA
ENDBRANCH 61 68
BRANCH 64 73
ATOM     73   C  Z9K D   4       1.703  25.230 -59.3140  0.00  0.00     0.000 C
ATOM     74   O  Z9K D   4       0.813  25.639 -58.5130  0.00  0.00     0.000 O
ATOM     75   O  Z9K D   4       2.562  24.438 -58.8550  0.00  0.00     0.000 OA
ENDBRANCH 64 73
BRANCH 60 76
ATOM     76  O4  Z9L D   5       1.774  28.323 -62.1180  0.00  0.00     0.000 O
BRANCH 76 80
ATOM     77  C1  Z9L D   5       1.565  32.153 -60.9970  0.00  0.00     0.000 C
ATOM     78  C2  Z9L D   5       1.932  31.300 -59.6890  0.00  0.00     0.000 C
ATOM     79  C3  Z9L D   5       2.467  29.789 -60.2290  0.00  0.00     0.000 C
ATOM     80  C4  Z9L D   5       1.375  29.476 -61.4230  0.00  0.00     0.000 C
ATOM     81  C5  Z9L D   5       0.821  30.408 -62.6160  0.00  0.00     0.000 C
ATOM     82  O5  Z9L D   5       0.615  31.710 -62.0480  0.00  0.00     0.000 O
ATOM     83   C  Z9L D   5       2.625  33.364 -62.8150  0.00  0.00     0.000 C
ATOM     84   C  Z9L D   5       2.625  33.364 -62.8150  0.00  0.00     0.000 C
BRANCH 78 85
ATOM     85   O  Z9L D   5       2.976  31.945 -59.0320  0.00  0.00     0.000 O
ATOM     86   O  Z9L D   5       2.822  32.863 -57.3460  0.00  0.00     0.000 OA
ATOM     87   S  Z9L D   5       1.785  32.094 -57.9630  0.00  0.00     0.000 S
ATOM     88   O  Z9L D   5       1.619  30.941 -57.1130  0.00  0.00     0.000 OA
ATOM     89   O  Z9L D   5       0.763  33.030 -58.2800  0.00  0.00     0.000 OA
ENDBRANCH 78 85
BRANCH 79 90
ATOM     90   O  Z9L D   5       2.191  28.791 -59.2980  0.00  0.00     0.000 O
ATOM     91   S  Z9L D   5       3.777  28.657 -59.3720  0.00  0.00     0.000 S
ATOM     92   O  Z9L D   5       4.657  29.767 -59.1170  0.00  0.00     0.000 OA
ATOM     93   O  Z9L D   5       4.125  27.640 -60.3330  0.00  0.00     0.000 O
ATOM     94   O  Z9L D   5       3.552  28.000 -58.1260  0.00  0.00     0.000 OA
ENDBRANCH 79 90
BRANCH 81 95
ATOM     95   C  Z9L D   5      -0.375  29.767 -63.6020  0.00  0.00     0.000 C
ATOM     96   S  Z9L D   5      -2.330  29.743 -63.9810  0.00  0.00     0.000 S
ATOM     97   O  Z9L D   5      -1.436  29.831 -62.6870  0.00  0.00     0.000 O
ATOM     98   O  Z9L D   5      -2.227  28.390 -64.4650  0.00  0.00     0.000 OA
ATOM     99   O  Z9L D   5      -2.248  30.855 -64.8670  0.00  0.00     0.000 OA
ATOM    100   O  Z9L D   5      -3.379  29.795 -62.9930  0.00  0.00     0.000 O
ENDBRANCH 81 95
ENDBRANCH 76 80
ENDBRANCH 60 76
ENDBRANCH 59 63
ENDBRANCH 37 59
ENDBRANCH 36 40
ENDBRANCH 23 36
ENDBRANCH 22 26
ENDBRANCH 1 22
TORSDOF 19
ENDMDL
MODEL 44
REMARK VINA RESULT:      -7.0     40.361     45.822
ROOT
ATOM      1  C1  Z9H D   1      33.462  30.301 -30.7630  0.00  0.00     0.000 C
ATOM      2  C2  Z9H D   1      33.480  31.045 -32.1200  0.00  0.00     0.000 C
ATOM      3  C3  Z9H D   1      32.018  30.731 -32.5640  0.00  0.00     0.000 C
ATOM      4  C4  Z9H D   1      31.596  29.206 -32.4840  0.00  0.00     0.000 C
ATOM      5  C5  Z9H D   1      31.874  28.298 -31.2200  0.00  0.00     0.000 C
ATOM      6  O5  Z9H D   1      33.087  28.897 -30.6980  0.00  0.00     0.000 O
ATOM      7   O  Z9H D   1      31.739  31.256 -33.8640  0.00  0.00     0.000 O
ATOM      8   C  Z9H D   1      31.044  32.514 -33.8840  0.00  0.00     0.000 C
ATOM      9   O  Z9H D   1      30.184  29.180 -32.7200  0.00  0.00     0.000 O
ATOM     10   C  Z9H D   1      29.787  28.839 -34.0510  0.00  0.00     0.000 C
ENDROOT
BRANCH 2 11
ATOM     11   O  Z9H D   1      33.459  32.389 -31.7160  0.00  0.00     0.000 O
ATOM     12   O  Z9H D   1      34.882  33.598 -31.9820  0.00  0.00     0.000 OA
ATOM     13   S  Z9H D   1      34.871  32.245 -32.4290  0.00  0.00     0.000 S
ATOM     14   O  Z9H D   1      34.651  32.102 -33.8400  0.00  0.00     0.000 OA
ATOM     15   O  Z9H D   1      35.786  31.448 -31.6450  0.00  0.00     0.000 O
ENDBRANCH 2 11
BRANCH 5 16
ATOM     16   C  Z9H D   1      31.765  26.651 -31.4930  0.00  0.00     0.000 C
ATOM     17   S  Z9H D   1      31.427  25.250 -32.8950  0.00  0.00     0.000 S
ATOM     18   O  Z9H D   1      32.238  26.644 -32.8180  0.00  0.00     0.000 O
ATOM     19   O  Z9H D   1      30.000  25.378 -32.8150  0.00  0.00     0.000 O
ATOM     20   O  Z9H D   1      32.155  24.222 -32.2360  0.00  0.00     0.000 OA
ATOM     21   O  Z9H D   1      31.897  25.322 -34.2470  0.00  0.00     0.000 OA
ENDBRANCH 5 16
BRANCH 1 22
ATOM     22  O4  GU1 D   2      32.547  30.869 -29.7570  0.00  0.00     0.000 O
BRANCH 22 26
ATOM     23  C1  GU1 D   2      31.967  31.641 -25.7520  0.00  0.00     0.000 C
ATOM     24  C2  GU1 D   2      33.389  31.860 -26.2470  0.00  0.00     0.000 C
ATOM     25  C3  GU1 D   2      33.390  31.924 -27.7470  0.00  0.00     0.000 C
ATOM     26  C4  GU1 D   2      32.704  30.703 -28.3430  0.00  0.00     0.000 C
ATOM     27  C5  GU1 D   2      31.325  30.512 -27.7040  0.00  0.00     0.000 C
ATOM     28  O5  GU1 D   2      31.439  30.432 -26.2860  0.00  0.00     0.000 O
ATOM     29   O  GU1 D   2      33.944  33.072 -25.7500  0.00  0.00     0.000 O
ATOM     30   C  GU1 D   2      34.754  32.903 -24.5960  0.00  0.00     0.000 C
ATOM     31   C  GU1 D   2      35.220  33.235 -28.5960  0.00  0.00     0.000 C
ATOM     32   O  GU1 D   2      34.748  31.951 -28.1970  0.00  0.00     0.000 O
BRANCH 27 33
ATOM     33   C  GU1 D   2      30.669  29.241 -28.1890  0.00  0.00     0.000 C
ATOM     34   O  GU1 D   2      29.565  29.314 -28.6870  0.00  0.00     0.000 OA
ATOM     35   O  GU1 D   2      31.243  28.168 -28.0830  0.00  0.00     0.000 O
ENDBRANCH 27 33
BRANCH 23 36
ATOM     36  O4  GU6 D   3      31.728  31.300 -24.3720  0.00  0.00     0.000 O
BRANCH 36 40
ATOM     37  C1  GU6 D   3      32.546  31.907 -20.4150  0.00  0.00     0.000 C
ATOM     38  C2  GU6 D   3      32.574  33.178 -21.2550  0.00  0.00     0.000 C
ATOM     39  C3  GU6 D   3      32.000  32.895 -22.6190  0.00  0.00     0.000 C
ATOM     40  C4  GU6 D   3      31.743  31.495 -22.9730  0.00  0.00     0.000 C
ATOM     41  C5  GU6 D   3      32.882  30.592 -22.3930  0.00  0.00     0.000 C
ATOM     42  O5  GU6 D   3      33.323  30.916 -21.0700  0.00  0.00     0.000 O
BRANCH 38 43
ATOM     43   O  GU6 D   3      31.835  34.207 -20.6240  0.00  0.00     0.000 O
ATOM     44   S  GU6 D   3      32.680  35.368 -20.1170  0.00  0.00     0.000 S
ATOM     45   O  GU6 D   3      33.257  34.993 -18.8140  0.00  0.00     0.000 OA
ATOM     46   O  GU6 D   3      33.768  35.615 -21.0810  0.00  0.00     0.000 O
ATOM     47   O  GU6 D   3      31.834  36.551 -20.0040  0.00  0.00     0.000 OA
ENDBRANCH 38 43
BRANCH 39 48
ATOM     48   O  GU6 D   3      31.511  33.944 -23.4330  0.00  0.00     0.000 O
ATOM     49   S  GU6 D   3      30.082  34.447 -23.6300  0.00  0.00     0.000 S
ATOM     50   O  GU6 D   3      29.487  34.800 -22.3360  0.00  0.00     0.000 OA
ATOM     51   O  GU6 D   3      30.262  35.636 -24.4740  0.00  0.00     0.000 OA
ATOM     52   O  GU6 D   3      29.284  33.384 -24.2810  0.00  0.00     0.000 O
ENDBRANCH 39 48
BRANCH 41 53
ATOM     53   C  GU6 D   3      33.573  29.415 -23.0270  0.00  0.00     0.000 C
ATOM     54   O  GU6 D   3      32.832  28.399 -22.4010  0.00  0.00     0.000 O
ATOM     55   S  GU6 D   3      33.203  26.925 -22.6080  0.00  0.00     0.000 S
ATOM     56   O  GU6 D   3      34.532  26.727 -21.9850  0.00  0.00     0.000 O
ATOM     57   O  GU6 D   3      32.190  26.089 -21.9480  0.00  0.00     0.000 OA
ATOM     58   O  GU6 D   3      33.260  26.687 -24.0680  0.00  0.00     0.000 OA
ENDBRANCH 41 53
BRANCH 37 59
ATOM     59  O4  Z9K D   4      31.351  31.262 -19.9270  0.00  0.00     0.000 O
BRANCH 59 63
ATOM     60  C1  Z9K D   4      29.766  28.607 -17.5010  0.00  0.00     0.000 C
ATOM     61  C2  Z9K D   4      31.141  27.951 -17.8090  0.00  0.00     0.000 C
ATOM     62  C3  Z9K D   4      31.848  29.109 -18.6380  0.00  0.00     0.000 C
ATOM     63  C4  Z9K D   4      31.039  29.847 -19.7710  0.00  0.00     0.000 C
ATOM     64  C5  Z9K D   4      29.511  29.863 -19.6080  0.00  0.00     0.000 C
ATOM     65  O5  Z9K D   4      29.342  29.888 -18.1660  0.00  0.00     0.000 O
ATOM     66   O  Z9K D   4      33.071  28.691 -19.2700  0.00  0.00     0.000 O
ATOM     67   C  Z9K D   4      34.218  28.772 -18.4400  0.00  0.00     0.000 C
BRANCH 61 68
ATOM     68   O  Z9K D   4      31.833  27.857 -16.5940  0.00  0.00     0.000 O
ATOM     69   O  Z9K D   4      32.459  25.938 -18.1660  0.00  0.00     0.000 OA
ATOM     70   S  Z9K D   4      31.686  26.301 -17.0160  0.00  0.00     0.000 S
ATOM     71   O  Z9K D   4      30.353  25.865 -16.7330  0.00  0.00     0.000 OA
ATOM     72   O  Z9K D   4      32.473  26.224 -15.8280  0.00  0.00     0.000 OA
ENDBRANCH 61 68
BRANCH 64 73
ATOM     73   C  Z9K D   4      28.881  30.994 -20.4480  0.00  0.00     0.000 C
ATOM     74   O  Z9K D   4      28.684  30.856 -21.6900  0.00  0.00     0.000 O
ATOM     75   O  Z9K D   4      28.535  32.086 -19.9340  0.00  0.00     0.000 OA
ENDBRANCH 64 73
BRANCH 60 76
ATOM     76  O4  Z9L D   5      28.459  28.011 -17.5570  0.00  0.00     0.000 O
BRANCH 76 80
ATOM     77  C1  Z9L D   5      25.036  27.496 -15.5590  0.00  0.00     0.000 C
ATOM     78  C2  Z9L D   5      24.694  28.371 -16.8580  0.00  0.00     0.000 C
ATOM     79  C3  Z9L D   5      26.003  28.201 -17.9160  0.00  0.00     0.000 C
ATOM     80  C4  Z9L D   5      27.271  28.313 -16.8710  0.00  0.00     0.000 C
ATOM     81  C5  Z9L D   5      27.525  27.610 -15.4420  0.00  0.00     0.000 C
ATOM     82  O5  Z9L D   5      26.270  27.647 -14.7460  0.00  0.00     0.000 O
ATOM     83   C  Z9L D   5      25.124  25.187 -14.8120  0.00  0.00     0.000 C
ATOM     84   C  Z9L D   5      25.124  25.187 -14.8120  0.00  0.00     0.000 C
BRANCH 78 85
ATOM     85   O  Z9L D   5      23.555  27.836 -17.4520  0.00  0.00     0.000 O
ATOM     86   O  Z9L D   5      21.817  28.667 -17.4610  0.00  0.00     0.000 OA
ATOM     87   S  Z9L D   5      23.017  29.269 -16.9630  0.00  0.00     0.000 S
ATOM     88   O  Z9L D   5      23.306  30.342 -17.8820  0.00  0.00     0.000 OA
ATOM     89   O  Z9L D   5      22.805  29.423 -15.5650  0.00  0.00     0.000 OA
ENDBRANCH 78 85
BRANCH 79 90
ATOM     90   O  Z9L D   5      26.164  29.334 -18.7100  0.00  0.00     0.000 O
ATOM     91   S  Z9L D   5      25.954  28.239 -19.8470  0.00  0.00     0.000 S
ATOM     92   O  Z9L D   5      24.793  27.389 -19.8940  0.00  0.00     0.000 OA
ATOM     93   O  Z9L D   5      27.240  27.763 -20.2950  0.00  0.00     0.000 O
ATOM     94   O  Z9L D   5      25.651  29.410 -20.6030  0.00  0.00     0.000 OA
ENDBRANCH 79 90
BRANCH 81 95
ATOM     95   C  Z9L D   5      28.914  28.043 -14.6080  0.00  0.00     0.000 C
ATOM     96   S  Z9L D   5      29.712  29.368 -13.3540  0.00  0.00     0.000 S
ATOM     97   O  Z9L D   5      28.681  29.424 -14.5420  0.00  0.00     0.000 O
ATOM     98   O  Z9L D   5      31.010  29.154 -13.9400  0.00  0.00     0.000 OA
ATOM     99   O  Z9L D   5      29.291  28.645 -12.2020  0.00  0.00     0.000 OA
ATOM    100   O  Z9L D   5      29.445  30.785 -13.3450  0.00  0.00     0.000 O
ENDBRANCH 81 95
ENDBRANCH 76 80
ENDBRANCH 60 76
ENDBRANCH 59 63
ENDBRANCH 37 59
ENDBRANCH 36 40
ENDBRANCH 23 36
ENDBRANCH 22 26
ENDBRANCH 1 22
TORSDOF 19
ENDMDL
MODEL 45
REMARK VINA RESULT:      -7.0     38.647     44.740
ROOT
ATOM      1  C1  Z9H D   1       6.115  42.961 -27.6560  0.00  0.00     0.000 C
ATOM      2  C2  Z9H D   1       6.196  42.035 -28.8930  0.00  0.00     0.000 C
ATOM      3  C3  Z9H D   1       7.603  41.421 -28.6190  0.00  0.00     0.000 C
ATOM      4  C4  Z9H D   1       8.753  42.468 -28.3160  0.00  0.00     0.000 C
ATOM      5  C5  Z9H D   1       8.588  43.660 -27.2910  0.00  0.00     0.000 C
ATOM      6  O5  Z9H D   1       7.167  43.929 -27.3900  0.00  0.00     0.000 O
ATOM      7   O  Z9H D   1       8.003  40.533 -29.6650  0.00  0.00     0.000 O
ATOM      8   C  Z9H D   1       7.790  39.136 -29.4020  0.00  0.00     0.000 C
ATOM      9   O  Z9H D   1       9.879  41.695 -27.8860  0.00  0.00     0.000 O
ATOM     10   C  Z9H D   1      10.874  41.446 -28.8850  0.00  0.00     0.000 C
ENDROOT
BRANCH 2 11
ATOM     11   O  Z9H D   1       5.284  41.021 -28.5600  0.00  0.00     0.000 O
ATOM     12   O  Z9H D   1       3.687  40.680 -29.5040  0.00  0.00     0.000 OA
ATOM     13   S  Z9H D   1       4.644  41.673 -29.8590  0.00  0.00     0.000 S
ATOM     14   O  Z9H D   1       5.456  41.318 -30.9880  0.00  0.00     0.000 OA
ATOM     15   O  Z9H D   1       4.122  42.994 -29.5930  0.00  0.00     0.000 O
ENDBRANCH 2 11
BRANCH 5 16
ATOM     16   C  Z9H D   1       9.719  44.885 -27.4410  0.00  0.00     0.000 C
ATOM     17   S  Z9H D   1      11.304  45.519 -28.5010  0.00  0.00     0.000 S
ATOM     18   O  Z9H D   1       9.887  44.821 -28.8360  0.00  0.00     0.000 O
ATOM     19   O  Z9H D   1      12.232  44.687 -27.7910  0.00  0.00     0.000 O
ATOM     20   O  Z9H D   1      11.116  46.898 -28.2140  0.00  0.00     0.000 OA
ATOM     21   O  Z9H D   1      11.440  45.382 -29.9220  0.00  0.00     0.000 OA
ENDBRANCH 5 16
BRANCH 1 22
ATOM     22  O4  GU1 D   2       6.063  42.260 -26.3610  0.00  0.00     0.000 O
BRANCH 22 26
ATOM     23  C1  GU1 D   2       4.359  42.260 -22.6100  0.00  0.00     0.000 C
ATOM     24  C2  GU1 D   2       3.463  42.789 -23.7200  0.00  0.00     0.000 C
ATOM     25  C3  GU1 D   2       4.030  42.388 -25.0510  0.00  0.00     0.000 C
ATOM     26  C4  GU1 D   2       5.487  42.811 -25.1710  0.00  0.00     0.000 C
ATOM     27  C5  GU1 D   2       6.278  42.319 -23.9550  0.00  0.00     0.000 C
ATOM     28  O5  GU1 D   2       5.676  42.779 -22.7480  0.00  0.00     0.000 O
ATOM     29   O  GU1 D   2       2.140  42.273 -23.6270  0.00  0.00     0.000 O
ATOM     30   C  GU1 D   2       1.229  43.141 -22.9690  0.00  0.00     0.000 C
ATOM     31   C  GU1 D   2       2.329  42.212 -26.7440  0.00  0.00     0.000 C
ATOM     32   O  GU1 D   2       3.278  43.041 -26.0780  0.00  0.00     0.000 O
BRANCH 27 33
ATOM     33   C  GU1 D   2       7.700  42.826 -23.9860  0.00  0.00     0.000 C
ATOM     34   O  GU1 D   2       7.887  44.008 -24.1880  0.00  0.00     0.000 OA
ATOM     35   O  GU1 D   2       8.636  42.062 -23.8080  0.00  0.00     0.000 O
ENDBRANCH 27 33
BRANCH 23 36
ATOM     36  O4  GU6 D   3       4.171  42.713 -21.2550  0.00  0.00     0.000 O
BRANCH 36 40
ATOM     37  C1  GU6 D   3       2.734  45.591 -18.7350  0.00  0.00     0.000 C
ATOM     38  C2  GU6 D   3       2.026  44.248 -18.6080  0.00  0.00     0.000 C
ATOM     39  C3  GU6 D   3       2.795  43.198 -19.3670  0.00  0.00     0.000 C
ATOM     40  C4  GU6 D   3       3.890  43.648 -20.2330  0.00  0.00     0.000 C
ATOM     41  C5  GU6 D   3       3.487  44.988 -20.9310  0.00  0.00     0.000 C
ATOM     42  O5  GU6 D   3       2.801  45.939 -20.1090  0.00  0.00     0.000 O
BRANCH 38 43
ATOM     43   O  GU6 D   3       1.909  43.873 -17.2490  0.00  0.00     0.000 O
ATOM     44   S  GU6 D   3       0.570  44.224 -16.6130  0.00  0.00     0.000 S
ATOM     45   O  GU6 D   3       0.599  45.641 -16.2120  0.00  0.00     0.000 OA
ATOM     46   O  GU6 D   3      -0.494  44.019 -17.6120  0.00  0.00     0.000 O
ATOM     47   O  GU6 D   3       0.352  43.351 -15.4640  0.00  0.00     0.000 OA
ENDBRANCH 38 43
BRANCH 39 48
ATOM     48   O  GU6 D   3       2.625  41.823 -19.0790  0.00  0.00     0.000 O
ATOM     49   S  GU6 D   3       1.479  40.879 -19.4420  0.00  0.00     0.000 S
ATOM     50   O  GU6 D   3       1.258  40.888 -20.8930  0.00  0.00     0.000 OA
ATOM     51   O  GU6 D   3       1.969  39.571 -18.9880  0.00  0.00     0.000 OA
ATOM     52   O  GU6 D   3       0.254  41.320 -18.7400  0.00  0.00     0.000 O
ENDBRANCH 39 48
BRANCH 41 53
ATOM     53   C  GU6 D   3       3.732  45.429 -22.3490  0.00  0.00     0.000 C
ATOM     54   O  GU6 D   3       4.719  46.391 -22.0820  0.00  0.00     0.000 O
ATOM     55   S  GU6 D   3       5.275  47.270 -23.2100  0.00  0.00     0.000 S
ATOM     56   O  GU6 D   3       4.161  48.133 -23.6680  0.00  0.00     0.000 O
ATOM     57   O  GU6 D   3       6.375  48.084 -22.6710  0.00  0.00     0.000 OA
ATOM     58   O  GU6 D   3       5.727  46.365 -24.2900  0.00  0.00     0.000 OA
ENDBRANCH 41 53
BRANCH 37 59
ATOM     59  O4  Z9K D   4       4.013  45.911 -18.1480  0.00  0.00     0.000 O
BRANCH 59 63
ATOM     60  C1  Z9K D   4       3.025  48.342 -15.2220  0.00  0.00     0.000 C
ATOM     61  C2  Z9K D   4       3.317  49.352 -16.3670  0.00  0.00     0.000 C
ATOM     62  C3  Z9K D   4       3.536  48.363 -17.5930  0.00  0.00     0.000 C
ATOM     63  C4  Z9K D   4       4.439  47.086 -17.3970  0.00  0.00     0.000 C
ATOM     64  C5  Z9K D   4       4.538  46.542 -15.9640  0.00  0.00     0.000 C
ATOM     65  O5  Z9K D   4       3.236  46.864 -15.4070  0.00  0.00     0.000 O
ATOM     66   O  Z9K D   4       4.064  49.014 -18.7620  0.00  0.00     0.000 O
ATOM     67   C  Z9K D   4       3.083  49.610 -19.5950  0.00  0.00     0.000 C
BRANCH 61 68
ATOM     68   O  Z9K D   4       2.124  50.039 -16.6240  0.00  0.00     0.000 O
ATOM     69   O  Z9K D   4       4.159  51.547 -16.9940  0.00  0.00     0.000 OA
ATOM     70   S  Z9K D   4       3.089  51.229 -16.0970  0.00  0.00     0.000 S
ATOM     71   O  Z9K D   4       3.188  51.151 -14.6710  0.00  0.00     0.000 OA
ATOM     72   O  Z9K D   4       1.899  51.933 -16.4530  0.00  0.00     0.000 OA
ENDBRANCH 61 68
BRANCH 64 73
ATOM     73   C  Z9K D   4       4.999  45.069 -15.9660  0.00  0.00     0.000 C
ATOM     74   O  Z9K D   4       4.370  44.184 -15.3170  0.00  0.00     0.000 O
ATOM     75   O  Z9K D   4       6.007  44.693 -16.6130  0.00  0.00     0.000 OA
ENDBRANCH 64 73
BRANCH 60 76
ATOM     76  O4  Z9L D   5       3.511  48.359 -13.8690  0.00  0.00     0.000 O
BRANCH 76 80
ATOM     77  C1  Z9L D   5       2.419  47.771 -10.0700  0.00  0.00     0.000 C
ATOM     78  C2  Z9L D   5       3.588  46.721 -10.3900  0.00  0.00     0.000 C
ATOM     79  C3  Z9L D   5       4.353  47.261 -11.7990  0.00  0.00     0.000 C
ATOM     80  C4  Z9L D   5       3.055  47.708 -12.7110  0.00  0.00     0.000 C
ATOM     81  C5  Z9L D   5       1.750  48.576 -12.3340  0.00  0.00     0.000 C
ATOM     82  O5  Z9L D   5       1.345  48.148 -11.0250  0.00  0.00     0.000 O
ATOM     83   C  Z9L D   5       2.084  50.009  -9.1930  0.00  0.00     0.000 C
ATOM     84   C  Z9L D   5       2.084  50.009  -9.1930  0.00  0.00     0.000 C
BRANCH 78 85
ATOM     85   O  Z9L D   5       4.498  46.754  -9.3370  0.00  0.00     0.000 O
ATOM     86   O  Z9L D   5       4.766  45.335  -8.0620  0.00  0.00     0.000 OA
ATOM     87   S  Z9L D   5       3.925  45.257  -9.2180  0.00  0.00     0.000 S
ATOM     88   O  Z9L D   5       4.577  44.314 -10.0920  0.00  0.00     0.000 OA
ATOM     89   O  Z9L D   5       2.603  45.124  -8.7110  0.00  0.00     0.000 OA
ENDBRANCH 78 85
BRANCH 79 90
ATOM     90   O  Z9L D   5       4.883  46.200 -12.5270  0.00  0.00     0.000 O
ATOM     91   S  Z9L D   5       6.216  47.027 -12.2530  0.00  0.00     0.000 S
ATOM     92   O  Z9L D   5       6.645  47.378 -10.9250  0.00  0.00     0.000 OA
ATOM     93   O  Z9L D   5       6.474  47.900 -13.3710  0.00  0.00     0.000 O
ATOM     94   O  Z9L D   5       6.796  45.761 -12.5640  0.00  0.00     0.000 OA
ENDBRANCH 79 90
BRANCH 81 95
ATOM     95   C  Z9L D   5       0.574  48.751 -13.5170  0.00  0.00     0.000 C
ATOM     96   S  Z9L D   5      -1.211  48.125 -14.1400  0.00  0.00     0.000 S
ATOM     97   O  Z9L D   5       0.037  47.457 -13.4500  0.00  0.00     0.000 O
ATOM     98   O  Z9L D   5      -0.837  48.393 -15.5050  0.00  0.00     0.000 OA
ATOM     99   O  Z9L D   5      -1.907  49.091 -13.3590  0.00  0.00     0.000 OA
ATOM    100   O  Z9L D   5      -1.704  46.772 -14.0600  0.00  0.00     0.000 O
ENDBRANCH 81 95
ENDBRANCH 76 80
ENDBRANCH 60 76
ENDBRANCH 59 63
ENDBRANCH 37 59
ENDBRANCH 36 40
ENDBRANCH 23 36
ENDBRANCH 22 26
ENDBRANCH 1 22
TORSDOF 19
ENDMDL
MODEL 46
REMARK VINA RESULT:      -7.0      6.279     15.401
ROOT
ATOM      1  C1  Z9H D   1       4.727  20.951 -57.1820  0.00  0.00     0.000 C
ATOM      2  C2  Z9H D   1       5.163  19.926 -56.1070  0.00  0.00     0.000 C
ATOM      3  C3  Z9H D   1       6.426  20.676 -55.5840  0.00  0.00     0.000 C
ATOM      4  C4  Z9H D   1       7.441  21.159 -56.7020  0.00  0.00     0.000 C
ATOM      5  C5  Z9H D   1       6.988  21.922 -58.0090  0.00  0.00     0.000 C
ATOM      6  O5  Z9H D   1       5.659  21.379 -58.2130  0.00  0.00     0.000 O
ATOM      7   O  Z9H D   1       7.111  19.920 -54.5840  0.00  0.00     0.000 O
ATOM      8   C  Z9H D   1       6.825  20.294 -53.2260  0.00  0.00     0.000 C
ATOM      9   O  Z9H D   1       8.389  21.996 -56.0310  0.00  0.00     0.000 O
ATOM     10   C  Z9H D   1       9.631  21.372 -55.6900  0.00  0.00     0.000 C
ENDROOT
BRANCH 2 11
ATOM     11   O  Z9H D   1       4.189  20.112 -55.1140  0.00  0.00     0.000 O
ATOM     12   O  Z9H D   1       2.874  18.836 -54.6670  0.00  0.00     0.000 OA
ATOM     13   S  Z9H D   1       3.897  18.641 -55.6380  0.00  0.00     0.000 S
ATOM     14   O  Z9H D   1       4.961  17.785 -55.1970  0.00  0.00     0.000 OA
ATOM     15   O  Z9H D   1       3.335  18.651 -56.9700  0.00  0.00     0.000 O
ENDBRANCH 2 11
BRANCH 5 16
ATOM     16   C  Z9H D   1       8.117  21.945 -59.2440  0.00  0.00     0.000 C
ATOM     17   S  Z9H D   1       9.950  21.324 -59.7880  0.00  0.00     0.000 S
ATOM     18   O  Z9H D   1       8.694  20.685 -59.0000  0.00  0.00     0.000 O
ATOM     19   O  Z9H D   1      10.620  22.385 -59.0930  0.00  0.00     0.000 O
ATOM     20   O  Z9H D   1       9.691  21.348 -61.1850  0.00  0.00     0.000 OA
ATOM     21   O  Z9H D   1      10.502  20.040 -59.4680  0.00  0.00     0.000 OA
ENDBRANCH 5 16
BRANCH 1 22
ATOM     22  O4  GU1 D   2       4.295  22.256 -56.6520  0.00  0.00     0.000 O
BRANCH 22 26
ATOM     23  C1  GU1 D   2       1.626  25.348 -57.1900  0.00  0.00     0.000 C
ATOM     24  C2  GU1 D   2       1.138  23.990 -57.6720  0.00  0.00     0.000 C
ATOM     25  C3  GU1 D   2       2.006  22.914 -57.0870  0.00  0.00     0.000 C
ATOM     26  C4  GU1 D   2       3.476  23.185 -57.3720  0.00  0.00     0.000 C
ATOM     27  C5  GU1 D   2       3.838  24.610 -56.9460  0.00  0.00     0.000 C
ATOM     28  O5  GU1 D   2       2.979  25.554 -57.5800  0.00  0.00     0.000 O
ATOM     29   O  GU1 D   2      -0.206  23.739 -57.2820  0.00  0.00     0.000 O
ATOM     30   C  GU1 D   2      -1.163  24.040 -58.2880  0.00  0.00     0.000 C
ATOM     31   C  GU1 D   2       0.833  20.822 -56.8770  0.00  0.00     0.000 C
ATOM     32   O  GU1 D   2       1.645  21.666 -57.6890  0.00  0.00     0.000 O
BRANCH 27 33
ATOM     33   C  GU1 D   2       5.260  24.950 -57.3270  0.00  0.00     0.000 C
ATOM     34   O  GU1 D   2       6.066  25.140 -56.4390  0.00  0.00     0.000 OA
ATOM     35   O  GU1 D   2       5.587  25.026 -58.5010  0.00  0.00     0.000 O
ENDBRANCH 27 33
BRANCH 23 36
ATOM     36  O4  GU6 D   3       1.121  26.553 -57.7980  0.00  0.00     0.000 O
BRANCH 36 40
ATOM     37  C1  GU6 D   3       0.538  30.291 -59.3410  0.00  0.00     0.000 C
ATOM     38  C2  GU6 D   3      -0.173  30.052 -58.0150  0.00  0.00     0.000 C
ATOM     39  C3  GU6 D   3       0.318  28.766 -57.4040  0.00  0.00     0.000 C
ATOM     40  C4  GU6 D   3       1.164  27.898 -58.2310  0.00  0.00     0.000 C
ATOM     41  C5  GU6 D   3       0.653  27.924 -59.7090  0.00  0.00     0.000 C
ATOM     42  O5  GU6 D   3       0.255  29.205 -60.2090  0.00  0.00     0.000 O
BRANCH 38 43
ATOM     43   O  GU6 D   3       0.056  31.128 -57.1260  0.00  0.00     0.000 O
ATOM     44   S  GU6 D   3      -1.055  32.169 -57.0980  0.00  0.00     0.000 S
ATOM     45   O  GU6 D   3      -0.871  33.082 -58.2390  0.00  0.00     0.000 OA
ATOM     46   O  GU6 D   3      -2.351  31.478 -57.2280  0.00  0.00     0.000 O
ATOM     47   O  GU6 D   3      -0.996  32.885 -55.8280  0.00  0.00     0.000 OA
ENDBRANCH 38 43
BRANCH 39 48
ATOM     48   O  GU6 D   3       0.166  28.515 -56.0200  0.00  0.00     0.000 O
ATOM     49   S  GU6 D   3      -1.033  27.966 -55.2480  0.00  0.00     0.000 S
ATOM     50   O  GU6 D   3      -1.449  26.676 -55.8120  0.00  0.00     0.000 OA
ATOM     51   O  GU6 D   3      -0.507  27.805 -53.8860  0.00  0.00     0.000 OA
ATOM     52   O  GU6 D   3      -2.145  28.939 -55.3340  0.00  0.00     0.000 O
ENDBRANCH 39 48
BRANCH 41 53
ATOM     53   C  GU6 D   3       0.535  26.789 -60.6910  0.00  0.00     0.000 C
ATOM     54   O  GU6 D   3       1.880  26.387 -60.6800  0.00  0.00     0.000 O
ATOM     55   S  GU6 D   3       2.370  25.286 -61.6290  0.00  0.00     0.000 S
ATOM     56   O  GU6 D   3       2.250  25.822 -63.0050  0.00  0.00     0.000 O
ATOM     57   O  GU6 D   3       3.773  24.983 -61.3110  0.00  0.00     0.000 OA
ATOM     58   O  GU6 D   3       1.487  24.114 -61.4350  0.00  0.00     0.000 OA
ENDBRANCH 41 53
BRANCH 37 59
ATOM     59  O4  Z9K D   4       1.940  30.601 -59.4850  0.00  0.00     0.000 O
BRANCH 59 63
ATOM     60  C1  Z9K D   4       2.873  34.393 -59.0370  0.00  0.00     0.000 C
ATOM     61  C2  Z9K D   4       2.170  34.418 -60.4230  0.00  0.00     0.000 C
ATOM     62  C3  Z9K D   4       1.634  32.923 -60.5150  0.00  0.00     0.000 C
ATOM     63  C4  Z9K D   4       2.595  31.737 -60.1220  0.00  0.00     0.000 C
ATOM     64  C5  Z9K D   4       3.711  32.076 -59.1230  0.00  0.00     0.000 C
ATOM     65  O5  Z9K D   4       3.104  33.104 -58.2970  0.00  0.00     0.000 O
ATOM     66   O  Z9K D   4       1.135  32.578 -61.8200  0.00  0.00     0.000 O
ATOM     67   C  Z9K D   4      -0.220  32.933 -62.0410  0.00  0.00     0.000 C
BRANCH 61 68
ATOM     68   O  Z9K D   4       1.039  35.235 -60.2960  0.00  0.00     0.000 O
ATOM     69   O  Z9K D   4       2.034  35.389 -62.6490  0.00  0.00     0.000 OA
ATOM     70   S  Z9K D   4       1.920  36.050 -61.3830  0.00  0.00     0.000 S
ATOM     71   O  Z9K D   4       2.972  36.743 -60.7050  0.00  0.00     0.000 OA
ATOM     72   O  Z9K D   4       0.722  36.823 -61.3170  0.00  0.00     0.000 OA
ENDBRANCH 61 68
BRANCH 64 73
ATOM     73   C  Z9K D   4       4.246  30.798 -58.4430  0.00  0.00     0.000 C
ATOM     74   O  Z9K D   4       4.972  29.975 -59.0730  0.00  0.00     0.000 O
ATOM     75   O  Z9K D   4       3.989  30.529 -57.2440  0.00  0.00     0.000 OA
ENDBRANCH 64 73
BRANCH 60 76
ATOM     76  O4  Z9L D   5       4.138  34.966 -58.6650  0.00  0.00     0.000 O
BRANCH 76 80
ATOM     77  C1  Z9L D   5       6.151  36.823 -55.7550  0.00  0.00     0.000 C
ATOM     78  C2  Z9L D   5       6.828  35.381 -55.9480  0.00  0.00     0.000 C
ATOM     79  C3  Z9L D   5       6.301  34.795 -57.4450  0.00  0.00     0.000 C
ATOM     80  C4  Z9L D   5       4.709  35.218 -57.4070  0.00  0.00     0.000 C
ATOM     81  C5  Z9L D   5       3.996  36.603 -56.9900  0.00  0.00     0.000 C
ATOM     82  O5  Z9L D   5       4.691  37.081 -55.8290  0.00  0.00     0.000 O
ATOM     83   C  Z9L D   5       6.344  39.114 -56.5320  0.00  0.00     0.000 C
ATOM     84   C  Z9L D   5       6.344  39.114 -56.5320  0.00  0.00     0.000 C
BRANCH 78 85
ATOM     85   O  Z9L D   5       8.208  35.554 -55.9860  0.00  0.00     0.000 O
ATOM     86   O  Z9L D   5       9.438  34.936 -54.6390  0.00  0.00     0.000 OA
ATOM     87   S  Z9L D   5       8.036  34.652 -54.6670  0.00  0.00     0.000 S
ATOM     88   O  Z9L D   5       7.946  33.239 -54.9370  0.00  0.00     0.000 OA
ATOM     89   O  Z9L D   5       7.499  35.302 -53.5210  0.00  0.00     0.000 OA
ENDBRANCH 78 85
BRANCH 79 90
ATOM     90   O  Z9L D   5       6.244  33.404 -57.4520  0.00  0.00     0.000 O
ATOM     91   S  Z9L D   5       7.257  33.636 -58.6590  0.00  0.00     0.000 S
ATOM     92   O  Z9L D   5       8.477  34.385 -58.5080  0.00  0.00     0.000 OA
ATOM     93   O  Z9L D   5       6.523  33.656 -59.9010  0.00  0.00     0.000 O
ATOM     94   O  Z9L D   5       7.559  32.272 -58.3700  0.00  0.00     0.000 OA
ENDBRANCH 79 90
BRANCH 81 95
ATOM     95   C  Z9L D   5       2.319  36.635 -56.9890  0.00  0.00     0.000 C
ATOM     96   S  Z9L D   5       0.692  36.533 -55.8450  0.00  0.00     0.000 S
ATOM     97   O  Z9L D   5       2.111  35.850 -55.8450  0.00  0.00     0.000 O
ATOM     98   O  Z9L D   5      -0.048  35.954 -56.9360  0.00  0.00     0.000 OA
ATOM     99   O  Z9L D   5       0.681  37.937 -55.6040  0.00  0.00     0.000 OA
ATOM    100   O  Z9L D   5       0.529  35.691 -54.6860  0.00  0.00     0.000 O
ENDBRANCH 81 95
ENDBRANCH 76 80
ENDBRANCH 60 76
ENDBRANCH 59 63
ENDBRANCH 37 59
ENDBRANCH 36 40
ENDBRANCH 23 36
ENDBRANCH 22 26
ENDBRANCH 1 22
TORSDOF 19
ENDMDL
MODEL 47
REMARK VINA RESULT:      -7.0     31.212     37.183
ROOT
ATOM      1  C1  Z9H D   1       9.628  40.605 -33.6500  0.00  0.00     0.000 C
ATOM      2  C2  Z9H D   1       9.691  40.116 -35.1170  0.00  0.00     0.000 C
ATOM      3  C3  Z9H D   1       8.178  40.258 -35.4640  0.00  0.00     0.000 C
ATOM      4  C4  Z9H D   1       7.178  39.591 -34.4310  0.00  0.00     0.000 C
ATOM      5  C5  Z9H D   1       7.290  39.792 -32.8670  0.00  0.00     0.000 C
ATOM      6  O5  Z9H D   1       8.718  39.979 -32.7030  0.00  0.00     0.000 O
ATOM      7   O  Z9H D   1       7.897  39.806 -36.7900  0.00  0.00     0.000 O
ATOM      8   C  Z9H D   1       7.806  40.839 -37.7870  0.00  0.00     0.000 C
ATOM      9   O  Z9H D   1       5.870  40.024 -34.8200  0.00  0.00     0.000 O
ATOM     10   C  Z9H D   1       5.115  39.088 -35.5950  0.00  0.00     0.000 C
ENDROOT
BRANCH 2 11
ATOM     11   O  Z9H D   1      10.317  41.197 -35.7580  0.00  0.00     0.000 O
ATOM     12   O  Z9H D   1      12.031  41.116 -36.5420  0.00  0.00     0.000 OA
ATOM     13   S  Z9H D   1      11.365  40.015 -35.9300  0.00  0.00     0.000 S
ATOM     14   O  Z9H D   1      10.828  39.069 -36.8670  0.00  0.00     0.000 OA
ATOM     15   O  Z9H D   1      11.998  39.676 -34.6760  0.00  0.00     0.000 O
ENDBRANCH 2 11
BRANCH 5 16
ATOM     16   C  Z9H D   1       6.447  38.676 -31.9480  0.00  0.00     0.000 C
ATOM     17   S  Z9H D   1       5.078  38.468 -30.4900  0.00  0.00     0.000 S
ATOM     18   O  Z9H D   1       5.264  39.421 -31.7800  0.00  0.00     0.000 O
ATOM     19   O  Z9H D   1       6.027  38.687 -29.4370  0.00  0.00     0.000 O
ATOM     20   O  Z9H D   1       4.647  37.175 -30.8940  0.00  0.00     0.000 OA
ATOM     21   O  Z9H D   1       3.914  39.291 -30.3430  0.00  0.00     0.000 OA
ENDBRANCH 5 16
BRANCH 1 22
ATOM     22  O4  GU1 D   2       9.253  42.020 -33.4850  0.00  0.00     0.000 O
BRANCH 22 26
ATOM     23  C1  GU1 D   2       9.668  45.410 -31.1810  0.00  0.00     0.000 C
ATOM     24  C2  GU1 D   2      10.957  44.640 -31.4250  0.00  0.00     0.000 C
ATOM     25  C3  GU1 D   2      10.756  43.679 -32.5600  0.00  0.00     0.000 C
ATOM     26  C4  GU1 D   2       9.539  42.797 -32.3160  0.00  0.00     0.000 C
ATOM     27  C5  GU1 D   2       8.323  43.664 -31.9790  0.00  0.00     0.000 C
ATOM     28  O5  GU1 D   2       8.608  44.514 -30.8710  0.00  0.00     0.000 O
ATOM     29   O  GU1 D   2      12.038  45.503 -31.7600  0.00  0.00     0.000 O
ATOM     30   C  GU1 D   2      12.868  45.839 -30.6580  0.00  0.00     0.000 C
ATOM     31   C  GU1 D   2      12.814  43.188 -33.7070  0.00  0.00     0.000 C
ATOM     32   O  GU1 D   2      11.914  42.844 -32.6560  0.00  0.00     0.000 O
BRANCH 27 33
ATOM     33   C  GU1 D   2       7.130  42.813 -31.6140  0.00  0.00     0.000 C
ATOM     34   O  GU1 D   2       6.176  42.803 -32.3640  0.00  0.00     0.000 OA
ATOM     35   O  GU1 D   2       7.131  42.148 -30.5890  0.00  0.00     0.000 O
ENDBRANCH 27 33
BRANCH 23 36
ATOM     36  O4  GU6 D   3       9.523  46.215 -29.9950  0.00  0.00     0.000 O
BRANCH 36 40
ATOM     37  C1  GU6 D   3       8.758  47.410 -26.1630  0.00  0.00     0.000 C
ATOM     38  C2  GU6 D   3       8.921  48.561 -27.1490  0.00  0.00     0.000 C
ATOM     39  C3  GU6 D   3       8.925  48.023 -28.5560  0.00  0.00     0.000 C
ATOM     40  C4  GU6 D   3       9.002  46.568 -28.7290  0.00  0.00     0.000 C
ATOM     41  C5  GU6 D   3       9.961  45.963 -27.6510  0.00  0.00     0.000 C
ATOM     42  O5  GU6 D   3       9.844  46.512 -26.3330  0.00  0.00     0.000 O
BRANCH 38 43
ATOM     43   O  GU6 D   3       7.875  49.500 -26.9940  0.00  0.00     0.000 O
ATOM     44   S  GU6 D   3       8.342  50.917 -26.6890  0.00  0.00     0.000 S
ATOM     45   O  GU6 D   3       8.633  51.015 -25.2490  0.00  0.00     0.000 OA
ATOM     46   O  GU6 D   3       9.572  51.183 -27.4570  0.00  0.00     0.000 O
ATOM     47   O  GU6 D   3       7.294  51.853 -27.0850  0.00  0.00     0.000 OA
ENDBRANCH 38 43
BRANCH 39 48
ATOM     48   O  GU6 D   3       8.631  48.863 -29.6560  0.00  0.00     0.000 O
ATOM     49   S  GU6 D   3       7.328  49.041 -30.4330  0.00  0.00     0.000 S
ATOM     50   O  GU6 D   3       6.237  49.392 -29.5170  0.00  0.00     0.000 OA
ATOM     51   O  GU6 D   3       7.633  50.152 -31.3450  0.00  0.00     0.000 OA
ATOM     52   O  GU6 D   3       7.013  47.778 -31.1370  0.00  0.00     0.000 O
ENDBRANCH 39 48
BRANCH 41 53
ATOM     53   C  GU6 D   3      10.984  44.870 -27.8000  0.00  0.00     0.000 C
ATOM     54   O  GU6 D   3      10.094  43.790 -27.9150  0.00  0.00     0.000 O
ATOM     55   S  GU6 D   3      10.621  42.350 -27.9810  0.00  0.00     0.000 S
ATOM     56   O  GU6 D   3      11.242  42.062 -26.6680  0.00  0.00     0.000 O
ATOM     57   O  GU6 D   3       9.487  41.448 -28.2300  0.00  0.00     0.000 OA
ATOM     58   O  GU6 D   3      11.625  42.300 -29.0670  0.00  0.00     0.000 OA
ENDBRANCH 41 53
BRANCH 37 59
ATOM     59  O4  Z9K D   4       7.564  46.616 -26.0060  0.00  0.00     0.000 O
BRANCH 59 63
ATOM     60  C1  Z9K D   4       3.990  45.529 -24.7860  0.00  0.00     0.000 C
ATOM     61  C2  Z9K D   4       4.199  46.838 -23.9760  0.00  0.00     0.000 C
ATOM     62  C3  Z9K D   4       5.558  47.369 -24.6070  0.00  0.00     0.000 C
ATOM     63  C4  Z9K D   4       6.750  46.360 -24.8250  0.00  0.00     0.000 C
ATOM     64  C5  Z9K D   4       6.359  44.885 -25.0080  0.00  0.00     0.000 C
ATOM     65  O5  Z9K D   4       5.071  44.973 -25.6710  0.00  0.00     0.000 O
ATOM     66   O  Z9K D   4       6.134  48.467 -23.8770  0.00  0.00     0.000 O
ATOM     67   C  Z9K D   4       5.627  49.741 -24.2410  0.00  0.00     0.000 C
BRANCH 61 68
ATOM     68   O  Z9K D   4       3.201  47.735 -24.3790  0.00  0.00     0.000 O
ATOM     69   O  Z9K D   4       3.799  48.063 -21.9120  0.00  0.00     0.000 OA
ATOM     70   S  Z9K D   4       2.837  47.509 -22.8170  0.00  0.00     0.000 S
ATOM     71   O  Z9K D   4       2.181  46.246 -22.6700  0.00  0.00     0.000 OA
ATOM     72   O  Z9K D   4       1.885  48.495 -23.2150  0.00  0.00     0.000 OA
ENDBRANCH 61 68
BRANCH 64 73
ATOM     73   C  Z9K D   4       7.495  44.098 -25.6950  0.00  0.00     0.000 C
ATOM     74   O  Z9K D   4       7.385  43.695 -26.8900  0.00  0.00     0.000 O
ATOM     75   O  Z9K D   4       8.570  43.834 -25.1020  0.00  0.00     0.000 OA
ENDBRANCH 64 73
BRANCH 60 76
ATOM     76  O4  Z9L D   5       3.559  44.242 -24.3100  0.00  0.00     0.000 O
BRANCH 76 80
ATOM     77  C1  Z9L D   5       1.483  40.956 -25.2390  0.00  0.00     0.000 C
ATOM     78  C2  Z9L D   5       3.017  40.514 -25.0860  0.00  0.00     0.000 C
ATOM     79  C3  Z9L D   5       3.802  41.765 -24.2610  0.00  0.00     0.000 C
ATOM     80  C4  Z9L D   5       3.152  43.087 -24.9980  0.00  0.00     0.000 C
ATOM     81  C5  Z9L D   5       1.623  43.442 -25.3670  0.00  0.00     0.000 C
ATOM     82  O5  Z9L D   5       1.033  42.229 -25.8580  0.00  0.00     0.000 O
ATOM     83   C  Z9L D   5      -0.558  41.154 -23.9410  0.00  0.00     0.000 C
ATOM     84   C  Z9L D   5      -0.558  41.154 -23.9410  0.00  0.00     0.000 C
BRANCH 78 85
ATOM     85   O  Z9L D   5       3.059  39.359 -24.3110  0.00  0.00     0.000 O
ATOM     86   O  Z9L D   5       3.393  37.586 -24.9850  0.00  0.00     0.000 OA
ATOM     87   S  Z9L D   5       3.473  38.789 -25.7560  0.00  0.00     0.000 S
ATOM     88   O  Z9L D   5       4.874  38.945 -26.0630  0.00  0.00     0.000 OA
ATOM     89   O  Z9L D   5       2.431  38.687 -26.7190  0.00  0.00     0.000 OA
ENDBRANCH 78 85
BRANCH 79 90
ATOM     90   O  Z9L D   5       5.144  41.847 -24.6220  0.00  0.00     0.000 O
ATOM     91   S  Z9L D   5       5.301  41.696 -23.0450  0.00  0.00     0.000 S
ATOM     92   O  Z9L D   5       4.736  40.590 -22.3170  0.00  0.00     0.000 OA
ATOM     93   O  Z9L D   5       5.400  43.004 -22.4470  0.00  0.00     0.000 O
ATOM     94   O  Z9L D   5       6.618  41.313 -23.4400  0.00  0.00     0.000 OA
ENDBRANCH 79 90
BRANCH 81 95
ATOM     95   C  Z9L D   5       1.347  44.864 -26.2130  0.00  0.00     0.000 C
ATOM     96   S  Z9L D   5       1.072  45.653 -28.0210  0.00  0.00     0.000 S
ATOM     97   O  Z9L D   5       1.951  44.492 -27.4230  0.00  0.00     0.000 O
ATOM     98   O  Z9L D   5       1.663  46.890 -27.5790  0.00  0.00     0.000 OA
ATOM     99   O  Z9L D   5      -0.337  45.448 -27.9800  0.00  0.00     0.000 OA
ATOM    100   O  Z9L D   5       1.737  45.237 -29.2310  0.00  0.00     0.000 O
ENDBRANCH 81 95
ENDBRANCH 76 80
ENDBRANCH 60 76
ENDBRANCH 59 63
ENDBRANCH 37 59
ENDBRANCH 36 40
ENDBRANCH 23 36
ENDBRANCH 22 26
ENDBRANCH 1 22
TORSDOF 19
ENDMDL
MODEL 48
REMARK VINA RESULT:      -7.0      9.858     17.966
ROOT
ATOM      1  C1  Z9H D   1      11.704   3.991 -51.6090  0.00  0.00     0.000 C
ATOM      2  C2  Z9H D   1      12.983   3.579 -50.8410  0.00  0.00     0.000 C
ATOM      3  C3  Z9H D   1      13.792   4.898 -51.0330  0.00  0.00     0.000 C
ATOM      4  C4  Z9H D   1      13.879   5.431 -52.5230  0.00  0.00     0.000 C
ATOM      5  C5  Z9H D   1      12.622   5.545 -53.4750  0.00  0.00     0.000 C
ATOM      6  O5  Z9H D   1      11.789   4.466 -52.9810  0.00  0.00     0.000 O
ATOM      7   O  Z9H D   1      15.099   4.802 -50.4630  0.00  0.00     0.000 O
ATOM      8   C  Z9H D   1      15.244   5.380 -49.1550  0.00  0.00     0.000 C
ATOM      9   O  Z9H D   1      14.463   6.735 -52.4360  0.00  0.00     0.000 O
ATOM     10   C  Z9H D   1      15.864   6.804 -52.7190  0.00  0.00     0.000 C
ENDROOT
BRANCH 2 11
ATOM     11   O  Z9H D   1      12.546   3.608 -49.5080  0.00  0.00     0.000 O
ATOM     12   O  Z9H D   1      12.441   2.090 -48.3930  0.00  0.00     0.000 OA
ATOM     13   S  Z9H D   1      12.927   2.082 -49.7320  0.00  0.00     0.000 S
ATOM     14   O  Z9H D   1      14.356   1.984 -49.8290  0.00  0.00     0.000 OA
ATOM     15   O  Z9H D   1      11.987   1.420 -50.6060  0.00  0.00     0.000 O
ENDBRANCH 2 11
BRANCH 5 16
ATOM     16   C  Z9H D   1      12.978   5.696 -55.1030  0.00  0.00     0.000 C
ATOM     17   S  Z9H D   1      14.468   5.701 -56.4520  0.00  0.00     0.000 S
ATOM     18   O  Z9H D   1      14.098   4.845 -55.1340  0.00  0.00     0.000 O
ATOM     19   O  Z9H D   1      14.816   7.070 -56.2030  0.00  0.00     0.000 O
ATOM     20   O  Z9H D   1      13.660   5.289 -57.5470  0.00  0.00     0.000 OA
ATOM     21   O  Z9H D   1      15.612   4.839 -56.4050  0.00  0.00     0.000 OA
ENDBRANCH 5 16
BRANCH 1 22
ATOM     22  O4  GU1 D   2      10.939   5.089 -50.9920  0.00  0.00     0.000 O
BRANCH 22 26
ATOM     23  C1  GU1 D   2       7.092   6.382 -50.2860  0.00  0.00     0.000 C
ATOM     24  C2  GU1 D   2       7.222   4.898 -50.5950  0.00  0.00     0.000 C
ATOM     25  C3  GU1 D   2       8.658   4.484 -50.4520  0.00  0.00     0.000 C
ATOM     26  C4  GU1 D   2       9.567   5.376 -51.2850  0.00  0.00     0.000 C
ATOM     27  C5  GU1 D   2       9.285   6.849 -50.9730  0.00  0.00     0.000 C
ATOM     28  O5  GU1 D   2       7.905   7.145 -51.1710  0.00  0.00     0.000 O
ATOM     29   O  GU1 D   2       6.439   4.101 -49.7150  0.00  0.00     0.000 O
ATOM     30   C  GU1 D   2       5.173   3.734 -50.2440  0.00  0.00     0.000 C
ATOM     31   C  GU1 D   2       8.875   2.154 -49.8890  0.00  0.00     0.000 C
ATOM     32   O  GU1 D   2       8.788   3.137 -50.9180  0.00  0.00     0.000 O
BRANCH 27 33
ATOM     33   C  GU1 D   2      10.086   7.761 -51.8710  0.00  0.00     0.000 C
ATOM     34   O  GU1 D   2       9.978   7.630 -53.0730  0.00  0.00     0.000 OA
ATOM     35   O  GU1 D   2      10.822   8.611 -51.3950  0.00  0.00     0.000 O
ENDBRANCH 27 33
BRANCH 23 36
ATOM     36  O4  GU6 D   3       5.866   7.077 -50.5880  0.00  0.00     0.000 O
BRANCH 36 40
ATOM     37  C1  GU6 D   3       1.999   8.147 -49.8170  0.00  0.00     0.000 C
ATOM     38  C2  GU6 D   3       2.727   7.551 -48.6180  0.00  0.00     0.000 C
ATOM     39  C3  GU6 D   3       4.198   7.446 -48.9220  0.00  0.00     0.000 C
ATOM     40  C4  GU6 D   3       4.629   7.697 -50.3010  0.00  0.00     0.000 C
ATOM     41  C5  GU6 D   3       3.575   7.104 -51.2940  0.00  0.00     0.000 C
ATOM     42  O5  GU6 D   3       2.202   7.299 -50.9370  0.00  0.00     0.000 O
BRANCH 38 43
ATOM     43   O  GU6 D   3       2.526   8.348 -47.4670  0.00  0.00     0.000 O
ATOM     44   S  GU6 D   3       1.181   8.140 -46.7840  0.00  0.00     0.000 S
ATOM     45   O  GU6 D   3       0.165   8.930 -47.4990  0.00  0.00     0.000 OA
ATOM     46   O  GU6 D   3       0.832   6.710 -46.8580  0.00  0.00     0.000 O
ATOM     47   O  GU6 D   3       1.293   8.556 -45.3890  0.00  0.00     0.000 OA
ENDBRANCH 38 43
BRANCH 39 48
ATOM     48   O  GU6 D   3       5.150   7.343 -47.8790  0.00  0.00     0.000 O
ATOM     49   S  GU6 D   3       5.210   6.373 -46.7000  0.00  0.00     0.000 S
ATOM     50   O  GU6 D   3       5.175   4.987 -47.1830  0.00  0.00     0.000 OA
ATOM     51   O  GU6 D   3       6.504   6.686 -46.0780  0.00  0.00     0.000 OA
ATOM     52   O  GU6 D   3       4.057   6.628 -45.8090  0.00  0.00     0.000 O
ENDBRANCH 39 48
BRANCH 41 53
ATOM     53   C  GU6 D   3       3.801   6.367 -52.5860  0.00  0.00     0.000 C
ATOM     54   O  GU6 D   3       2.691   5.510 -52.5140  0.00  0.00     0.000 O
ATOM     55   S  GU6 D   3       2.481   4.416 -53.5690  0.00  0.00     0.000 S
ATOM     56   O  GU6 D   3       3.592   3.449 -53.4090  0.00  0.00     0.000 O
ATOM     57   O  GU6 D   3       1.186   3.767 -53.3200  0.00  0.00     0.000 OA
ATOM     58   O  GU6 D   3       2.533   5.071 -54.8960  0.00  0.00     0.000 OA
ENDBRANCH 41 53
BRANCH 37 59
ATOM     59  O4  Z9K D   4       2.138   9.507 -50.2770  0.00  0.00     0.000 O
BRANCH 59 63
ATOM     60  C1  Z9K D   4      -1.026  11.826 -50.0200  0.00  0.00     0.000 C
ATOM     61  C2  Z9K D   4      -1.458  10.850 -51.1490  0.00  0.00     0.000 C
ATOM     62  C3  Z9K D   4      -0.259   9.806 -51.1220  0.00  0.00     0.000 C
ATOM     63  C4  Z9K D   4       1.222  10.341 -51.0460  0.00  0.00     0.000 C
ATOM     64  C5  Z9K D   4       1.409  11.720 -50.3970  0.00  0.00     0.000 C
ATOM     65  O5  Z9K D   4       0.347  11.757 -49.4080  0.00  0.00     0.000 O
ATOM     66   O  Z9K D   4      -0.268   8.900 -52.2400  0.00  0.00     0.000 O
ATOM     67   C  Z9K D   4      -1.086   7.756 -52.0600  0.00  0.00     0.000 C
BRANCH 61 68
ATOM     68   O  Z9K D   4      -2.589  10.162 -50.6880  0.00  0.00     0.000 O
ATOM     69   O  Z9K D   4      -2.688  10.511 -53.2210  0.00  0.00     0.000 OA
ATOM     70   S  Z9K D   4      -3.184  10.971 -51.9590  0.00  0.00     0.000 S
ATOM     71   O  Z9K D   4      -3.389  12.337 -51.5870  0.00  0.00     0.000 OA
ATOM     72   O  Z9K D   4      -4.304  10.192 -51.5370  0.00  0.00     0.000 OA
ENDBRANCH 61 68
BRANCH 64 73
ATOM     73   C  Z9K D   4       2.867  11.913 -49.9270  0.00  0.00     0.000 C
ATOM     74   O  Z9K D   4       3.798  12.137 -50.7540  0.00  0.00     0.000 O
ATOM     75   O  Z9K D   4       3.183  11.862 -48.7130  0.00  0.00     0.000 OA
ENDBRANCH 64 73
BRANCH 60 76
ATOM     76  O4  Z9L D   5      -1.084  13.262 -50.0090  0.00  0.00     0.000 O
BRANCH 76 80
ATOM     77  C1  Z9L D   5      -1.581  16.427 -47.6200  0.00  0.00     0.000 C
ATOM     78  C2  Z9L D   5      -0.132  16.570 -48.2930  0.00  0.00     0.000 C
ATOM     79  C3  Z9L D   5      -0.107  15.518 -49.6170  0.00  0.00     0.000 C
ATOM     80  C4  Z9L D   5      -0.851  14.192 -48.9830  0.00  0.00     0.000 C
ATOM     81  C5  Z9L D   5      -2.195  14.059 -48.1020  0.00  0.00     0.000 C
ATOM     82  O5  Z9L D   5      -2.172  15.144 -47.1620  0.00  0.00     0.000 O
ATOM     83   C  Z9L D   5      -3.893  17.080 -47.9700  0.00  0.00     0.000 C
ATOM     84   C  Z9L D   5      -3.893  17.080 -47.9700  0.00  0.00     0.000 C
BRANCH 78 85
ATOM     85   O  Z9L D   5       0.006  17.878 -48.7460  0.00  0.00     0.000 O
ATOM     86   O  Z9L D   5       1.229  19.178 -48.0200  0.00  0.00     0.000 OA
ATOM     87   S  Z9L D   5       1.171  17.798 -47.6420  0.00  0.00     0.000 S
ATOM     88   O  Z9L D   5       2.399  17.224 -48.1330  0.00  0.00     0.000 OA
ATOM     89   O  Z9L D   5       0.755  17.800 -46.2820  0.00  0.00     0.000 OA
ENDBRANCH 78 85
BRANCH 79 90
ATOM     90   O  Z9L D   5       1.180  15.051 -49.8690  0.00  0.00     0.000 O
ATOM     91   S  Z9L D   5       0.839  15.674 -51.2950  0.00  0.00     0.000 S
ATOM     92   O  Z9L D   5       0.441  17.047 -51.4600  0.00  0.00     0.000 OA
ATOM     93   O  Z9L D   5       0.315  14.641 -52.1530  0.00  0.00     0.000 O
ATOM     94   O  Z9L D   5       2.261  15.630 -51.4020  0.00  0.00     0.000 OA
ENDBRANCH 79 90
BRANCH 81 95
ATOM     95   C  Z9L D   5      -2.601  12.529 -47.5470  0.00  0.00     0.000 C
ATOM     96   S  Z9L D   5      -3.430  11.510 -46.0500  0.00  0.00     0.000 S
ATOM     97   O  Z9L D   5      -2.529  12.795 -46.1710  0.00  0.00     0.000 O
ATOM     98   O  Z9L D   5      -2.584  10.381 -46.3400  0.00  0.00     0.000 OA
ATOM     99   O  Z9L D   5      -4.738  11.616 -46.6010  0.00  0.00     0.000 OA
ATOM    100   O  Z9L D   5      -3.306  11.823 -44.6470  0.00  0.00     0.000 O
ENDBRANCH 81 95
ENDBRANCH 76 80
ENDBRANCH 60 76
ENDBRANCH 59 63
ENDBRANCH 37 59
ENDBRANCH 36 40
ENDBRANCH 23 36
ENDBRANCH 22 26
ENDBRANCH 1 22
TORSDOF 19
ENDMDL
MODEL 49
REMARK VINA RESULT:      -7.0     16.887     22.756
ROOT
ATOM      1  C1  Z9H D   1      11.324  35.447 -58.1080  0.00  0.00     0.000 C
ATOM      2  C2  Z9H D   1       9.876  35.161 -57.6420  0.00  0.00     0.000 C
ATOM      3  C3  Z9H D   1       9.729  33.728 -58.2410  0.00  0.00     0.000 C
ATOM      4  C4  Z9H D   1      10.131  33.586 -59.7680  0.00  0.00     0.000 C
ATOM      5  C5  Z9H D   1      11.468  34.177 -60.3680  0.00  0.00     0.000 C
ATOM      6  O5  Z9H D   1      11.682  35.328 -59.5130  0.00  0.00     0.000 O
ATOM      7   O  Z9H D   1       8.422  33.197 -58.0200  0.00  0.00     0.000 O
ATOM      8   C  Z9H D   1       8.302  32.301 -56.9020  0.00  0.00     0.000 C
ATOM      9   O  Z9H D   1      10.131  32.181 -60.0400  0.00  0.00     0.000 O
ATOM     10   C  Z9H D   1       8.956  31.677 -60.6830  0.00  0.00     0.000 C
ENDROOT
BRANCH 2 11
ATOM     11   O  Z9H D   1      10.047  34.964 -56.2630  0.00  0.00     0.000 O
ATOM     12   O  Z9H D   1       9.338  36.101 -54.9350  0.00  0.00     0.000 OA
ATOM     13   S  Z9H D   1       9.133  36.262 -56.3360  0.00  0.00     0.000 S
ATOM     14   O  Z9H D   1       7.826  35.868 -56.7790  0.00  0.00     0.000 OA
ATOM     15   O  Z9H D   1       9.867  37.406 -56.8250  0.00  0.00     0.000 O
ENDBRANCH 2 11
BRANCH 5 16
ATOM     16   C  Z9H D   1      11.496  34.315 -62.0360  0.00  0.00     0.000 C
ATOM     17   S  Z9H D   1      12.374  33.638 -63.7120  0.00  0.00     0.000 S
ATOM     18   O  Z9H D   1      11.850  32.985 -62.3320  0.00  0.00     0.000 O
ATOM     19   O  Z9H D   1      13.514  34.499 -63.5770  0.00  0.00     0.000 O
ATOM     20   O  Z9H D   1      11.276  33.927 -64.5670  0.00  0.00     0.000 OA
ATOM     21   O  Z9H D   1      12.756  32.274 -63.9380  0.00  0.00     0.000 OA
ENDBRANCH 5 16
BRANCH 1 22
ATOM     22  O4  GU1 D   2      12.353  34.589 -57.4960  0.00  0.00     0.000 O
BRANCH 22 26
ATOM     23  C1  GU1 D   2      16.261  34.632 -56.1950  0.00  0.00     0.000 C
ATOM     24  C2  GU1 D   2      15.626  36.004 -56.3570  0.00  0.00     0.000 C
ATOM     25  C3  GU1 D   2      14.135  35.854 -56.4540  0.00  0.00     0.000 C
ATOM     26  C4  GU1 D   2      13.758  34.860 -57.5430  0.00  0.00     0.000 C
ATOM     27  C5  GU1 D   2      14.529  33.551 -57.3480  0.00  0.00     0.000 C
ATOM     28  O5  GU1 D   2      15.932  33.800 -57.3020  0.00  0.00     0.000 O
ATOM     29   O  GU1 D   2      15.916  36.858 -55.2560  0.00  0.00     0.000 O
ATOM     30   C  GU1 D   2      17.011  37.734 -55.4820  0.00  0.00     0.000 C
ATOM     31   C  GU1 D   2      12.976  37.819 -55.6880  0.00  0.00     0.000 C
ATOM     32   O  GU1 D   2      13.573  37.128 -56.7830  0.00  0.00     0.000 O
BRANCH 27 33
ATOM     33   C  GU1 D   2      14.267  32.588 -58.4820  0.00  0.00     0.000 C
ATOM     34   O  GU1 D   2      13.692  31.548 -58.2350  0.00  0.00     0.000 OA
ATOM     35   O  GU1 D   2      14.624  32.856 -59.6180  0.00  0.00     0.000 O
ENDBRANCH 27 33
BRANCH 23 36
ATOM     36  O4  GU6 D   3      17.688  34.478 -56.3250  0.00  0.00     0.000 O
BRANCH 36 40
ATOM     37  C1  GU6 D   3      21.471  33.503 -57.5220  0.00  0.00     0.000 C
ATOM     38  C2  GU6 D   3      21.257  33.414 -56.0160  0.00  0.00     0.000 C
ATOM     39  C3  GU6 D   3      19.786  33.522 -55.7090  0.00  0.00     0.000 C
ATOM     40  C4  GU6 D   3      18.887  33.903 -56.8040  0.00  0.00     0.000 C
ATOM     41  C5  GU6 D   3      19.585  34.974 -57.7050  0.00  0.00     0.000 C
ATOM     42  O5  GU6 D   3      20.974  34.752 -57.9770  0.00  0.00     0.000 O
BRANCH 38 43
ATOM     43   O  GU6 D   3      21.767  32.195 -55.5130  0.00  0.00     0.000 O
ATOM     44   S  GU6 D   3      23.149  32.304 -54.8810  0.00  0.00     0.000 S
ATOM     45   O  GU6 D   3      24.158  32.274 -55.9550  0.00  0.00     0.000 OA
ATOM     46   O  GU6 D   3      23.238  33.587 -54.1610  0.00  0.00     0.000 O
ATOM     47   O  GU6 D   3      23.330  31.194 -53.9510  0.00  0.00     0.000 OA
ENDBRANCH 38 43
BRANCH 39 48
ATOM     48   O  GU6 D   3      19.264  33.052 -54.4810  0.00  0.00     0.000 O
ATOM     49   S  GU6 D   3      19.159  33.753 -53.1270  0.00  0.00     0.000 S
ATOM     50   O  GU6 D   3      18.434  35.021 -53.2690  0.00  0.00     0.000 OA
ATOM     51   O  GU6 D   3      18.398  32.794 -52.3140  0.00  0.00     0.000 OA
ATOM     52   O  GU6 D   3      20.523  34.004 -52.6100  0.00  0.00     0.000 O
ENDBRANCH 39 48
BRANCH 41 53
ATOM     53   C  GU6 D   3      18.997  36.203 -58.3440  0.00  0.00     0.000 C
ATOM     54   O  GU6 D   3      18.078  35.559 -59.1880  0.00  0.00     0.000 O
ATOM     55   S  GU6 D   3      17.247  36.366 -60.1940  0.00  0.00     0.000 S
ATOM     56   O  GU6 D   3      18.197  36.920 -61.1860  0.00  0.00     0.000 O
ATOM     57   O  GU6 D   3      16.287  35.460 -60.8420  0.00  0.00     0.000 OA
ATOM     58   O  GU6 D   3      16.574  37.447 -59.4400  0.00  0.00     0.000 OA
ENDBRANCH 41 53
BRANCH 37 59
ATOM     59  O4  Z9K D   4      21.060  32.504 -58.4790  0.00  0.00     0.000 O
BRANCH 59 63
ATOM     60  C1  Z9K D   4      20.507  29.218 -60.5640  0.00  0.00     0.000 C
ATOM     61  C2  Z9K D   4      19.859  28.827 -59.2070  0.00  0.00     0.000 C
ATOM     62  C3  Z9K D   4      19.919  30.214 -58.4320  0.00  0.00     0.000 C
ATOM     63  C4  Z9K D   4      21.249  31.059 -58.4730  0.00  0.00     0.000 C
ATOM     64  C5  Z9K D   4      22.150  30.840 -59.6980  0.00  0.00     0.000 C
ATOM     65  O5  Z9K D   4      21.196  30.542 -60.7510  0.00  0.00     0.000 O
ATOM     66   O  Z9K D   4      19.596  30.100 -57.0350  0.00  0.00     0.000 O
ATOM     67   C  Z9K D   4      18.209  30.156 -56.7480  0.00  0.00     0.000 C
BRANCH 61 68
ATOM     68   O  Z9K D   4      18.503  28.574 -59.4570  0.00  0.00     0.000 O
ATOM     69   O  Z9K D   4      19.385  27.100 -57.5600  0.00  0.00     0.000 OA
ATOM     70   S  Z9K D   4      19.024  27.128 -58.9460  0.00  0.00     0.000 S
ATOM     71   O  Z9K D   4      19.736  26.487 -60.0080  0.00  0.00     0.000 OA
ATOM     72   O  Z9K D   4      17.623  26.909 -59.1120  0.00  0.00     0.000 OA
ENDBRANCH 61 68
BRANCH 64 73
ATOM     73   C  Z9K D   4      23.117  32.028 -59.8870  0.00  0.00     0.000 C
ATOM     74   O  Z9K D   4      22.881  32.937 -60.7350  0.00  0.00     0.000 O
ATOM     75   O  Z9K D   4      24.166  32.142 -59.2060  0.00  0.00     0.000 OA
ENDBRANCH 64 73
BRANCH 60 76
ATOM     76  O4  Z9L D   5      21.465  28.481 -61.3430  0.00  0.00     0.000 O
BRANCH 76 80
ATOM     77  C1  Z9L D   5      22.475  27.298 -65.0240  0.00  0.00     0.000 C
ATOM     78  C2  Z9L D   5      23.595  28.339 -64.5420  0.00  0.00     0.000 C
ATOM     79  C3  Z9L D   5      23.435  28.481 -62.8640  0.00  0.00     0.000 C
ATOM     80  C4  Z9L D   5      21.797  28.544 -62.7060  0.00  0.00     0.000 C
ATOM     81  C5  Z9L D   5      20.638  27.641 -63.3720  0.00  0.00     0.000 C
ATOM     82  O5  Z9L D   5      21.023  27.434 -64.7390  0.00  0.00     0.000 O
ATOM     83   C  Z9L D   5      21.996  24.918 -65.0370  0.00  0.00     0.000 C
ATOM     84   C  Z9L D   5      21.996  24.918 -65.0370  0.00  0.00     0.000 C
BRANCH 78 85
ATOM     85   O  Z9L D   5      24.843  27.799 -64.8380  0.00  0.00     0.000 O
ATOM     86   O  Z9L D   5      26.046  28.466 -66.1860  0.00  0.00     0.000 OA
ATOM     87   S  Z9L D   5      24.820  29.092 -65.7930  0.00  0.00     0.000 S
ATOM     88   O  Z9L D   5      25.216  30.310 -65.1320  0.00  0.00     0.000 OA
ATOM     89   O  Z9L D   5      23.978  29.018 -66.9380  0.00  0.00     0.000 OA
ENDBRANCH 78 85
BRANCH 79 90
ATOM     90   O  Z9L D   5      23.830  29.741 -62.4220  0.00  0.00     0.000 O
ATOM     91   S  Z9L D   5      24.860  28.838 -61.6090  0.00  0.00     0.000 S
ATOM     92   O  Z9L D   5      25.745  27.905 -62.2570  0.00  0.00     0.000 OA
ATOM     93   O  Z9L D   5      24.324  28.565 -60.2990  0.00  0.00     0.000 O
ATOM     94   O  Z9L D   5      25.545  30.087 -61.5320  0.00  0.00     0.000 OA
ENDBRANCH 79 90
BRANCH 81 95
ATOM     95   C  Z9L D   5      19.049  28.064 -63.0450  0.00  0.00     0.000 C
ATOM     96   S  Z9L D   5      17.141  27.632 -63.4170  0.00  0.00     0.000 S
ATOM     97   O  Z9L D   5      18.478  27.626 -64.2490  0.00  0.00     0.000 O
ATOM     98   O  Z9L D   5      16.781  29.013 -63.2190  0.00  0.00     0.000 OA
ATOM     99   O  Z9L D   5      17.069  26.688 -62.3540  0.00  0.00     0.000 OA
ATOM    100   O  Z9L D   5      16.608  27.200 -64.6860  0.00  0.00     0.000 O
ENDBRANCH 81 95
ENDBRANCH 76 80
ENDBRANCH 60 76
ENDBRANCH 59 63
ENDBRANCH 37 59
ENDBRANCH 36 40
ENDBRANCH 23 36
ENDBRANCH 22 26
ENDBRANCH 1 22
TORSDOF 19
ENDMDL
MODEL 50
REMARK VINA RESULT:      -7.0      8.537     16.616
ROOT
ATOM      1  C1  Z9H D   1       0.599  14.703 -50.0570  0.00  0.00     0.000 C
ATOM      2  C2  Z9H D   1      -0.636  15.334 -50.7440  0.00  0.00     0.000 C
ATOM      3  C3  Z9H D   1       0.093  15.980 -51.9620  0.00  0.00     0.000 C
ATOM      4  C4  Z9H D   1       1.359  16.863 -51.6060  0.00  0.00     0.000 C
ATOM      5  C5  Z9H D   1       2.497  16.384 -50.6180  0.00  0.00     0.000 C
ATOM      6  O5  Z9H D   1       1.753  15.522 -49.7200  0.00  0.00     0.000 O
ATOM      7   O  Z9H D   1      -0.812  16.718 -52.7850  0.00  0.00     0.000 O
ATOM      8   C  Z9H D   1      -1.286  16.027 -53.9530  0.00  0.00     0.000 C
ATOM      9   O  Z9H D   1       1.986  17.167 -52.8560  0.00  0.00     0.000 O
ATOM     10   C  Z9H D   1       1.694  18.459 -53.3950  0.00  0.00     0.000 C
ENDROOT
BRANCH 2 11
ATOM     11   O  Z9H D   1      -1.289  14.206 -51.2640  0.00  0.00     0.000 O
ATOM     12   O  Z9H D   1      -2.992  13.616 -50.7080  0.00  0.00     0.000 OA
ATOM     13   S  Z9H D   1      -2.339  14.786 -50.2230  0.00  0.00     0.000 S
ATOM     14   O  Z9H D   1      -2.871  16.009 -50.7520  0.00  0.00     0.000 OA
ATOM     15   O  Z9H D   1      -1.902  14.590 -48.8590  0.00  0.00     0.000 O
ENDBRANCH 2 11
BRANCH 5 16
ATOM     16   C  Z9H D   1       3.488  17.600 -50.0350  0.00  0.00     0.000 C
ATOM     17   S  Z9H D   1       3.521  19.311 -48.9800  0.00  0.00     0.000 S
ATOM     18   O  Z9H D   1       2.770  17.887 -48.8600  0.00  0.00     0.000 O
ATOM     19   O  Z9H D   1       3.110  20.117 -50.0930  0.00  0.00     0.000 O
ATOM     20   O  Z9H D   1       4.875  19.187 -48.5660  0.00  0.00     0.000 OA
ATOM     21   O  Z9H D   1       2.728  19.563 -47.8130  0.00  0.00     0.000 OA
ENDBRANCH 5 16
BRANCH 1 22
ATOM     22  O4  GU1 D   2       1.250  13.626 -50.8230  0.00  0.00     0.000 O
BRANCH 22 26
ATOM     23  C1  GU1 D   2       3.040   9.926 -50.5500  0.00  0.00     0.000 C
ATOM     24  C2  GU1 D   2       1.931  10.176 -49.5400  0.00  0.00     0.000 C
ATOM     25  C3  GU1 D   2       1.120  11.362 -49.9750  0.00  0.00     0.000 C
ATOM     26  C4  GU1 D   2       2.012  12.567 -50.2320  0.00  0.00     0.000 C
ATOM     27  C5  GU1 D   2       3.154  12.182 -51.1780  0.00  0.00     0.000 C
ATOM     28  O5  GU1 D   2       3.879  11.070 -50.6580  0.00  0.00     0.000 O
ATOM     29   O  GU1 D   2       1.058   9.059 -49.4210  0.00  0.00     0.000 O
ATOM     30   C  GU1 D   2       1.367   8.202 -48.3310  0.00  0.00     0.000 C
ATOM     31   C  GU1 D   2      -1.141  11.261 -49.1560  0.00  0.00     0.000 C
ATOM     32   O  GU1 D   2       0.200  11.689 -48.9290  0.00  0.00     0.000 O
BRANCH 27 33
ATOM     33   C  GU1 D   2       4.125  13.325 -51.3560  0.00  0.00     0.000 C
ATOM     34   O  GU1 D   2       4.855  13.612 -50.4300  0.00  0.00     0.000 OA
ATOM     35   O  GU1 D   2       4.173  13.939 -52.4100  0.00  0.00     0.000 O
ENDBRANCH 27 33
BRANCH 23 36
ATOM     36  O4  GU6 D   3       4.103   9.003 -50.2400  0.00  0.00     0.000 O
BRANCH 36 40
ATOM     37  C1  GU6 D   3       6.176   5.499 -50.5830  0.00  0.00     0.000 C
ATOM     38  C2  GU6 D   3       5.061   5.661 -51.6090  0.00  0.00     0.000 C
ATOM     39  C3  GU6 D   3       4.547   7.077 -51.5770  0.00  0.00     0.000 C
ATOM     40  C4  GU6 D   3       5.005   7.943 -50.4840  0.00  0.00     0.000 C
ATOM     41  C5  GU6 D   3       5.106   7.109 -49.1640  0.00  0.00     0.000 C
ATOM     42  O5  GU6 D   3       5.653   5.793 -49.2970  0.00  0.00     0.000 O
BRANCH 38 43
ATOM     43   O  GU6 D   3       5.530   5.347 -52.9070  0.00  0.00     0.000 O
ATOM     44   S  GU6 D   3       5.497   3.863 -53.2460  0.00  0.00     0.000 S
ATOM     45   O  GU6 D   3       6.692   3.224 -52.6680  0.00  0.00     0.000 OA
ATOM     46   O  GU6 D   3       4.287   3.270 -52.6480  0.00  0.00     0.000 O
ATOM     47   O  GU6 D   3       5.464   3.712 -54.6970  0.00  0.00     0.000 OA
ENDBRANCH 38 43
BRANCH 39 48
ATOM     48   O  GU6 D   3       3.842   7.619 -52.6770  0.00  0.00     0.000 O
ATOM     49   S  GU6 D   3       2.465   7.257 -53.2340  0.00  0.00     0.000 S
ATOM     50   O  GU6 D   3       1.451   7.355 -52.1780  0.00  0.00     0.000 OA
ATOM     51   O  GU6 D   3       2.250   8.273 -54.2730  0.00  0.00     0.000 OA
ATOM     52   O  GU6 D   3       2.511   5.877 -53.7660  0.00  0.00     0.000 O
ENDBRANCH 39 48
BRANCH 41 53
ATOM     53   C  GU6 D   3       4.722   7.504 -47.7630  0.00  0.00     0.000 C
ATOM     54   O  GU6 D   3       5.622   6.672 -47.0780  0.00  0.00     0.000 O
ATOM     55   S  GU6 D   3       5.587   6.583 -45.5460  0.00  0.00     0.000 S
ATOM     56   O  GU6 D   3       4.295   5.955 -45.1840  0.00  0.00     0.000 O
ATOM     57   O  GU6 D   3       6.713   5.750 -45.0990  0.00  0.00     0.000 OA
ATOM     58   O  GU6 D   3       5.672   7.965 -45.0240  0.00  0.00     0.000 OA
ENDBRANCH 41 53
BRANCH 37 59
ATOM     59  O4  Z9K D   4       7.478   6.116 -50.6690  0.00  0.00     0.000 O
BRANCH 59 63
ATOM     60  C1  Z9K D   4      10.408   3.580 -51.3210  0.00  0.00     0.000 C
ATOM     61  C2  Z9K D   4      10.091   3.295 -49.8270  0.00  0.00     0.000 C
ATOM     62  C3  Z9K D   4       8.790   4.186 -49.6200  0.00  0.00     0.000 C
ATOM     63  C4  Z9K D   4       8.772   5.660 -50.1790  0.00  0.00     0.000 C
ATOM     64  C5  Z9K D   4       9.694   5.939 -51.3760  0.00  0.00     0.000 C
ATOM     65  O5  Z9K D   4       9.701   4.670 -52.0800  0.00  0.00     0.000 O
ATOM     66   O  Z9K D   4       8.397   4.309 -48.2410  0.00  0.00     0.000 O
ATOM     67   C  Z9K D   4       7.580   3.250 -47.7680  0.00  0.00     0.000 C
BRANCH 61 68
ATOM     68   O  Z9K D   4       9.671   1.961 -49.7430  0.00  0.00     0.000 O
ATOM     69   O  Z9K D   4      10.938   2.668 -47.6350  0.00  0.00     0.000 OA
ATOM     70   S  Z9K D   4      11.032   1.940 -48.8650  0.00  0.00     0.000 S
ATOM     71   O  Z9K D   4      12.157   1.933 -49.7490  0.00  0.00     0.000 OA
ATOM     72   O  Z9K D   4      10.544   0.608 -48.7070  0.00  0.00     0.000 OA
ENDBRANCH 61 68
BRANCH 64 73
ATOM     73   C  Z9K D   4       9.241   7.205 -52.1330  0.00  0.00     0.000 C
ATOM     74   O  Z9K D   4       9.104   8.313 -51.5370  0.00  0.00     0.000 O
ATOM     75   O  Z9K D   4       9.000   7.188 -53.3650  0.00  0.00     0.000 OA
ENDBRANCH 64 73
BRANCH 60 76
ATOM     76  O4  Z9L D   5      11.686   3.827 -51.9320  0.00  0.00     0.000 O
BRANCH 76 80
ATOM     77  C1  Z9L D   5      13.881   3.262 -55.2240  0.00  0.00     0.000 C
ATOM     78  C2  Z9L D   5      13.626   4.840 -55.0950  0.00  0.00     0.000 C
ATOM     79  C3  Z9L D   5      13.116   5.121 -53.5060  0.00  0.00     0.000 C
ATOM     80  C4  Z9L D   5      12.079   3.861 -53.2800  0.00  0.00     0.000 C
ATOM     81  C5  Z9L D   5      12.235   2.292 -53.6210  0.00  0.00     0.000 C
ATOM     82  O5  Z9L D   5      12.873   2.220 -54.9050  0.00  0.00     0.000 O
ATOM     83   C  Z9L D   5      15.484   1.555 -54.5850  0.00  0.00     0.000 C
ATOM     84   C  Z9L D   5      15.484   1.555 -54.5850  0.00  0.00     0.000 C
BRANCH 78 85
ATOM     85   O  Z9L D   5      14.837   5.492 -55.3070  0.00  0.00     0.000 O
ATOM     86   O  Z9L D   5      15.263   6.559 -56.8530  0.00  0.00     0.000 OA
ATOM     87   S  Z9L D   5      13.980   5.991 -56.5710  0.00  0.00     0.000 S
ATOM     88   O  Z9L D   5      13.127   7.119 -56.2870  0.00  0.00     0.000 OA
ATOM     89   O  Z9L D   5      13.758   5.037 -57.6030  0.00  0.00     0.000 OA
ENDBRANCH 78 85
BRANCH 79 90
ATOM     90   O  Z9L D   5      12.271   6.225 -53.4330  0.00  0.00     0.000 O
ATOM     91   S  Z9L D   5      13.403   6.687 -52.4130  0.00  0.00     0.000 S
ATOM     92   O  Z9L D   5      14.791   6.766 -52.7860  0.00  0.00     0.000 OA
ATOM     93   O  Z9L D   5      13.016   6.323 -51.0730  0.00  0.00     0.000 O
ATOM     94   O  Z9L D   5      12.817   7.958 -52.6900  0.00  0.00     0.000 OA
ENDBRANCH 79 90
BRANCH 81 95
ATOM     95   C  Z9L D   5      10.910   1.306 -53.3290  0.00  0.00     0.000 C
ATOM     96   S  Z9L D   5       9.252   0.535 -54.1180  0.00  0.00     0.000 S
ATOM     97   O  Z9L D   5      10.019   1.906 -54.2300  0.00  0.00     0.000 O
ATOM     98   O  Z9L D   5       8.636   0.509 -52.8160  0.00  0.00     0.000 OA
ATOM     99   O  Z9L D   5       9.937  -0.601 -54.6360  0.00  0.00     0.000 OA
ATOM    100   O  Z9L D   5       8.362   1.209 -55.0300  0.00  0.00     0.000 O
ENDBRANCH 81 95
ENDBRANCH 76 80
ENDBRANCH 60 76
ENDBRANCH 59 63
ENDBRANCH 37 59
ENDBRANCH 36 40
ENDBRANCH 23 36
ENDBRANCH 22 26
ENDBRANCH 1 22
TORSDOF 19
ENDMDL
MODEL 51
REMARK VINA RESULT:      -7.0     36.665     44.821
ROOT
ATOM      1  C1  Z9H D   1      27.864  11.873 -15.9410  0.00  0.00     0.000 C
ATOM      2  C2  Z9H D   1      28.707  12.590 -14.8600  0.00  0.00     0.000 C
ATOM      3  C3  Z9H D   1      29.370  11.329 -14.2240  0.00  0.00     0.000 C
ATOM      4  C4  Z9H D   1      28.373  10.162 -13.8310  0.00  0.00     0.000 C
ATOM      5  C5  Z9H D   1      27.248   9.623 -14.8020  0.00  0.00     0.000 C
ATOM      6  O5  Z9H D   1      26.940  10.812 -15.5720  0.00  0.00     0.000 O
ATOM      7   O  Z9H D   1      30.195  11.674 -13.1100  0.00  0.00     0.000 O
ATOM      8   C  Z9H D   1      31.602  11.772 -13.3920  0.00  0.00     0.000 C
ATOM      9   O  Z9H D   1      29.199   9.047 -13.4810  0.00  0.00     0.000 O
ATOM     10   C  Z9H D   1      29.404   8.846 -12.0790  0.00  0.00     0.000 C
ENDROOT
BRANCH 2 11
ATOM     11   O  Z9H D   1      29.719  13.188 -15.6270  0.00  0.00     0.000 O
ATOM     12   O  Z9H D   1      29.946  15.051 -15.8130  0.00  0.00     0.000 OA
ATOM     13   S  Z9H D   1      28.954  14.432 -15.0010  0.00  0.00     0.000 S
ATOM     14   O  Z9H D   1      29.242  14.478 -13.5960  0.00  0.00     0.000 OA
ATOM     15   O  Z9H D   1      27.644  14.602 -15.5860  0.00  0.00     0.000 O
ENDBRANCH 2 11
BRANCH 5 16
ATOM     16   C  Z9H D   1      26.043   8.729 -14.0620  0.00  0.00     0.000 C
ATOM     17   S  Z9H D   1      25.093   8.398 -12.3220  0.00  0.00     0.000 S
ATOM     18   O  Z9H D   1      25.641   9.691 -13.1180  0.00  0.00     0.000 O
ATOM     19   O  Z9H D   1      26.114   7.521 -11.8230  0.00  0.00     0.000 O
ATOM     20   O  Z9H D   1      23.887   7.933 -12.9120  0.00  0.00     0.000 OA
ATOM     21   O  Z9H D   1      24.752   9.418 -11.3740  0.00  0.00     0.000 OA
ENDBRANCH 5 16
BRANCH 1 22
ATOM     22  O4  GU1 D   2      28.648  11.194 -16.9880  0.00  0.00     0.000 O
BRANCH 22 26
ATOM     23  C1  GU1 D   2      28.310  10.453 -21.0260  0.00  0.00     0.000 C
ATOM     24  C2  GU1 D   2      27.165  11.255 -20.4250  0.00  0.00     0.000 C
ATOM     25  C3  GU1 D   2      27.578  11.779 -19.0800  0.00  0.00     0.000 C
ATOM     26  C4  GU1 D   2      28.086  10.654 -18.1900  0.00  0.00     0.000 C
ATOM     27  C5  GU1 D   2      29.159   9.847 -18.9270  0.00  0.00     0.000 C
ATOM     28  O5  GU1 D   2      28.657   9.370 -20.1720  0.00  0.00     0.000 O
ATOM     29   O  GU1 D   2      26.804  12.362 -21.2420  0.00  0.00     0.000 O
ATOM     30   C  GU1 D   2      25.700  12.108 -22.0990  0.00  0.00     0.000 C
ATOM     31   C  GU1 D   2      26.406  13.799 -18.4980  0.00  0.00     0.000 C
ATOM     32   O  GU1 D   2      26.436  12.375 -18.4570  0.00  0.00     0.000 O
BRANCH 27 33
ATOM     33   C  GU1 D   2      29.597   8.651 -18.1150  0.00  0.00     0.000 C
ATOM     34   O  GU1 D   2      28.747   7.880 -17.7190  0.00  0.00     0.000 OA
ATOM     35   O  GU1 D   2      30.779   8.466 -17.8700  0.00  0.00     0.000 O
ENDBRANCH 27 33
BRANCH 23 36
ATOM     36  O4  GU6 D   3      28.085   9.643 -22.1960  0.00  0.00     0.000 O
BRANCH 36 40
ATOM     37  C1  GU6 D   3      27.327   8.899 -26.1420  0.00  0.00     0.000 C
ATOM     38  C2  GU6 D   3      27.999   7.742 -25.4120  0.00  0.00     0.000 C
ATOM     39  C3  GU6 D   3      27.986   8.005 -23.9290  0.00  0.00     0.000 C
ATOM     40  C4  GU6 D   3      27.571   9.337 -23.4770  0.00  0.00     0.000 C
ATOM     41  C5  GU6 D   3      28.120  10.419 -24.4650  0.00  0.00     0.000 C
ATOM     42  O5  GU6 D   3      28.043  10.090 -25.8560  0.00  0.00     0.000 O
BRANCH 38 43
ATOM     43   O  GU6 D   3      27.336   6.524 -25.6930  0.00  0.00     0.000 O
ATOM     44   S  GU6 D   3      27.972   5.704 -26.8080  0.00  0.00     0.000 S
ATOM     45   O  GU6 D   3      27.518   6.242 -28.1020  0.00  0.00     0.000 OA
ATOM     46   O  GU6 D   3      29.437   5.834 -26.7110  0.00  0.00     0.000 O
ATOM     47   O  GU6 D   3      27.582   4.307 -26.6450  0.00  0.00     0.000 OA
ENDBRANCH 38 43
BRANCH 39 48
ATOM     48   O  GU6 D   3      28.140   6.947 -23.0020  0.00  0.00     0.000 O
ATOM     49   S  GU6 D   3      29.408   6.251 -22.5110  0.00  0.00     0.000 S
ATOM     50   O  GU6 D   3      30.347   7.237 -21.9640  0.00  0.00     0.000 OA
ATOM     51   O  GU6 D   3      28.910   5.353 -21.4600  0.00  0.00     0.000 OA
ATOM     52   O  GU6 D   3      30.032   5.532 -23.6450  0.00  0.00     0.000 O
ENDBRANCH 39 48
BRANCH 41 53
ATOM     53   C  GU6 D   3      28.707  11.771 -24.1580  0.00  0.00     0.000 C
ATOM     54   O  GU6 D   3      28.432  12.382 -25.3920  0.00  0.00     0.000 O
ATOM     55   S  GU6 D   3      28.935  13.801 -25.6870  0.00  0.00     0.000 S
ATOM     56   O  GU6 D   3      30.414  13.729 -25.7340  0.00  0.00     0.000 O
ATOM     57   O  GU6 D   3      28.393  14.230 -26.9850  0.00  0.00     0.000 OA
ATOM     58   O  GU6 D   3      28.479  14.668 -24.5770  0.00  0.00     0.000 OA
ENDBRANCH 41 53
BRANCH 37 59
ATOM     59  O4  Z9K D   4      25.921   9.216 -26.0740  0.00  0.00     0.000 O
BRANCH 59 63
ATOM     60  C1  Z9K D   4      24.012   6.758 -28.4750  0.00  0.00     0.000 C
ATOM     61  C2  Z9K D   4      24.476   7.854 -29.4740  0.00  0.00     0.000 C
ATOM     62  C3  Z9K D   4      25.400   8.745 -28.5350  0.00  0.00     0.000 C
ATOM     63  C4  Z9K D   4      24.885   9.134 -27.0970  0.00  0.00     0.000 C
ATOM     64  C5  Z9K D   4      23.870   8.173 -26.4610  0.00  0.00     0.000 C
ATOM     65  O5  Z9K D   4      24.267   6.884 -26.9980  0.00  0.00     0.000 O
ATOM     66   O  Z9K D   4      25.790   9.992 -29.1380  0.00  0.00     0.000 O
ATOM     67   C  Z9K D   4      26.941   9.910 -29.9620  0.00  0.00     0.000 C
BRANCH 61 68
ATOM     68   O  Z9K D   4      25.332   7.236 -30.3950  0.00  0.00     0.000 O
ATOM     69   O  Z9K D   4      24.043   9.163 -31.4780  0.00  0.00     0.000 OA
ATOM     70   S  Z9K D   4      24.122   7.740 -31.3470  0.00  0.00     0.000 S
ATOM     71   O  Z9K D   4      23.011   6.851 -31.1980  0.00  0.00     0.000 OA
ATOM     72   O  Z9K D   4      25.046   7.192 -32.2880  0.00  0.00     0.000 OA
ENDBRANCH 61 68
BRANCH 64 73
ATOM     73   C  Z9K D   4      23.825   8.356 -24.9290  0.00  0.00     0.000 C
ATOM     74   O  Z9K D   4      24.370   7.519 -24.1520  0.00  0.00     0.000 O
ATOM     75   O  Z9K D   4      23.256   9.341 -24.3970  0.00  0.00     0.000 OA
ENDBRANCH 64 73
BRANCH 60 76
ATOM     76  O4  Z9L D   5      22.700   6.190 -28.3170  0.00  0.00     0.000 O
BRANCH 76 80
ATOM     77  C1  Z9L D   5      20.661   2.772 -27.9620  0.00  0.00     0.000 C
ATOM     78  C2  Z9L D   5      20.487   3.568 -26.5810  0.00  0.00     0.000 C
ATOM     79  C3  Z9L D   5      20.940   5.169 -26.8830  0.00  0.00     0.000 C
ATOM     80  C4  Z9L D   5      22.282   4.948 -27.8130  0.00  0.00     0.000 C
ATOM     81  C5  Z9L D   5      22.544   3.974 -29.0710  0.00  0.00     0.000 C
ATOM     82  O5  Z9L D   5      21.919   2.722 -28.7490  0.00  0.00     0.000 O
ATOM     83   C  Z9L D   5      19.590   2.490 -30.1220  0.00  0.00     0.000 C
ATOM     84   C  Z9L D   5      19.590   2.490 -30.1220  0.00  0.00     0.000 C
BRANCH 78 85
ATOM     85   O  Z9L D   5      19.141   3.533 -26.2290  0.00  0.00     0.000 O
ATOM     86   O  Z9L D   5      18.407   2.531 -24.7570  0.00  0.00     0.000 OA
ATOM     87   S  Z9L D   5      19.802   2.670 -25.0460  0.00  0.00     0.000 S
ATOM     88   O  Z9L D   5      20.329   3.469 -23.9680  0.00  0.00     0.000 OA
ATOM     89   O  Z9L D   5      20.245   1.362 -25.3880  0.00  0.00     0.000 OA
ENDBRANCH 78 85
BRANCH 79 90
ATOM     90   O  Z9L D   5      21.459   5.774 -25.7420  0.00  0.00     0.000 O
ATOM     91   S  Z9L D   5      20.227   6.744 -26.0210  0.00  0.00     0.000 S
ATOM     92   O  Z9L D   5      18.875   6.263 -26.1240  0.00  0.00     0.000 OA
ATOM     93   O  Z9L D   5      20.675   7.872 -26.8000  0.00  0.00     0.000 O
ATOM     94   O  Z9L D   5      20.459   7.062 -24.6490  0.00  0.00     0.000 OA
ENDBRANCH 79 90
BRANCH 81 95
ATOM     95   C  Z9L D   5      24.091   3.953 -29.7180  0.00  0.00     0.000 C
ATOM     96   S  Z9L D   5      25.775   2.901 -29.8710  0.00  0.00     0.000 S
ATOM     97   O  Z9L D   5      24.696   3.140 -28.7490  0.00  0.00     0.000 O
ATOM     98   O  Z9L D   5      26.535   4.120 -29.9820  0.00  0.00     0.000 OA
ATOM     99   O  Z9L D   5      25.323   2.201 -31.0260  0.00  0.00     0.000 OA
ATOM    100   O  Z9L D   5      26.360   2.093 -28.8290  0.00  0.00     0.000 O
ENDBRANCH 81 95
ENDBRANCH 76 80
ENDBRANCH 60 76
ENDBRANCH 59 63
ENDBRANCH 37 59
ENDBRANCH 36 40
ENDBRANCH 23 36
ENDBRANCH 22 26
ENDBRANCH 1 22
TORSDOF 19
ENDMDL
MODEL 52
REMARK VINA RESULT:      -6.9     29.501     36.848
ROOT
ATOM      1  C1  Z9H D   1       4.148  45.059 -22.5850  0.00  0.00     0.000 C
ATOM      2  C2  Z9H D   1       4.125  45.410 -21.0780  0.00  0.00     0.000 C
ATOM      3  C3  Z9H D   1       3.802  43.988 -20.5240  0.00  0.00     0.000 C
ATOM      4  C4  Z9H D   1       2.571  43.259 -21.2030  0.00  0.00     0.000 C
ATOM      5  C5  Z9H D   1       2.373  43.175 -22.7690  0.00  0.00     0.000 C
ATOM      6  O5  Z9H D   1       3.009  44.402 -23.2060  0.00  0.00     0.000 O
ATOM      7   O  Z9H D   1       3.651  43.999 -19.1030  0.00  0.00     0.000 O
ATOM      8   C  Z9H D   1       4.808  43.583 -18.3580  0.00  0.00     0.000 C
ATOM      9   O  Z9H D   1       2.592  41.916 -20.7080  0.00  0.00     0.000 O
ATOM     10   C  Z9H D   1       1.691  41.640 -19.6310  0.00  0.00     0.000 C
ENDROOT
BRANCH 2 11
ATOM     11   O  Z9H D   1       5.488  45.608 -20.8030  0.00  0.00     0.000 O
ATOM     12   O  Z9H D   1       6.253  47.283 -20.3950  0.00  0.00     0.000 OA
ATOM     13   S  Z9H D   1       4.866  47.060 -20.6280  0.00  0.00     0.000 S
ATOM     14   O  Z9H D   1       4.069  47.068 -19.4350  0.00  0.00     0.000 OA
ATOM     15   O  Z9H D   1       4.471  47.628 -21.8960  0.00  0.00     0.000 O
ENDBRANCH 2 11
BRANCH 5 16
ATOM     16   C  Z9H D   1       0.827  42.771 -23.2680  0.00  0.00     0.000 C
ATOM     17   S  Z9H D   1      -0.230  41.797 -24.6730  0.00  0.00     0.000 S
ATOM     18   O  Z9H D   1       1.132  41.526 -23.8490  0.00  0.00     0.000 O
ATOM     19   O  Z9H D   1      -0.162  42.880 -25.6110  0.00  0.00     0.000 O
ATOM     20   O  Z9H D   1      -1.360  41.552 -23.8460  0.00  0.00     0.000 OA
ATOM     21   O  Z9H D   1       0.158  40.550 -25.2650  0.00  0.00     0.000 OA
ENDBRANCH 5 16
BRANCH 1 22
ATOM     22  O4  GU1 D   2       5.236  44.152 -22.9930  0.00  0.00     0.000 O
BRANCH 22 26
ATOM     23  C1  GU1 D   2       7.555  43.085 -26.2250  0.00  0.00     0.000 C
ATOM     24  C2  GU1 D   2       6.900  44.453 -26.3320  0.00  0.00     0.000 C
ATOM     25  C3  GU1 D   2       6.418  44.881 -24.9760  0.00  0.00     0.000 C
ATOM     26  C4  GU1 D   2       5.532  43.813 -24.3520  0.00  0.00     0.000 C
ATOM     27  C5  GU1 D   2       6.242  42.456 -24.3880  0.00  0.00     0.000 C
ATOM     28  O5  GU1 D   2       6.628  42.131 -25.7200  0.00  0.00     0.000 O
ATOM     29   O  GU1 D   2       7.805  45.440 -26.8140  0.00  0.00     0.000 O
ATOM     30   C  GU1 D   2       7.704  45.680 -28.2100  0.00  0.00     0.000 C
ATOM     31   C  GU1 D   2       6.334  47.277 -24.7600  0.00  0.00     0.000 C
ATOM     32   O  GU1 D   2       5.652  46.080 -25.1270  0.00  0.00     0.000 O
BRANCH 27 33
ATOM     33   C  GU1 D   2       5.340  41.354 -23.8860  0.00  0.00     0.000 C
ATOM     34   O  GU1 D   2       5.457  40.992 -22.7330  0.00  0.00     0.000 OA
ATOM     35   O  GU1 D   2       4.510  40.845 -24.6240  0.00  0.00     0.000 O
ENDBRANCH 27 33
BRANCH 23 36
ATOM     36  O4  GU6 D   3       7.880  42.346 -27.4190  0.00  0.00     0.000 O
BRANCH 36 40
ATOM     37  C1  GU6 D   3       8.929  41.252 -31.2140  0.00  0.00     0.000 C
ATOM     38  C2  GU6 D   3       7.990  40.270 -30.5240  0.00  0.00     0.000 C
ATOM     39  C3  GU6 D   3       7.453  40.888 -29.2590  0.00  0.00     0.000 C
ATOM     40  C4  GU6 D   3       8.056  42.147 -28.8070  0.00  0.00     0.000 C
ATOM     41  C5  GU6 D   3       9.596  42.116 -29.0780  0.00  0.00     0.000 C
ATOM     42  O5  GU6 D   3       9.999  41.550 -30.3310  0.00  0.00     0.000 O
BRANCH 38 43
ATOM     43   O  GU6 D   3       6.920  39.918 -31.3810  0.00  0.00     0.000 O
ATOM     44   S  GU6 D   3       7.047  38.538 -32.0120  0.00  0.00     0.000 S
ATOM     45   O  GU6 D   3       7.941  38.637 -33.1790  0.00  0.00     0.000 OA
ATOM     46   O  GU6 D   3       7.636  37.620 -31.0200  0.00  0.00     0.000 O
ATOM     47   O  GU6 D   3       5.719  38.073 -32.3970  0.00  0.00     0.000 OA
ENDBRANCH 38 43
BRANCH 39 48
ATOM     48   O  GU6 D   3       6.266  40.403 -28.6610  0.00  0.00     0.000 O
ATOM     49   S  GU6 D   3       4.818  40.851 -28.8530  0.00  0.00     0.000 S
ATOM     50   O  GU6 D   3       4.455  40.794 -30.2740  0.00  0.00     0.000 OA
ATOM     51   O  GU6 D   3       4.059  39.865 -28.0710  0.00  0.00     0.000 OA
ATOM     52   O  GU6 D   3       4.672  42.234 -28.3480  0.00  0.00     0.000 O
ENDBRANCH 39 48
BRANCH 41 53
ATOM     53   C  GU6 D   3      10.721  42.612 -28.2100  0.00  0.00     0.000 C
ATOM     54   O  GU6 D   3      10.548  43.986 -28.4420  0.00  0.00     0.000 O
ATOM     55   S  GU6 D   3      11.540  45.004 -27.8620  0.00  0.00     0.000 S
ATOM     56   O  GU6 D   3      12.837  44.768 -28.5370  0.00  0.00     0.000 O
ATOM     57   O  GU6 D   3      11.043  46.358 -28.1500  0.00  0.00     0.000 OA
ATOM     58   O  GU6 D   3      11.640  44.742 -26.4090  0.00  0.00     0.000 OA
ENDBRANCH 41 53
BRANCH 37 59
ATOM     59  O4  Z9K D   4       8.523  42.491 -31.8320  0.00  0.00     0.000 O
BRANCH 59 63
ATOM     60  C1  Z9K D   4       6.878  41.694 -35.3110  0.00  0.00     0.000 C
ATOM     61  C2  Z9K D   4       8.388  41.658 -35.6760  0.00  0.00     0.000 C
ATOM     62  C3  Z9K D   4       9.050  41.797 -34.2370  0.00  0.00     0.000 C
ATOM     63  C4  Z9K D   4       8.491  42.879 -33.2360  0.00  0.00     0.000 C
ATOM     64  C5  Z9K D   4       7.023  43.285 -33.4320  0.00  0.00     0.000 C
ATOM     65  O5  Z9K D   4       6.415  42.063 -33.9290  0.00  0.00     0.000 O
ATOM     66   O  Z9K D   4      10.469  42.034 -34.2840  0.00  0.00     0.000 O
ATOM     67   C  Z9K D   4      11.256  40.859 -34.3820  0.00  0.00     0.000 C
BRANCH 61 68
ATOM     68   O  Z9K D   4       8.673  40.359 -36.1170  0.00  0.00     0.000 O
ATOM     69   O  Z9K D   4      10.128  42.086 -37.3220  0.00  0.00     0.000 OA
ATOM     70   S  Z9K D   4       8.981  41.238 -37.4430  0.00  0.00     0.000 S
ATOM     71   O  Z9K D   4       7.742  41.591 -38.0660  0.00  0.00     0.000 OA
ATOM     72   O  Z9K D   4       9.360  39.923 -37.8510  0.00  0.00     0.000 OA
ENDBRANCH 61 68
BRANCH 64 73
ATOM     73   C  Z9K D   4       6.455  43.928 -32.1490  0.00  0.00     0.000 C
ATOM     74   O  Z9K D   4       6.727  45.124 -31.8400  0.00  0.00     0.000 O
ATOM     75   O  Z9K D   4       5.701  43.295 -31.3700  0.00  0.00     0.000 OA
ENDBRANCH 64 73
BRANCH 60 76
ATOM     76  O4  Z9L D   5       5.813  42.393 -35.9780  0.00  0.00     0.000 O
BRANCH 76 80
ATOM     77  C1  Z9L D   5       2.113  41.931 -37.4170  0.00  0.00     0.000 C
ATOM     78  C2  Z9L D   5       2.048  43.099 -36.3200  0.00  0.00     0.000 C
ATOM     79  C3  Z9L D   5       3.640  43.605 -36.0550  0.00  0.00     0.000 C
ATOM     80  C4  Z9L D   5       4.429  42.159 -36.0130  0.00  0.00     0.000 C
ATOM     81  C5  Z9L D   5       4.332  40.877 -36.9860  0.00  0.00     0.000 C
ATOM     82  O5  Z9L D   5       2.940  40.703 -37.2880  0.00  0.00     0.000 O
ATOM     83   C  Z9L D   5       2.438  41.600 -39.8000  0.00  0.00     0.000 C
ATOM     84   C  Z9L D   5       2.438  41.600 -39.8000  0.00  0.00     0.000 C
BRANCH 78 85
ATOM     85   O  Z9L D   5       1.317  44.155 -36.8560  0.00  0.00     0.000 O
ATOM     86   O  Z9L D   5      -0.440  44.690 -36.2770  0.00  0.00     0.000 OA
ATOM     87   S  Z9L D   5       0.365  43.689 -35.6480  0.00  0.00     0.000 S
ATOM     88   O  Z9L D   5       0.730  44.250 -34.3710  0.00  0.00     0.000 OA
ATOM     89   O  Z9L D   5      -0.342  42.468 -35.8330  0.00  0.00     0.000 OA
ENDBRANCH 78 85
BRANCH 79 90
ATOM     90   O  Z9L D   5       3.812  44.081 -34.7580  0.00  0.00     0.000 O
ATOM     91   S  Z9L D   5       4.264  45.370 -35.5770  0.00  0.00     0.000 S
ATOM     92   O  Z9L D   5       3.414  46.000 -36.5530  0.00  0.00     0.000 OA
ATOM     93   O  Z9L D   5       5.696  45.353 -35.7410  0.00  0.00     0.000 O
ATOM     94   O  Z9L D   5       3.991  45.986 -34.3180  0.00  0.00     0.000 OA
ENDBRANCH 79 90
BRANCH 81 95
ATOM     95   C  Z9L D   5       5.234  39.526 -36.5700  0.00  0.00     0.000 C
ATOM     96   S  Z9L D   5       5.632  37.630 -37.0330  0.00  0.00     0.000 S
ATOM     97   O  Z9L D   5       4.351  38.547 -37.0480  0.00  0.00     0.000 O
ATOM     98   O  Z9L D   5       5.921  37.345 -35.6510  0.00  0.00     0.000 OA
ATOM     99   O  Z9L D   5       6.662  37.990 -37.9480  0.00  0.00     0.000 OA
ATOM    100   O  Z9L D   5       4.674  36.661 -37.5070  0.00  0.00     0.000 O
ENDBRANCH 81 95
ENDBRANCH 76 80
ENDBRANCH 60 76
ENDBRANCH 59 63
ENDBRANCH 37 59
ENDBRANCH 36 40
ENDBRANCH 23 36
ENDBRANCH 22 26
ENDBRANCH 1 22
TORSDOF 19
ENDMDL
MODEL 53
REMARK VINA RESULT:      -6.9     32.306     41.647
ROOT
ATOM      1  C1  Z9H D   1      -0.914  17.979  -9.7550  0.00  0.00     0.000 C
ATOM      2  C2  Z9H D   1      -0.947  17.383  -8.3270  0.00  0.00     0.000 C
ATOM      3  C3  Z9H D   1      -2.139  18.216  -7.7650  0.00  0.00     0.000 C
ATOM      4  C4  Z9H D   1      -2.037  19.782  -7.9860  0.00  0.00     0.000 C
ATOM      5  C5  Z9H D   1      -1.660  20.437  -9.3740  0.00  0.00     0.000 C
ATOM      6  O5  Z9H D   1      -0.806  19.417  -9.9500  0.00  0.00     0.000 O
ATOM      7   O  Z9H D   1      -2.384  17.923  -6.3890  0.00  0.00     0.000 O
ATOM      8   C  Z9H D   1      -3.447  16.988  -6.1370  0.00  0.00     0.000 C
ATOM      9   O  Z9H D   1      -3.309  20.313  -7.6000  0.00  0.00     0.000 O
ATOM     10   C  Z9H D   1      -3.371  20.872  -6.2840  0.00  0.00     0.000 C
ENDROOT
BRANCH 2 11
ATOM     11   O  Z9H D   1      -1.472  16.102  -8.5580  0.00  0.00     0.000 O
ATOM     12   O  Z9H D   1      -0.494  14.502  -8.3510  0.00  0.00     0.000 OA
ATOM     13   S  Z9H D   1       0.012  15.805  -8.0750  0.00  0.00     0.000 S
ATOM     14   O  Z9H D   1       0.099  16.108  -6.6750  0.00  0.00     0.000 OA
ATOM     15   O  Z9H D   1       0.985  16.189  -9.0710  0.00  0.00     0.000 O
ENDBRANCH 2 11
BRANCH 5 16
ATOM     16   C  Z9H D   1      -1.174  22.036  -9.2950  0.00  0.00     0.000 C
ATOM     17   S  Z9H D   1      -1.357  23.840 -10.1640  0.00  0.00     0.000 S
ATOM     18   O  Z9H D   1      -2.350  22.619  -9.8030  0.00  0.00     0.000 O
ATOM     19   O  Z9H D   1      -0.393  23.550 -11.1870  0.00  0.00     0.000 O
ATOM     20   O  Z9H D   1      -1.051  24.585  -8.9930  0.00  0.00     0.000 OA
ATOM     21   O  Z9H D   1      -2.576  24.361 -10.7080  0.00  0.00     0.000 OA
ENDBRANCH 5 16
BRANCH 1 22
ATOM     22  O4  GU1 D   2      -2.102  17.686 -10.5750  0.00  0.00     0.000 O
BRANCH 22 26
ATOM     23  C1  GU1 D   2      -3.428  17.254 -14.4510  0.00  0.00     0.000 C
ATOM     24  C2  GU1 D   2      -1.950  16.961 -14.2450  0.00  0.00     0.000 C
ATOM     25  C3  GU1 D   2      -1.680  16.777 -12.7790  0.00  0.00     0.000 C
ATOM     26  C4  GU1 D   2      -2.199  17.962 -11.9780  0.00  0.00     0.000 C
ATOM     27  C5  GU1 D   2      -3.662  18.237 -12.3360  0.00  0.00     0.000 C
ATOM     28  O5  GU1 D   2      -3.804  18.428 -13.7410  0.00  0.00     0.000 O
ATOM     29   O  GU1 D   2      -1.542  15.779 -14.9240  0.00  0.00     0.000 O
ATOM     30   C  GU1 D   2      -0.949  16.021 -16.1920  0.00  0.00     0.000 C
ATOM     31   C  GU1 D   2       0.222  15.357 -12.3820  0.00  0.00     0.000 C
ATOM     32   O  GU1 D   2      -0.265  16.680 -12.5900  0.00  0.00     0.000 O
BRANCH 27 33
ATOM     33   C  GU1 D   2      -4.169  19.481 -11.6460  0.00  0.00     0.000 C
ATOM     34   O  GU1 D   2      -3.835  20.562 -12.0860  0.00  0.00     0.000 OA
ATOM     35   O  GU1 D   2      -4.901  19.396 -10.6720  0.00  0.00     0.000 O
ENDBRANCH 27 33
BRANCH 23 36
ATOM     36  O4  GU6 D   3      -3.900  17.710 -15.7350  0.00  0.00     0.000 O
BRANCH 36 40
ATOM     37  C1  GU6 D   3      -6.740  19.911 -17.6810  0.00  0.00     0.000 C
ATOM     38  C2  GU6 D   3      -5.758  20.747 -16.8690  0.00  0.00     0.000 C
ATOM     39  C3  GU6 D   3      -4.608  19.883 -16.4220  0.00  0.00     0.000 C
ATOM     40  C4  GU6 D   3      -4.726  18.434 -16.6240  0.00  0.00     0.000 C
ATOM     41  C5  GU6 D   3      -6.200  17.986 -16.3550  0.00  0.00     0.000 C
ATOM     42  O5  GU6 D   3      -7.219  18.855 -16.8620  0.00  0.00     0.000 O
BRANCH 38 43
ATOM     43   O  GU6 D   3      -5.277  21.833 -17.6370  0.00  0.00     0.000 O
ATOM     44   S  GU6 D   3      -5.700  23.203 -17.1230  0.00  0.00     0.000 S
ATOM     45   O  GU6 D   3      -7.065  23.481 -17.6000  0.00  0.00     0.000 OA
ATOM     46   O  GU6 D   3      -5.692  23.176 -15.6490  0.00  0.00     0.000 O
ATOM     47   O  GU6 D   3      -4.752  24.201 -17.6100  0.00  0.00     0.000 OA
ENDBRANCH 38 43
BRANCH 39 48
ATOM     48   O  GU6 D   3      -3.373  20.458 -16.0400  0.00  0.00     0.000 O
ATOM     49   S  GU6 D   3      -2.084  20.632 -16.8410  0.00  0.00     0.000 S
ATOM     50   O  GU6 D   3      -2.356  21.361 -18.0850  0.00  0.00     0.000 OA
ATOM     51   O  GU6 D   3      -1.236  21.422 -15.9380  0.00  0.00     0.000 OA
ATOM     52   O  GU6 D   3      -1.525  19.297 -17.1470  0.00  0.00     0.000 O
ENDBRANCH 39 48
BRANCH 41 53
ATOM     53   C  GU6 D   3      -6.702  16.757 -15.6460  0.00  0.00     0.000 C
ATOM     54   O  GU6 D   3      -6.875  17.328 -14.3740  0.00  0.00     0.000 O
ATOM     55   S  GU6 D   3      -7.284  16.456 -13.1800  0.00  0.00     0.000 S
ATOM     56   O  GU6 D   3      -6.157  15.530 -12.9200  0.00  0.00     0.000 O
ATOM     57   O  GU6 D   3      -7.517  17.329 -12.0200  0.00  0.00     0.000 OA
ATOM     58   O  GU6 D   3      -8.502  15.714 -13.5750  0.00  0.00     0.000 OA
ENDBRANCH 41 53
BRANCH 37 59
ATOM     59  O4  Z9K D   4      -6.474  19.356 -18.9860  0.00  0.00     0.000 O
BRANCH 59 63
ATOM     60  C1  Z9K D   4      -5.753  22.230 -21.5680  0.00  0.00     0.000 C
ATOM     61  C2  Z9K D   4      -7.305  22.267 -21.5020  0.00  0.00     0.000 C
ATOM     62  C3  Z9K D   4      -7.581  21.234 -20.3240  0.00  0.00     0.000 C
ATOM     63  C4  Z9K D   4      -6.809  19.860 -20.3120  0.00  0.00     0.000 C
ATOM     64  C5  Z9K D   4      -5.448  19.844 -21.0230  0.00  0.00     0.000 C
ATOM     65  O5  Z9K D   4      -4.960  21.196 -20.8160  0.00  0.00     0.000 O
ATOM     66   O  Z9K D   4      -8.969  20.880 -20.1930  0.00  0.00     0.000 O
ATOM     67   C  Z9K D   4      -9.731  21.776 -19.4010  0.00  0.00     0.000 C
BRANCH 61 68
ATOM     68   O  Z9K D   4      -7.665  23.529 -21.0110  0.00  0.00     0.000 O
ATOM     69   O  Z9K D   4      -9.459  22.600 -22.5810  0.00  0.00     0.000 OA
ATOM     70   S  Z9K D   4      -8.370  23.523 -22.4690  0.00  0.00     0.000 S
ATOM     71   O  Z9K D   4      -7.376  23.770 -23.4680  0.00  0.00     0.000 OA
ATOM     72   O  Z9K D   4      -8.810  24.765 -21.9200  0.00  0.00     0.000 OA
ENDBRANCH 61 68
BRANCH 64 73
ATOM     73   C  Z9K D   4      -4.586  18.661 -20.5340  0.00  0.00     0.000 C
ATOM     74   O  Z9K D   4      -4.913  17.465 -20.7830  0.00  0.00     0.000 O
ATOM     75   O  Z9K D   4      -3.530  18.839 -19.8790  0.00  0.00     0.000 OA
ENDBRANCH 64 73
BRANCH 60 76
ATOM     76  O4  Z9L D   5      -4.908  22.197 -22.7310  0.00  0.00     0.000 O
BRANCH 76 80
ATOM     77  C1  Z9L D   5      -1.754  23.864 -24.5330  0.00  0.00     0.000 C
ATOM     78  C2  Z9L D   5      -1.328  22.372 -24.1250  0.00  0.00     0.000 C
ATOM     79  C3  Z9L D   5      -2.759  21.532 -23.7960  0.00  0.00     0.000 C
ATOM     80  C4  Z9L D   5      -3.599  22.661 -22.9410  0.00  0.00     0.000 C
ATOM     81  C5  Z9L D   5      -3.844  24.230 -23.2230  0.00  0.00     0.000 C
ATOM     82  O5  Z9L D   5      -2.595  24.756 -23.6940  0.00  0.00     0.000 O
ATOM     83   C  Z9L D   5      -2.714  25.110 -26.3810  0.00  0.00     0.000 C
ATOM     84   C  Z9L D   5      -2.714  25.110 -26.3810  0.00  0.00     0.000 C
BRANCH 78 85
ATOM     85   O  Z9L D   5      -0.698  21.789 -25.2200  0.00  0.00     0.000 O
ATOM     86   O  Z9L D   5       1.185  21.398 -25.3340  0.00  0.00     0.000 OA
ATOM     87   S  Z9L D   5       0.513  21.880 -24.1670  0.00  0.00     0.000 S
ATOM     88   O  Z9L D   5       0.553  20.784 -23.2310  0.00  0.00     0.000 OA
ATOM     89   O  Z9L D   5       1.052  23.176 -23.9320  0.00  0.00     0.000 OA
ENDBRANCH 78 85
BRANCH 79 90
ATOM     90   O  Z9L D   5      -2.552  20.529 -22.8520  0.00  0.00     0.000 O
ATOM     91   S  Z9L D   5      -3.012  19.639 -24.0900  0.00  0.00     0.000 S
ATOM     92   O  Z9L D   5      -2.344  19.687 -25.3640  0.00  0.00     0.000 OA
ATOM     93   O  Z9L D   5      -4.432  19.402 -24.0060  0.00  0.00     0.000 O
ATOM     94   O  Z9L D   5      -2.369  18.630 -23.3130  0.00  0.00     0.000 OA
ENDBRANCH 79 90
BRANCH 81 95
ATOM     95   C  Z9L D   5      -4.690  25.097 -22.0620  0.00  0.00     0.000 C
ATOM     96   S  Z9L D   5      -5.246  26.918 -21.4780  0.00  0.00     0.000 S
ATOM     97   O  Z9L D   5      -3.964  26.294 -22.1450  0.00  0.00     0.000 O
ATOM     98   O  Z9L D   5      -5.252  26.483 -20.1040  0.00  0.00     0.000 OA
ATOM     99   O  Z9L D   5      -6.430  26.893 -22.2680  0.00  0.00     0.000 OA
ATOM    100   O  Z9L D   5      -4.445  28.114 -21.5730  0.00  0.00     0.000 O
ENDBRANCH 81 95
ENDBRANCH 76 80
ENDBRANCH 60 76
ENDBRANCH 59 63
ENDBRANCH 37 59
ENDBRANCH 36 40
ENDBRANCH 23 36
ENDBRANCH 22 26
ENDBRANCH 1 22
TORSDOF 19
ENDMDL
MODEL 54
REMARK VINA RESULT:      -6.9     24.837     31.124
ROOT
ATOM      1  C1  Z9H D   1      16.872   1.687 -43.4950  0.00  0.00     0.000 C
ATOM      2  C2  Z9H D   1      17.313   2.177 -44.8940  0.00  0.00     0.000 C
ATOM      3  C3  Z9H D   1      15.950   2.774 -45.3610  0.00  0.00     0.000 C
ATOM      4  C4  Z9H D   1      14.698   1.816 -45.1970  0.00  0.00     0.000 C
ATOM      5  C5  Z9H D   1      14.393   1.012 -43.8710  0.00  0.00     0.000 C
ATOM      6  O5  Z9H D   1      15.730   0.797 -43.3520  0.00  0.00     0.000 O
ATOM      7   O  Z9H D   1      16.023   3.271 -46.6990  0.00  0.00     0.000 O
ATOM      8   C  Z9H D   1      16.223   4.689 -46.8180  0.00  0.00     0.000 C
ATOM      9   O  Z9H D   1      13.550   2.627 -45.4720  0.00  0.00     0.000 O
ATOM     10   C  Z9H D   1      13.009   2.503 -46.7910  0.00  0.00     0.000 C
ENDROOT
BRANCH 2 11
ATOM     11   O  Z9H D   1      18.110   3.288 -44.5770  0.00  0.00     0.000 O
ATOM     12   O  Z9H D   1      19.965   3.391 -44.9030  0.00  0.00     0.000 OA
ATOM     13   S  Z9H D   1      19.137   2.289 -45.2630  0.00  0.00     0.000 S
ATOM     14   O  Z9H D   1      18.835   2.224 -46.6640  0.00  0.00     0.000 OA
ATOM     15   O  Z9H D   1      19.418   1.150 -44.4190  0.00  0.00     0.000 O
ENDBRANCH 2 11
BRANCH 5 16
ATOM     16   C  Z9H D   1      13.313  -0.254 -44.0420  0.00  0.00     0.000 C
ATOM     17   S  Z9H D   1      11.905  -1.335 -43.0980  0.00  0.00     0.000 S
ATOM     18   O  Z9H D   1      12.316   0.225 -43.1720  0.00  0.00     0.000 O
ATOM     19   O  Z9H D   1      12.859  -2.179 -42.4390  0.00  0.00     0.000 O
ATOM     20   O  Z9H D   1      11.212  -1.715 -44.2800  0.00  0.00     0.000 OA
ATOM     21   O  Z9H D   1      10.943  -0.795 -42.1820  0.00  0.00     0.000 OA
ENDBRANCH 5 16
BRANCH 1 22
ATOM     22  O4  GU1 D   2      16.496   2.757 -42.5540  0.00  0.00     0.000 O
BRANCH 22 26
ATOM     23  C1  GU1 D   2      16.679   4.023 -38.6380  0.00  0.00     0.000 C
ATOM     24  C2  GU1 D   2      17.909   3.273 -39.1260  0.00  0.00     0.000 C
ATOM     25  C3  GU1 D   2      17.890   3.208 -40.6260  0.00  0.00     0.000 C
ATOM     26  C4  GU1 D   2      16.572   2.638 -41.1290  0.00  0.00     0.000 C
ATOM     27  C5  GU1 D   2      15.399   3.395 -40.4990  0.00  0.00     0.000 C
ATOM     28  O5  GU1 D   2      15.495   3.369 -39.0770  0.00  0.00     0.000 O
ATOM     29   O  GU1 D   2      19.116   3.911 -38.7240  0.00  0.00     0.000 O
ATOM     30   C  GU1 D   2      19.691   3.363 -37.5470  0.00  0.00     0.000 C
ATOM     31   C  GU1 D   2      20.104   3.028 -41.5520  0.00  0.00     0.000 C
ATOM     32   O  GU1 D   2      18.953   2.351 -41.0550  0.00  0.00     0.000 O
BRANCH 27 33
ATOM     33   C  GU1 D   2      14.077   2.775 -40.8850  0.00  0.00     0.000 C
ATOM     34   O  GU1 D   2      13.311   3.424 -41.5660  0.00  0.00     0.000 OA
ATOM     35   O  GU1 D   2      13.792   1.644 -40.5210  0.00  0.00     0.000 O
ENDBRANCH 27 33
BRANCH 23 36
ATOM     36  O4  GU6 D   3      16.336   4.011 -37.2390  0.00  0.00     0.000 O
BRANCH 36 40
ATOM     37  C1  GU6 D   3      14.522   5.694 -33.9870  0.00  0.00     0.000 C
ATOM     38  C2  GU6 D   3      14.233   4.208 -34.1560  0.00  0.00     0.000 C
ATOM     39  C3  GU6 D   3      15.150   3.631 -35.2030  0.00  0.00     0.000 C
ATOM     40  C4  GU6 D   3      15.951   4.569 -35.9980  0.00  0.00     0.000 C
ATOM     41  C5  GU6 D   3      15.103   5.846 -36.3090  0.00  0.00     0.000 C
ATOM     42  O5  GU6 D   3      14.302   6.342 -35.2310  0.00  0.00     0.000 O
BRANCH 38 43
ATOM     43   O  GU6 D   3      14.410   3.525 -32.9300  0.00  0.00     0.000 O
ATOM     44   S  GU6 D   3      13.127   3.313 -32.1370  0.00  0.00     0.000 S
ATOM     45   O  GU6 D   3      12.826   4.550 -31.3960  0.00  0.00     0.000 OA
ATOM     46   O  GU6 D   3      12.032   3.028 -33.0810  0.00  0.00     0.000 O
ATOM     47   O  GU6 D   3      13.314   2.184 -31.2320  0.00  0.00     0.000 OA
ENDBRANCH 38 43
BRANCH 39 48
ATOM     48   O  GU6 D   3      15.405   2.241 -35.2590  0.00  0.00     0.000 O
ATOM     49   S  GU6 D   3      14.530   1.103 -35.7830  0.00  0.00     0.000 S
ATOM     50   O  GU6 D   3      14.133   1.369 -37.1710  0.00  0.00     0.000 OA
ATOM     51   O  GU6 D   3      15.416  -0.065 -35.6990  0.00  0.00     0.000 OA
ATOM     52   O  GU6 D   3      13.329   0.989 -34.9260  0.00  0.00     0.000 O
ENDBRANCH 39 48
BRANCH 41 53
ATOM     53   C  GU6 D   3      15.023   6.642 -37.5840  0.00  0.00     0.000 C
ATOM     54   O  GU6 D   3      14.980   7.922 -37.0080  0.00  0.00     0.000 O
ATOM     55   S  GU6 D   3      14.776   9.164 -37.8850  0.00  0.00     0.000 S
ATOM     56   O  GU6 D   3      13.411   9.068 -38.4520  0.00  0.00     0.000 O
ATOM     57   O  GU6 D   3      14.904  10.360 -37.0400  0.00  0.00     0.000 OA
ATOM     58   O  GU6 D   3      15.800   9.121 -38.9520  0.00  0.00     0.000 OA
ENDBRANCH 41 53
BRANCH 37 59
ATOM     59  O4  Z9K D   4      15.731   6.245 -33.4250  0.00  0.00     0.000 O
BRANCH 59 63
ATOM     60  C1  Z9K D   4      15.152   6.309 -29.5380  0.00  0.00     0.000 C
ATOM     61  C2  Z9K D   4      14.546   7.677 -29.9550  0.00  0.00     0.000 C
ATOM     62  C3  Z9K D   4      14.615   7.567 -31.5390  0.00  0.00     0.000 C
ATOM     63  C4  Z9K D   4      15.935   7.033 -32.2160  0.00  0.00     0.000 C
ATOM     64  C5  Z9K D   4      16.803   6.100 -31.3580  0.00  0.00     0.000 C
ATOM     65  O5  Z9K D   4      15.822   5.409 -30.5400  0.00  0.00     0.000 O
ATOM     66   O  Z9K D   4      14.333   8.810 -32.2090  0.00  0.00     0.000 O
ATOM     67   C  Z9K D   4      12.954   9.060 -32.4230  0.00  0.00     0.000 C
BRANCH 61 68
ATOM     68   O  Z9K D   4      13.187   7.646 -29.6160  0.00  0.00     0.000 O
ATOM     69   O  Z9K D   4      14.137  10.013 -29.4100  0.00  0.00     0.000 OA
ATOM     70   S  Z9K D   4      13.737   8.848 -28.6800  0.00  0.00     0.000 S
ATOM     71   O  Z9K D   4      14.425   8.287 -27.5580  0.00  0.00     0.000 OA
ATOM     72   O  Z9K D   4      12.335   8.869 -28.4160  0.00  0.00     0.000 OA
ENDBRANCH 61 68
BRANCH 64 73
ATOM     73   C  Z9K D   4      17.752   5.265 -32.2430  0.00  0.00     0.000 C
ATOM     74   O  Z9K D   4      18.726   5.801 -32.8470  0.00  0.00     0.000 O
ATOM     75   O  Z9K D   4      17.599   4.028 -32.3920  0.00  0.00     0.000 OA
ENDBRANCH 64 73
BRANCH 60 76
ATOM     76  O4  Z9L D   5      16.094   6.030 -28.4880  0.00  0.00     0.000 O
BRANCH 76 80
ATOM     77  C1  Z9L D   5      16.915   3.560 -25.4550  0.00  0.00     0.000 C
ATOM     78  C2  Z9L D   5      18.102   3.404 -26.5220  0.00  0.00     0.000 C
ATOM     79  C3  Z9L D   5      18.008   4.743 -27.5520  0.00  0.00     0.000 C
ATOM     80  C4  Z9L D   5      16.381   4.846 -27.7890  0.00  0.00     0.000 C
ATOM     81  C5  Z9L D   5      15.157   4.773 -26.7420  0.00  0.00     0.000 C
ATOM     82  O5  Z9L D   5      15.483   3.731 -25.8110  0.00  0.00     0.000 O
ATOM     83   C  Z9L D   5      16.318   4.830 -23.4740  0.00  0.00     0.000 C
ATOM     84   C  Z9L D   5      16.318   4.830 -23.4740  0.00  0.00     0.000 C
BRANCH 78 85
ATOM     85   O  Z9L D   5      19.310   3.442 -25.8330  0.00  0.00     0.000 O
ATOM     86   O  Z9L D   5      20.489   1.940 -25.5820  0.00  0.00     0.000 OA
ATOM     87   S  Z9L D   5      19.311   1.936 -26.3950  0.00  0.00     0.000 S
ATOM     88   O  Z9L D   5      19.791   1.821 -27.7490  0.00  0.00     0.000 OA
ATOM     89   O  Z9L D   5      18.422   1.024 -25.7610  0.00  0.00     0.000 OA
ENDBRANCH 78 85
BRANCH 79 90
ATOM     90   O  Z9L D   5      18.481   4.438 -28.8250  0.00  0.00     0.000 O
ATOM     91   S  Z9L D   5      19.455   5.644 -28.4610  0.00  0.00     0.000 S
ATOM     92   O  Z9L D   5      20.279   5.639 -27.2810  0.00  0.00     0.000 OA
ATOM     93   O  Z9L D   5      18.907   6.873 -28.9780  0.00  0.00     0.000 O
ATOM     94   O  Z9L D   5      20.216   5.048 -29.5110  0.00  0.00     0.000 OA
ENDBRANCH 79 90
BRANCH 81 95
ATOM     95   C  Z9L D   5      13.603   4.825 -27.3720  0.00  0.00     0.000 C
ATOM     96   S  Z9L D   5      11.664   4.774 -26.9210  0.00  0.00     0.000 S
ATOM     97   O  Z9L D   5      12.964   4.073 -26.3750  0.00  0.00     0.000 O
ATOM     98   O  Z9L D   5      11.375   4.174 -28.1990  0.00  0.00     0.000 OA
ATOM     99   O  Z9L D   5      11.593   6.183 -26.7310  0.00  0.00     0.000 OA
ATOM    100   O  Z9L D   5      11.060   3.964 -25.8920  0.00  0.00     0.000 O
ENDBRANCH 81 95
ENDBRANCH 76 80
ENDBRANCH 60 76
ENDBRANCH 59 63
ENDBRANCH 37 59
ENDBRANCH 36 40
ENDBRANCH 23 36
ENDBRANCH 22 26
ENDBRANCH 1 22
TORSDOF 19
ENDMDL
MODEL 55
REMARK VINA RESULT:      -6.9     29.800     36.092
ROOT
ATOM      1  C1  Z9H D   1      26.290   9.597 -29.9000  0.00  0.00     0.000 C
ATOM      2  C2  Z9H D   1      27.816   9.659 -29.6490  0.00  0.00     0.000 C
ATOM      3  C3  Z9H D   1      27.917   8.497 -28.6130  0.00  0.00     0.000 C
ATOM      4  C4  Z9H D   1      26.894   8.573 -27.4050  0.00  0.00     0.000 C
ATOM      5  C5  Z9H D   1      25.351   8.857 -27.5960  0.00  0.00     0.000 C
ATOM      6  O5  Z9H D   1      25.356   9.682 -28.7880  0.00  0.00     0.000 O
ATOM      7   O  Z9H D   1      29.251   8.341 -28.1260  0.00  0.00     0.000 O
ATOM      8   C  Z9H D   1      30.020   7.303 -28.7570  0.00  0.00     0.000 C
ATOM      9   O  Z9H D   1      27.012   7.323 -26.7170  0.00  0.00     0.000 O
ATOM     10   C  Z9H D   1      27.832   7.338 -25.5440  0.00  0.00     0.000 C
ENDROOT
BRANCH 2 11
ATOM     11   O  Z9H D   1      28.330   9.130 -30.8430  0.00  0.00     0.000 O
ATOM     12   O  Z9H D   1      29.391  10.103 -32.0620  0.00  0.00     0.000 OA
ATOM     13   S  Z9H D   1      28.903  10.612 -30.8250  0.00  0.00     0.000 S
ATOM     14   O  Z9H D   1      29.902  10.696 -29.7980  0.00  0.00     0.000 OA
ATOM     15   O  Z9H D   1      27.864  11.589 -31.0560  0.00  0.00     0.000 O
ENDBRANCH 2 11
BRANCH 5 16
ATOM     16   C  Z9H D   1      24.542   9.334 -26.2100  0.00  0.00     0.000 C
ATOM     17   S  Z9H D   1      24.784   9.954 -24.3140  0.00  0.00     0.000 S
ATOM     18   O  Z9H D   1      25.503  10.242 -25.7300  0.00  0.00     0.000 O
ATOM     19   O  Z9H D   1      24.970   8.626 -23.8030  0.00  0.00     0.000 O
ATOM     20   O  Z9H D   1      23.547  10.651 -24.2410  0.00  0.00     0.000 OA
ATOM     21   O  Z9H D   1      25.815  10.847 -23.8750  0.00  0.00     0.000 OA
ENDBRANCH 5 16
BRANCH 1 22
ATOM     22  O4  GU1 D   2      25.819   8.363 -30.5520  0.00  0.00     0.000 O
BRANCH 22 26
ATOM     23  C1  GU1 D   2      23.246   6.780 -33.3520  0.00  0.00     0.000 C
ATOM     24  C2  GU1 D   2      23.877   8.108 -33.7420  0.00  0.00     0.000 C
ATOM     25  C3  GU1 D   2      25.052   8.382 -32.8490  0.00  0.00     0.000 C
ATOM     26  C4  GU1 D   2      24.655   8.286 -31.3830  0.00  0.00     0.000 C
ATOM     27  C5  GU1 D   2      23.937   6.959 -31.1190  0.00  0.00     0.000 C
ATOM     28  O5  GU1 D   2      22.822   6.813 -31.9950  0.00  0.00     0.000 O
ATOM     29   O  GU1 D   2      24.334   8.106 -35.0890  0.00  0.00     0.000 O
ATOM     30   C  GU1 D   2      23.416   8.682 -36.0080  0.00  0.00     0.000 C
ATOM     31   C  GU1 D   2      26.694   9.781 -33.9160  0.00  0.00     0.000 C
ATOM     32   O  GU1 D   2      25.520   9.708 -33.1100  0.00  0.00     0.000 O
BRANCH 27 33
ATOM     33   C  GU1 D   2      23.424   6.887 -29.7010  0.00  0.00     0.000 C
ATOM     34   O  GU1 D   2      23.891   6.047 -28.9600  0.00  0.00     0.000 OA
ATOM     35   O  GU1 D   2      22.563   7.661 -29.3120  0.00  0.00     0.000 O
ENDBRANCH 27 33
BRANCH 23 36
ATOM     36  O4  GU6 D   3      21.962   6.407 -33.8910  0.00  0.00     0.000 O
BRANCH 36 40
ATOM     37  C1  GU6 D   3      17.966   5.735 -34.4180  0.00  0.00     0.000 C
ATOM     38  C2  GU6 D   3      18.861   4.830 -35.2550  0.00  0.00     0.000 C
ATOM     39  C3  GU6 D   3      20.289   4.964 -34.7930  0.00  0.00     0.000 C
ATOM     40  C4  GU6 D   3      20.599   6.037 -33.8410  0.00  0.00     0.000 C
ATOM     41  C5  GU6 D   3      19.762   7.310 -34.1980  0.00  0.00     0.000 C
ATOM     42  O5  GU6 D   3      18.402   7.076 -34.5790  0.00  0.00     0.000 O
BRANCH 38 43
ATOM     43   O  GU6 D   3      18.445   3.482 -35.1490  0.00  0.00     0.000 O
ATOM     44   S  GU6 D   3      17.503   3.026 -36.2560  0.00  0.00     0.000 S
ATOM     45   O  GU6 D   3      16.138   3.467 -35.9210  0.00  0.00     0.000 OA
ATOM     46   O  GU6 D   3      17.924   3.655 -37.5210  0.00  0.00     0.000 O
ATOM     47   O  GU6 D   3      17.579   1.573 -36.3700  0.00  0.00     0.000 OA
ENDBRANCH 38 43
BRANCH 39 48
ATOM     48   O  GU6 D   3      21.243   3.959 -35.0790  0.00  0.00     0.000 O
ATOM     49   S  GU6 D   3      22.084   3.735 -36.3350  0.00  0.00     0.000 S
ATOM     50   O  GU6 D   3      22.852   4.945 -36.6520  0.00  0.00     0.000 OA
ATOM     51   O  GU6 D   3      22.971   2.630 -35.9480  0.00  0.00     0.000 OA
ATOM     52   O  GU6 D   3      21.185   3.396 -37.4610  0.00  0.00     0.000 O
ENDBRANCH 39 48
BRANCH 41 53
ATOM     53   C  GU6 D   3      20.182   8.755 -34.1820  0.00  0.00     0.000 C
ATOM     54   O  GU6 D   3      18.953   9.307 -33.7870  0.00  0.00     0.000 O
ATOM     55   S  GU6 D   3      18.770  10.828 -33.7150  0.00  0.00     0.000 S
ATOM     56   O  GU6 D   3      18.872  11.337 -35.1020  0.00  0.00     0.000 O
ATOM     57   O  GU6 D   3      17.442  11.115 -33.1530  0.00  0.00     0.000 OA
ATOM     58   O  GU6 D   3      19.862  11.362 -32.8700  0.00  0.00     0.000 OA
ENDBRANCH 41 53
BRANCH 37 59
ATOM     59  O4  Z9K D   4      17.673   5.544 -33.0180  0.00  0.00     0.000 O
BRANCH 59 63
ATOM     60  C1  Z9K D   4      15.310   5.956 -29.9040  0.00  0.00     0.000 C
ATOM     61  C2  Z9K D   4      14.844   7.140 -30.7940  0.00  0.00     0.000 C
ATOM     62  C3  Z9K D   4      15.669   6.861 -32.1250  0.00  0.00     0.000 C
ATOM     63  C4  Z9K D   4      17.197   6.490 -32.0160  0.00  0.00     0.000 C
ATOM     64  C5  Z9K D   4      17.640   5.829 -30.7030  0.00  0.00     0.000 C
ATOM     65  O5  Z9K D   4      16.462   5.077 -30.3080  0.00  0.00     0.000 O
ATOM     66   O  Z9K D   4      15.618   7.949 -33.0650  0.00  0.00     0.000 O
ATOM     67   C  Z9K D   4      14.490   7.929 -33.9240  0.00  0.00     0.000 C
BRANCH 61 68
ATOM     68   O  Z9K D   4      13.498   6.912 -31.1110  0.00  0.00     0.000 O
ATOM     69   O  Z9K D   4      13.973   9.411 -30.8380  0.00  0.00     0.000 OA
ATOM     70   S  Z9K D   4      13.407   8.255 -30.2110  0.00  0.00     0.000 S
ATOM     71   O  Z9K D   4      13.542   7.902 -28.8310  0.00  0.00     0.000 OA
ATOM     72   O  Z9K D   4      12.052   8.066 -30.6190  0.00  0.00     0.000 OA
ENDBRANCH 61 68
BRANCH 64 73
ATOM     73   C  Z9K D   4      18.973   5.074 -30.8900  0.00  0.00     0.000 C
ATOM     74   O  Z9K D   4      18.998   3.878 -31.2990  0.00  0.00     0.000 O
ATOM     75   O  Z9K D   4      20.079   5.618 -30.6510  0.00  0.00     0.000 OA
ENDBRANCH 64 73
BRANCH 60 76
ATOM     76  O4  Z9L D   5      15.661   5.969 -28.5100  0.00  0.00     0.000 O
BRANCH 76 80
ATOM     77  C1  Z9L D   5      15.842   3.727 -25.2060  0.00  0.00     0.000 C
ATOM     78  C2  Z9L D   5      17.342   4.177 -25.5510  0.00  0.00     0.000 C
ATOM     79  C3  Z9L D   5      17.224   5.468 -26.6380  0.00  0.00     0.000 C
ATOM     80  C4  Z9L D   5      16.026   4.933 -27.6350  0.00  0.00     0.000 C
ATOM     81  C5  Z9L D   5      14.599   4.261 -27.3010  0.00  0.00     0.000 C
ATOM     82  O5  Z9L D   5      14.827   3.344 -26.2200  0.00  0.00     0.000 O
ATOM     83   C  Z9L D   5      13.917   4.428 -23.9040  0.00  0.00     0.000 C
ATOM     84   C  Z9L D   5      13.917   4.428 -23.9040  0.00  0.00     0.000 C
BRANCH 78 85
ATOM     85   O  Z9L D   5      17.940   4.624 -24.3760  0.00  0.00     0.000 O
ATOM     86   O  Z9L D   5      19.457   3.798 -23.5230  0.00  0.00     0.000 OA
ATOM     87   S  Z9L D   5      18.918   3.419 -24.7940  0.00  0.00     0.000 S
ATOM     88   O  Z9L D   5      19.926   3.795 -25.7550  0.00  0.00     0.000 OA
ATOM     89   O  Z9L D   5      18.415   2.101 -24.6100  0.00  0.00     0.000 OA
ENDBRANCH 78 85
BRANCH 79 90
ATOM     90   O  Z9L D   5      18.326   5.517 -27.4880  0.00  0.00     0.000 O
ATOM     91   S  Z9L D   5      18.418   6.972 -26.8470  0.00  0.00     0.000 S
ATOM     92   O  Z9L D   5      18.496   7.184 -25.4250  0.00  0.00     0.000 OA
ATOM     93   O  Z9L D   5      17.738   7.914 -27.7010  0.00  0.00     0.000 O
ATOM     94   O  Z9L D   5      19.755   6.854 -27.3310  0.00  0.00     0.000 OA
ENDBRANCH 79 90
BRANCH 81 95
ATOM     95   C  Z9L D   5      13.667   3.751 -28.5990  0.00  0.00     0.000 C
ATOM     96   S  Z9L D   5      11.823   3.291 -29.1950  0.00  0.00     0.000 S
ATOM     97   O  Z9L D   5      12.655   3.107 -27.8710  0.00  0.00     0.000 O
ATOM     98   O  Z9L D   5      12.358   2.359 -30.1540  0.00  0.00     0.000 OA
ATOM     99   O  Z9L D   5      11.523   4.636 -29.5570  0.00  0.00     0.000 OA
ATOM    100   O  Z9L D   5      10.828   2.611 -28.4040  0.00  0.00     0.000 O
ENDBRANCH 81 95
ENDBRANCH 76 80
ENDBRANCH 60 76
ENDBRANCH 59 63
ENDBRANCH 37 59
ENDBRANCH 36 40
ENDBRANCH 23 36
ENDBRANCH 22 26
ENDBRANCH 1 22
TORSDOF 19
ENDMDL
MODEL 56
REMARK VINA RESULT:      -6.9     30.728     36.735
ROOT
ATOM      1  C1  Z9H D   1       8.242  39.753 -37.0230  0.00  0.00     0.000 C
ATOM      2  C2  Z9H D   1       9.368  39.825 -38.0820  0.00  0.00     0.000 C
ATOM      3  C3  Z9H D   1       8.810  41.017 -38.9190  0.00  0.00     0.000 C
ATOM      4  C4  Z9H D   1       7.293  40.886 -39.3590  0.00  0.00     0.000 C
ATOM      5  C5  Z9H D   1       6.137  40.471 -38.3630  0.00  0.00     0.000 C
ATOM      6  O5  Z9H D   1       6.853  39.620 -37.4320  0.00  0.00     0.000 O
ATOM      7   O  Z9H D   1       9.633  41.295 -40.0530  0.00  0.00     0.000 O
ATOM      8   C  Z9H D   1      10.565  42.376 -39.8870  0.00  0.00     0.000 C
ATOM      9   O  Z9H D   1       6.937  42.158 -39.9110  0.00  0.00     0.000 O
ATOM     10   C  Z9H D   1       6.962  42.240 -41.3390  0.00  0.00     0.000 C
ENDROOT
BRANCH 2 11
ATOM     11   O  Z9H D   1      10.431  40.364 -37.3420  0.00  0.00     0.000 O
ATOM     12   O  Z9H D   1      12.036  39.446 -36.9700  0.00  0.00     0.000 OA
ATOM     13   S  Z9H D   1      10.970  38.929 -37.7590  0.00  0.00     0.000 S
ATOM     14   O  Z9H D   1      11.234  38.939 -39.1700  0.00  0.00     0.000 OA
ATOM     15   O  Z9H D   1      10.283  37.874 -37.0500  0.00  0.00     0.000 O
ENDBRANCH 2 11
BRANCH 5 16
ATOM     16   C  Z9H D   1       4.720  39.963 -39.0940  0.00  0.00     0.000 C
ATOM     17   S  Z9H D   1       2.724  39.862 -38.8850  0.00  0.00     0.000 S
ATOM     18   O  Z9H D   1       3.869  40.956 -38.5740  0.00  0.00     0.000 O
ATOM     19   O  Z9H D   1       2.774  38.687 -38.0630  0.00  0.00     0.000 O
ATOM     20   O  Z9H D   1       2.444  39.827 -40.2780  0.00  0.00     0.000 OA
ATOM     21   O  Z9H D   1       1.913  40.890 -38.3010  0.00  0.00     0.000 OA
ENDBRANCH 5 16
BRANCH 1 22
ATOM     22  O4  GU1 D   2       8.148  40.928 -36.1390  0.00  0.00     0.000 O
BRANCH 22 26
ATOM     23  C1  GU1 D   2       7.507  42.218 -32.2790  0.00  0.00     0.000 C
ATOM     24  C2  GU1 D   2       8.315  40.935 -32.3990  0.00  0.00     0.000 C
ATOM     25  C3  GU1 D   2       8.801  40.783 -33.8110  0.00  0.00     0.000 C
ATOM     26  C4  GU1 D   2       7.647  40.887 -34.7970  0.00  0.00     0.000 C
ATOM     27  C5  GU1 D   2       6.837  42.158 -34.5250  0.00  0.00     0.000 C
ATOM     28  O5  GU1 D   2       6.398  42.188 -33.1700  0.00  0.00     0.000 O
ATOM     29   O  GU1 D   2       9.447  40.937 -31.5370  0.00  0.00     0.000 O
ATOM     30   C  GU1 D   2       9.233  40.263 -30.3050  0.00  0.00     0.000 C
ATOM     31   C  GU1 D   2      10.829  39.492 -33.9370  0.00  0.00     0.000 C
ATOM     32   O  GU1 D   2       9.403  39.492 -33.9460  0.00  0.00     0.000 O
BRANCH 27 33
ATOM     33   C  GU1 D   2       5.615  42.227 -35.4090  0.00  0.00     0.000 C
ATOM     34   O  GU1 D   2       5.533  43.135 -36.2110  0.00  0.00     0.000 OA
ATOM     35   O  GU1 D   2       4.735  41.386 -35.3200  0.00  0.00     0.000 O
ENDBRANCH 27 33
BRANCH 23 36
ATOM     36  O4  GU6 D   3       6.727  42.471 -31.0930  0.00  0.00     0.000 O
BRANCH 36 40
ATOM     37  C1  GU6 D   3       6.309  42.350 -27.0310  0.00  0.00     0.000 C
ATOM     38  C2  GU6 D   3       7.748  42.520 -27.4990  0.00  0.00     0.000 C
ATOM     39  C3  GU6 D   3       7.766  42.824 -28.9750  0.00  0.00     0.000 C
ATOM     40  C4  GU6 D   3       6.507  42.687 -29.7140  0.00  0.00     0.000 C
ATOM     41  C5  GU6 D   3       5.716  41.450 -29.1740  0.00  0.00     0.000 C
ATOM     42  O5  GU6 D   3       5.722  41.278 -27.7520  0.00  0.00     0.000 O
BRANCH 38 43
ATOM     43   O  GU6 D   3       8.385  43.561 -26.7840  0.00  0.00     0.000 O
ATOM     44   S  GU6 D   3       9.574  43.112 -25.9440  0.00  0.00     0.000 S
ATOM     45   O  GU6 D   3       9.069  42.558 -24.6760  0.00  0.00     0.000 OA
ATOM     46   O  GU6 D   3      10.301  42.063 -26.6810  0.00  0.00     0.000 O
ATOM     47   O  GU6 D   3      10.447  44.258 -25.7140  0.00  0.00     0.000 OA
ENDBRANCH 38 43
BRANCH 39 48
ATOM     48   O  GU6 D   3       8.889  43.441 -29.5750  0.00  0.00     0.000 O
ATOM     49   S  GU6 D   3       9.147  44.913 -29.8920  0.00  0.00     0.000 S
ATOM     50   O  GU6 D   3       9.002  45.724 -28.6780  0.00  0.00     0.000 OA
ATOM     51   O  GU6 D   3      10.538  44.913 -30.3670  0.00  0.00     0.000 OA
ATOM     52   O  GU6 D   3       8.179  45.360 -30.9180  0.00  0.00     0.000 O
ENDBRANCH 39 48
BRANCH 41 53
ATOM     53   C  GU6 D   3       4.932  40.419 -29.9390  0.00  0.00     0.000 C
ATOM     54   O  GU6 D   3       5.994  39.547 -30.2280  0.00  0.00     0.000 O
ATOM     55   S  GU6 D   3       5.774  38.322 -31.1250  0.00  0.00     0.000 S
ATOM     56   O  GU6 D   3       5.457  38.834 -32.4780  0.00  0.00     0.000 O
ATOM     57   O  GU6 D   3       7.011  37.528 -31.1450  0.00  0.00     0.000 OA
ATOM     58   O  GU6 D   3       4.633  37.565 -30.5620  0.00  0.00     0.000 OA
ENDBRANCH 41 53
BRANCH 37 59
ATOM     59  O4  Z9K D   4       5.329  43.408 -26.9620  0.00  0.00     0.000 O
BRANCH 59 63
ATOM     60  C1  Z9K D   4       4.126  44.466 -23.3730  0.00  0.00     0.000 C
ATOM     61  C2  Z9K D   4       3.465  43.067 -23.5110  0.00  0.00     0.000 C
ATOM     62  C3  Z9K D   4       4.102  42.567 -24.8800  0.00  0.00     0.000 C
ATOM     63  C4  Z9K D   4       4.158  43.554 -26.1070  0.00  0.00     0.000 C
ATOM     64  C5  Z9K D   4       4.183  45.052 -25.7680  0.00  0.00     0.000 C
ATOM     65  O5  Z9K D   4       4.900  45.084 -24.5050  0.00  0.00     0.000 O
ATOM     66   O  Z9K D   4       3.484  41.373 -25.3930  0.00  0.00     0.000 O
ATOM     67   C  Z9K D   4       4.010  40.167 -24.8650  0.00  0.00     0.000 C
BRANCH 61 68
ATOM     68   O  Z9K D   4       4.006  42.255 -22.5050  0.00  0.00     0.000 O
ATOM     69   O  Z9K D   4       1.590  41.594 -23.0290  0.00  0.00     0.000 OA
ATOM     70   S  Z9K D   4       2.437  42.285 -22.1040  0.00  0.00     0.000 S
ATOM     71   O  Z9K D   4       2.142  43.534 -21.4720  0.00  0.00     0.000 OA
ATOM     72   O  Z9K D   4       2.984  41.383 -21.1420  0.00  0.00     0.000 OA
ENDBRANCH 61 68
BRANCH 64 73
ATOM     73   C  Z9K D   4       4.732  45.874 -26.9530  0.00  0.00     0.000 C
ATOM     74   O  Z9K D   4       4.024  46.100 -27.9770  0.00  0.00     0.000 O
ATOM     75   O  Z9K D   4       5.892  46.354 -26.9440  0.00  0.00     0.000 OA
ENDBRANCH 64 73
BRANCH 60 76
ATOM     76  O4  Z9L D   5       3.521  45.704 -22.9610  0.00  0.00     0.000 O
BRANCH 76 80
ATOM     77  C1  Z9L D   5       4.014  49.033 -20.8050  0.00  0.00     0.000 C
ATOM     78  C2  Z9L D   5       3.985  49.472 -22.3470  0.00  0.00     0.000 C
ATOM     79  C3  Z9L D   5       3.328  48.173 -23.2090  0.00  0.00     0.000 C
ATOM     80  C4  Z9L D   5       4.085  46.900 -22.4880  0.00  0.00     0.000 C
ATOM     81  C5  Z9L D   5       4.324  46.561 -20.9290  0.00  0.00     0.000 C
ATOM     82  O5  Z9L D   5       4.670  47.802 -20.2950  0.00  0.00     0.000 O
ATOM     83   C  Z9L D   5       2.536  48.735 -18.9020  0.00  0.00     0.000 C
ATOM     84   C  Z9L D   5       2.536  48.735 -18.9020  0.00  0.00     0.000 C
BRANCH 78 85
ATOM     85   O  Z9L D   5       3.141  50.572 -22.4670  0.00  0.00     0.000 O
ATOM     86   O  Z9L D   5       3.702  52.350 -22.9520  0.00  0.00     0.000 OA
ATOM     87   S  Z9L D   5       4.543  51.191 -22.9500  0.00  0.00     0.000 S
ATOM     88   O  Z9L D   5       4.840  50.942 -24.3390  0.00  0.00     0.000 OA
ATOM     89   O  Z9L D   5       5.512  51.433 -21.9370  0.00  0.00     0.000 OA
ENDBRANCH 78 85
BRANCH 79 90
ATOM     90   O  Z9L D   5       3.825  48.124 -24.5090  0.00  0.00     0.000 O
ATOM     91   S  Z9L D   5       2.271  48.268 -24.8230  0.00  0.00     0.000 S
ATOM     92   O  Z9L D   5       1.479  49.355 -24.3120  0.00  0.00     0.000 OA
ATOM     93   O  Z9L D   5       1.699  46.958 -25.0110  0.00  0.00     0.000 O
ATOM     94   O  Z9L D   5       2.796  48.683 -26.0840  0.00  0.00     0.000 OA
ENDBRANCH 79 90
BRANCH 81 95
ATOM     95   C  Z9L D   5       5.233  45.199 -20.5690  0.00  0.00     0.000 C
ATOM     96   S  Z9L D   5       5.883  44.018 -19.1030  0.00  0.00     0.000 S
ATOM     97   O  Z9L D   5       5.625  45.562 -19.2730  0.00  0.00     0.000 O
ATOM     98   O  Z9L D   5       7.065  43.709 -19.8660  0.00  0.00     0.000 OA
ATOM     99   O  Z9L D   5       4.728  43.188 -19.1570  0.00  0.00     0.000 OA
ATOM    100   O  Z9L D   5       6.290  44.454 -17.7890  0.00  0.00     0.000 O
ENDBRANCH 81 95
ENDBRANCH 76 80
ENDBRANCH 60 76
ENDBRANCH 59 63
ENDBRANCH 37 59
ENDBRANCH 36 40
ENDBRANCH 23 36
ENDBRANCH 22 26
ENDBRANCH 1 22
TORSDOF 19
ENDMDL
MODEL 57
REMARK VINA RESULT:      -6.9      3.194     13.064
ROOT
ATOM      1  C1  Z9H D   1       2.255  16.600 -53.4940  0.00  0.00     0.000 C
ATOM      2  C2  Z9H D   1       2.304  15.836 -52.1490  0.00  0.00     0.000 C
ATOM      3  C3  Z9H D   1       2.522  17.060 -51.2060  0.00  0.00     0.000 C
ATOM      4  C4  Z9H D   1       3.695  18.039 -51.6240  0.00  0.00     0.000 C
ATOM      5  C5  Z9H D   1       3.886  18.580 -53.0970  0.00  0.00     0.000 C
ATOM      6  O5  Z9H D   1       3.343  17.486 -53.8780  0.00  0.00     0.000 O
ATOM      7   O  Z9H D   1       2.673  16.655 -49.8440  0.00  0.00     0.000 O
ATOM      8   C  Z9H D   1       1.489  16.758 -49.0360  0.00  0.00     0.000 C
ATOM      9   O  Z9H D   1       3.574  19.179 -50.7670  0.00  0.00     0.000 O
ATOM     10   C  Z9H D   1       4.453  19.200 -49.6390  0.00  0.00     0.000 C
ENDROOT
BRANCH 2 11
ATOM     11   O  Z9H D   1       0.961  15.471 -51.9700  0.00  0.00     0.000 O
ATOM     12   O  Z9H D   1       0.326  13.697 -52.0410  0.00  0.00     0.000 OA
ATOM     13   S  Z9H D   1       1.693  14.076 -52.1720  0.00  0.00     0.000 S
ATOM     14   O  Z9H D   1       2.484  13.809 -51.0050  0.00  0.00     0.000 OA
ATOM     15   O  Z9H D   1       2.137  13.898 -53.5350  0.00  0.00     0.000 O
ENDBRANCH 2 11
BRANCH 5 16
ATOM     16   C  Z9H D   1       5.398  19.219 -53.4270  0.00  0.00     0.000 C
ATOM     17   S  Z9H D   1       6.373  20.668 -54.4220  0.00  0.00     0.000 S
ATOM     18   O  Z9H D   1       5.012  20.566 -53.5590  0.00  0.00     0.000 O
ATOM     19   O  Z9H D   1       6.349  19.959 -55.6690  0.00  0.00     0.000 O
ATOM     20   O  Z9H D   1       7.501  20.688 -53.5580  0.00  0.00     0.000 OA
ATOM     21   O  Z9H D   1       5.905  22.016 -54.5620  0.00  0.00     0.000 OA
ENDBRANCH 5 16
BRANCH 1 22
ATOM     22  O4  GU1 D   2       1.104  17.506 -53.6490  0.00  0.00     0.000 O
BRANCH 22 26
ATOM     23  C1  GU1 D   2      -1.595  19.135 -56.3020  0.00  0.00     0.000 C
ATOM     24  C2  GU1 D   2      -1.260  17.671 -56.5480  0.00  0.00     0.000 C
ATOM     25  C3  GU1 D   2      -0.594  17.102 -55.3290  0.00  0.00     0.000 C
ATOM     26  C4  GU1 D   2       0.597  17.953 -54.9130  0.00  0.00     0.000 C
ATOM     27  C5  GU1 D   2       0.178  19.421 -54.7940  0.00  0.00     0.000 C
ATOM     28  O5  GU1 D   2      -0.412  19.870 -56.0110  0.00  0.00     0.000 O
ATOM     29   O  GU1 D   2      -2.423  16.898 -56.8210  0.00  0.00     0.000 O
ATOM     30   C  GU1 D   2      -2.671  16.702 -58.2060  0.00  0.00     0.000 C
ATOM     31   C  GU1 D   2      -0.940  14.728 -55.1340  0.00  0.00     0.000 C
ATOM     32   O  GU1 D   2      -0.129  15.785 -55.6410  0.00  0.00     0.000 O
BRANCH 27 33
ATOM     33   C  GU1 D   2       1.365  20.307 -54.5000  0.00  0.00     0.000 C
ATOM     34   O  GU1 D   2       1.441  20.826 -53.4060  0.00  0.00     0.000 OA
ATOM     35   O  GU1 D   2       2.227  20.489 -55.3450  0.00  0.00     0.000 O
ENDBRANCH 27 33
BRANCH 23 36
ATOM     36  O4  GU6 D   3      -2.014  19.972 -57.3980  0.00  0.00     0.000 O
BRANCH 36 40
ATOM     37  C1  GU6 D   3      -2.549  22.939 -60.1550  0.00  0.00     0.000 C
ATOM     38  C2  GU6 D   3      -3.801  22.609 -59.3510  0.00  0.00     0.000 C
ATOM     39  C3  GU6 D   3      -3.437  21.714 -58.1950  0.00  0.00     0.000 C
ATOM     40  C4  GU6 D   3      -2.080  21.156 -58.1670  0.00  0.00     0.000 C
ATOM     41  C5  GU6 D   3      -1.636  20.786 -59.6210  0.00  0.00     0.000 C
ATOM     42  O5  GU6 D   3      -1.991  21.728 -60.6400  0.00  0.00     0.000 O
BRANCH 38 43
ATOM     43   O  GU6 D   3      -4.411  23.792 -58.8720  0.00  0.00     0.000 O
ATOM     44   S  GU6 D   3      -5.514  24.339 -59.7690  0.00  0.00     0.000 S
ATOM     45   O  GU6 D   3      -4.891  25.110 -60.8590  0.00  0.00     0.000 OA
ATOM     46   O  GU6 D   3      -6.264  23.205 -60.3370  0.00  0.00     0.000 O
ATOM     47   O  GU6 D   3      -6.402  25.174 -58.9660  0.00  0.00     0.000 OA
ENDBRANCH 38 43
BRANCH 39 48
ATOM     48   O  GU6 D   3      -4.283  21.603 -57.0670  0.00  0.00     0.000 O
ATOM     49   S  GU6 D   3      -5.520  20.732 -56.8510  0.00  0.00     0.000 S
ATOM     50   O  GU6 D   3      -5.193  19.322 -57.0920  0.00  0.00     0.000 OA
ATOM     51   O  GU6 D   3      -5.849  20.967 -55.4380  0.00  0.00     0.000 OA
ATOM     52   O  GU6 D   3      -6.585  21.171 -57.7800  0.00  0.00     0.000 O
ENDBRANCH 39 48
BRANCH 41 53
ATOM     53   C  GU6 D   3      -0.872  19.582 -60.1010  0.00  0.00     0.000 C
ATOM     54   O  GU6 D   3      -1.548  19.400 -61.3180  0.00  0.00     0.000 O
ATOM     55   S  GU6 D   3      -1.235  18.190 -62.2080  0.00  0.00     0.000 S
ATOM     56   O  GU6 D   3      -1.673  16.987 -61.4630  0.00  0.00     0.000 O
ATOM     57   O  GU6 D   3      -1.987  18.325 -63.4640  0.00  0.00     0.000 OA
ATOM     58   O  GU6 D   3       0.228  18.175 -62.4310  0.00  0.00     0.000 OA
ENDBRANCH 41 53
BRANCH 37 59
ATOM     59  O4  Z9K D   4      -1.457  23.759 -59.6880  0.00  0.00     0.000 O
BRANCH 59 63
ATOM     60  C1  Z9K D   4       1.028  26.736 -60.3290  0.00  0.00     0.000 C
ATOM     61  C2  Z9K D   4       0.776  26.237 -61.7790  0.00  0.00     0.000 C
ATOM     62  C3  Z9K D   4      -0.367  25.159 -61.5320  0.00  0.00     0.000 C
ATOM     63  C4  Z9K D   4      -0.211  24.133 -60.3450  0.00  0.00     0.000 C
ATOM     64  C5  Z9K D   4       0.657  24.594 -59.1650  0.00  0.00     0.000 C
ATOM     65  O5  Z9K D   4       0.434  26.029 -59.1420  0.00  0.00     0.000 O
ATOM     66   O  Z9K D   4      -0.642  24.347 -62.6880  0.00  0.00     0.000 O
ATOM     67   C  Z9K D   4      -1.568  24.918 -63.5980  0.00  0.00     0.000 C
BRANCH 61 68
ATOM     68   O  Z9K D   4       0.176  27.293 -62.4790  0.00  0.00     0.000 O
ATOM     69   O  Z9K D   4       1.673  25.896 -64.0150  0.00  0.00     0.000 OA
ATOM     70   S  Z9K D   4       1.577  27.118 -63.2730  0.00  0.00     0.000 S
ATOM     71   O  Z9K D   4       2.626  27.714 -62.5040  0.00  0.00     0.000 OA
ATOM     72   O  Z9K D   4       0.915  28.126 -64.0360  0.00  0.00     0.000 OA
ENDBRANCH 61 68
BRANCH 64 73
ATOM     73   C  Z9K D   4       0.340  23.774 -57.8970  0.00  0.00     0.000 C
ATOM     74   O  Z9K D   4       0.859  22.636 -57.7050  0.00  0.00     0.000 O
ATOM     75   O  Z9K D   4      -0.435  24.204 -57.0080  0.00  0.00     0.000 OA
ENDBRANCH 64 73
BRANCH 60 76
ATOM     76  O4  Z9L D   5       2.283  27.009 -59.6830  0.00  0.00     0.000 O
BRANCH 76 80
ATOM     77  C1  Z9L D   5       4.189  29.515 -57.2220  0.00  0.00     0.000 C
ATOM     78  C2  Z9L D   5       4.123  28.092 -56.4850  0.00  0.00     0.000 C
ATOM     79  C3  Z9L D   5       3.749  26.947 -57.6720  0.00  0.00     0.000 C
ATOM     80  C4  Z9L D   5       2.592  27.747 -58.5290  0.00  0.00     0.000 C
ATOM     81  C5  Z9L D   5       2.547  29.262 -59.0820  0.00  0.00     0.000 C
ATOM     82  O5  Z9L D   5       3.090  30.088 -58.0410  0.00  0.00     0.000 O
ATOM     83   C  Z9L D   5       5.624  30.813 -58.6880  0.00  0.00     0.000 C
ATOM     84   C  Z9L D   5       5.624  30.813 -58.6880  0.00  0.00     0.000 C
BRANCH 78 85
ATOM     85   O  Z9L D   5       5.385  27.816 -55.9660  0.00  0.00     0.000 O
ATOM     86   O  Z9L D   5       5.834  27.812 -54.0930  0.00  0.00     0.000 OA
ATOM     87   S  Z9L D   5       4.514  27.971 -54.6240  0.00  0.00     0.000 S
ATOM     88   O  Z9L D   5       3.812  26.770 -54.2450  0.00  0.00     0.000 OA
ATOM     89   O  Z9L D   5       4.125  29.292 -54.2700  0.00  0.00     0.000 OA
ENDBRANCH 78 85
BRANCH 79 90
ATOM     90   O  Z9L D   5       3.042  25.874 -57.1370  0.00  0.00     0.000 O
ATOM     91   S  Z9L D   5       4.309  25.099 -57.7100  0.00  0.00     0.000 S
ATOM     92   O  Z9L D   5       5.656  25.437 -57.3310  0.00  0.00     0.000 OA
ATOM     93   O  Z9L D   5       4.012  24.612 -59.0350  0.00  0.00     0.000 O
ATOM     94   O  Z9L D   5       3.843  24.117 -56.7860  0.00  0.00     0.000 OA
ENDBRANCH 79 90
BRANCH 81 95
ATOM     95   C  Z9L D   5       1.140  29.760 -59.8460  0.00  0.00     0.000 C
ATOM     96   S  Z9L D   5       0.281  31.238 -60.8680  0.00  0.00     0.000 S
ATOM     97   O  Z9L D   5       1.305  31.143 -59.6760  0.00  0.00     0.000 O
ATOM     98   O  Z9L D   5      -1.006  30.865 -60.3400  0.00  0.00     0.000 OA
ATOM     99   O  Z9L D   5       0.740  30.741 -62.1210  0.00  0.00     0.000 OA
ATOM    100   O  Z9L D   5       0.477  32.648 -60.6350  0.00  0.00     0.000 O
ENDBRANCH 81 95
ENDBRANCH 76 80
ENDBRANCH 60 76
ENDBRANCH 59 63
ENDBRANCH 37 59
ENDBRANCH 36 40
ENDBRANCH 23 36
ENDBRANCH 22 26
ENDBRANCH 1 22
TORSDOF 19
ENDMDL
MODEL 58
REMARK VINA RESULT:      -6.9     17.552     22.677
ROOT
ATOM      1  C1  Z9H D   1      19.750   7.246 -56.0320  0.00  0.00     0.000 C
ATOM      2  C2  Z9H D   1      20.101   8.580 -56.7340  0.00  0.00     0.000 C
ATOM      3  C3  Z9H D   1      18.652   9.138 -56.8840  0.00  0.00     0.000 C
ATOM      4  C4  Z9H D   1      17.602   8.139 -57.5230  0.00  0.00     0.000 C
ATOM      5  C5  Z9H D   1      17.446   6.636 -57.0600  0.00  0.00     0.000 C
ATOM      6  O5  Z9H D   1      18.796   6.326 -56.6310  0.00  0.00     0.000 O
ATOM      7   O  Z9H D   1      18.639  10.386 -57.5810  0.00  0.00     0.000 O
ATOM      8   C  Z9H D   1      18.569  11.556 -56.7480  0.00  0.00     0.000 C
ATOM      9   O  Z9H D   1      16.324   8.765 -57.3650  0.00  0.00     0.000 O
ATOM     10   C  Z9H D   1      15.824   9.448 -58.5190  0.00  0.00     0.000 C
ENDROOT
BRANCH 2 11
ATOM     11   O  Z9H D   1      20.671   9.320 -55.6870  0.00  0.00     0.000 O
ATOM     12   O  Z9H D   1      22.507   9.737 -55.5620  0.00  0.00     0.000 OA
ATOM     13   S  Z9H D   1      21.907   9.029 -56.6420  0.00  0.00     0.000 S
ATOM     14   O  Z9H D   1      21.750   9.813 -57.8340  0.00  0.00     0.000 OA
ATOM     15   O  Z9H D   1      22.292   7.637 -56.6070  0.00  0.00     0.000 O
ENDBRANCH 2 11
BRANCH 5 16
ATOM     16   C  Z9H D   1      16.624   5.646 -58.1300  0.00  0.00     0.000 C
ATOM     17   S  Z9H D   1      15.258   4.179 -58.2710  0.00  0.00     0.000 S
ATOM     18   O  Z9H D   1      15.426   5.527 -57.4000  0.00  0.00     0.000 O
ATOM     19   O  Z9H D   1      16.200   3.141 -57.9650  0.00  0.00     0.000 O
ATOM     20   O  Z9H D   1      14.853   4.498 -59.5960  0.00  0.00     0.000 OA
ATOM     21   O  Z9H D   1      14.077   4.085 -57.4640  0.00  0.00     0.000 OA
ENDBRANCH 5 16
BRANCH 1 22
ATOM     22  O4  GU1 D   2      19.174   7.389 -54.6830  0.00  0.00     0.000 O
BRANCH 22 26
ATOM     23  C1  GU1 D   2      18.604   5.483 -51.0760  0.00  0.00     0.000 C
ATOM     24  C2  GU1 D   2      19.860   5.069 -51.8270  0.00  0.00     0.000 C
ATOM     25  C3  GU1 D   2      20.154   6.077 -52.8990  0.00  0.00     0.000 C
ATOM     26  C4  GU1 D   2      18.939   6.295 -53.7890  0.00  0.00     0.000 C
ATOM     27  C5  GU1 D   2      17.709   6.603 -52.9310  0.00  0.00     0.000 C
ATOM     28  O5  GU1 D   2      17.500   5.572 -51.9700  0.00  0.00     0.000 O
ATOM     29   O  GU1 D   2      20.992   4.990 -50.9680  0.00  0.00     0.000 O
ATOM     30   C  GU1 D   2      21.270   3.677 -50.5020  0.00  0.00     0.000 C
ATOM     31   C  GU1 D   2      22.498   6.170 -53.4360  0.00  0.00     0.000 C
ATOM     32   O  GU1 D   2      21.228   5.581 -53.7040  0.00  0.00     0.000 O
BRANCH 27 33
ATOM     33   C  GU1 D   2      16.463   6.705 -53.7780  0.00  0.00     0.000 C
ATOM     34   O  GU1 D   2      15.912   5.679 -54.1210  0.00  0.00     0.000 OA
ATOM     35   O  GU1 D   2      16.021   7.796 -54.1040  0.00  0.00     0.000 O
ENDBRANCH 27 33
BRANCH 23 36
ATOM     36  O4  GU6 D   3      17.972   4.562 -50.1650  0.00  0.00     0.000 O
BRANCH 36 40
ATOM     37  C1  GU6 D   3      15.554   1.550 -48.8330  0.00  0.00     0.000 C
ATOM     38  C2  GU6 D   3      16.481   2.118 -47.7640  0.00  0.00     0.000 C
ATOM     39  C3  GU6 D   3      17.122   3.382 -48.2730  0.00  0.00     0.000 C
ATOM     40  C4  GU6 D   3      16.946   3.712 -49.6910  0.00  0.00     0.000 C
ATOM     41  C5  GU6 D   3      17.003   2.402 -50.5440  0.00  0.00     0.000 C
ATOM     42  O5  GU6 D   3      16.321   1.269 -49.9930  0.00  0.00     0.000 O
BRANCH 38 43
ATOM     43   O  GU6 D   3      15.763   2.384 -46.5750  0.00  0.00     0.000 O
ATOM     44   S  GU6 D   3      16.271   1.631 -45.3520  0.00  0.00     0.000 S
ATOM     45   O  GU6 D   3      15.712   0.269 -45.3750  0.00  0.00     0.000 OA
ATOM     46   O  GU6 D   3      17.742   1.558 -45.4210  0.00  0.00     0.000 O
ATOM     47   O  GU6 D   3      15.862   2.354 -44.1510  0.00  0.00     0.000 OA
ENDBRANCH 38 43
BRANCH 39 48
ATOM     48   O  GU6 D   3      17.669   4.330 -47.3770  0.00  0.00     0.000 O
ATOM     49   S  GU6 D   3      17.066   5.621 -46.8250  0.00  0.00     0.000 S
ATOM     50   O  GU6 D   3      15.777   5.343 -46.1810  0.00  0.00     0.000 OA
ATOM     51   O  GU6 D   3      18.066   6.063 -45.8430  0.00  0.00     0.000 OA
ATOM     52   O  GU6 D   3      16.879   6.577 -47.9390  0.00  0.00     0.000 O
ENDBRANCH 39 48
BRANCH 41 53
ATOM     53   C  GU6 D   3      17.663   2.166 -51.8760  0.00  0.00     0.000 C
ATOM     54   O  GU6 D   3      16.540   2.391 -52.6880  0.00  0.00     0.000 O
ATOM     55   S  GU6 D   3      16.618   2.167 -54.2040  0.00  0.00     0.000 S
ATOM     56   O  GU6 D   3      16.826   0.715 -54.4110  0.00  0.00     0.000 O
ATOM     57   O  GU6 D   3      15.350   2.601 -54.8080  0.00  0.00     0.000 OA
ATOM     58   O  GU6 D   3      17.772   2.946 -54.7040  0.00  0.00     0.000 OA
ENDBRANCH 41 53
BRANCH 37 59
ATOM     59  O4  Z9K D   4      14.321   2.159 -49.2690  0.00  0.00     0.000 O
BRANCH 59 63
ATOM     60  C1  Z9K D   4      10.619   3.467 -49.4440  0.00  0.00     0.000 C
ATOM     61  C2  Z9K D   4      10.738   3.100 -47.9390  0.00  0.00     0.000 C
ATOM     62  C3  Z9K D   4      12.285   2.747 -47.8360  0.00  0.00     0.000 C
ATOM     63  C4  Z9K D   4      12.939   1.832 -48.9400  0.00  0.00     0.000 C
ATOM     64  C5  Z9K D   4      12.261   1.848 -50.3180  0.00  0.00     0.000 C
ATOM     65  O5  Z9K D   4      11.743   3.202 -50.4070  0.00  0.00     0.000 O
ATOM     66   O  Z9K D   4      12.646   2.134 -46.5860  0.00  0.00     0.000 O
ATOM     67   C  Z9K D   4      12.926   3.052 -45.5420  0.00  0.00     0.000 C
BRANCH 61 68
ATOM     68   O  Z9K D   4      10.554   4.283 -47.2110  0.00  0.00     0.000 O
ATOM     69   O  Z9K D   4       9.659   2.258 -45.9280  0.00  0.00     0.000 OA
ATOM     70   S  Z9K D   4       9.293   3.391 -46.7240  0.00  0.00     0.000 S
ATOM     71   O  Z9K D   4       8.289   3.408 -47.7430  0.00  0.00     0.000 OA
ATOM     72   O  Z9K D   4       9.171   4.562 -45.9170  0.00  0.00     0.000 OA
ENDBRANCH 61 68
BRANCH 64 73
ATOM     73   C  Z9K D   4      13.229   1.350 -51.4120  0.00  0.00     0.000 C
ATOM     74   O  Z9K D   4      13.592   0.139 -51.4650  0.00  0.00     0.000 O
ATOM     75   O  Z9K D   4      13.685   2.121 -52.2920  0.00  0.00     0.000 OA
ENDBRANCH 64 73
BRANCH 60 76
ATOM     76  O4  Z9L D   5       9.584   3.104 -50.3740  0.00  0.00     0.000 O
BRANCH 76 80
ATOM     77  C1  Z9L D   5       7.817   4.217 -53.7820  0.00  0.00     0.000 C
ATOM     78  C2  Z9L D   5       8.425   2.753 -54.0240  0.00  0.00     0.000 C
ATOM     79  C3  Z9L D   5       8.753   2.104 -52.4970  0.00  0.00     0.000 C
ATOM     80  C4  Z9L D   5       9.411   3.408 -51.7340  0.00  0.00     0.000 C
ATOM     81  C5  Z9L D   5       8.930   4.946 -51.6720  0.00  0.00     0.000 C
ATOM     82  O5  Z9L D   5       8.487   5.284 -52.9950  0.00  0.00     0.000 O
ATOM     83   C  Z9L D   5       5.774   5.312 -53.0630  0.00  0.00     0.000 C
ATOM     84   C  Z9L D   5       5.774   5.312 -53.0630  0.00  0.00     0.000 C
BRANCH 78 85
ATOM     85   O  Z9L D   5       7.452   1.979 -54.6500  0.00  0.00     0.000 O
ATOM     86   O  Z9L D   5       7.522   1.377 -56.4780  0.00  0.00     0.000 OA
ATOM     87   S  Z9L D   5       8.576   2.064 -55.7950  0.00  0.00     0.000 S
ATOM     88   O  Z9L D   5       9.628   1.089 -55.6520  0.00  0.00     0.000 OA
ATOM     89   O  Z9L D   5       8.704   3.313 -56.4650  0.00  0.00     0.000 OA
ENDBRANCH 78 85
BRANCH 79 90
ATOM     90   O  Z9L D   5       9.820   1.211 -52.5440  0.00  0.00     0.000 O
ATOM     91   S  Z9L D   5       8.713   0.269 -51.8940  0.00  0.00     0.000 S
ATOM     92   O  Z9L D   5       7.441   0.028 -52.5230  0.00  0.00     0.000 OA
ATOM     93   O  Z9L D   5       8.834   0.312 -50.4580  0.00  0.00     0.000 O
ATOM     94   O  Z9L D   5       9.614  -0.733 -52.3630  0.00  0.00     0.000 OA
ENDBRANCH 79 90
BRANCH 81 95
ATOM     95   C  Z9L D   5       9.920   6.029 -50.8600  0.00  0.00     0.000 C
ATOM     96   S  Z9L D   5      11.170   7.564 -51.0740  0.00  0.00     0.000 S
ATOM     97   O  Z9L D   5      10.845   6.257 -51.8890  0.00  0.00     0.000 O
ATOM     98   O  Z9L D   5      11.891   7.150 -49.8970  0.00  0.00     0.000 OA
ATOM     99   O  Z9L D   5      10.122   8.526 -51.0000  0.00  0.00     0.000 OA
ATOM    100   O  Z9L D   5      12.115   7.738 -52.1500  0.00  0.00     0.000 O
ENDBRANCH 81 95
ENDBRANCH 76 80
ENDBRANCH 60 76
ENDBRANCH 59 63
ENDBRANCH 37 59
ENDBRANCH 36 40
ENDBRANCH 23 36
ENDBRANCH 22 26
ENDBRANCH 1 22
TORSDOF 19
ENDMDL
MODEL 59
REMARK VINA RESULT:      -6.9      9.349     16.083
ROOT
ATOM      1  C1  Z9H D   1       6.956  34.650 -56.5480  0.00  0.00     0.000 C
ATOM      2  C2  Z9H D   1       8.397  35.133 -56.2590  0.00  0.00     0.000 C
ATOM      3  C3  Z9H D   1       9.155  34.147 -57.2000  0.00  0.00     0.000 C
ATOM      4  C4  Z9H D   1       8.765  32.619 -57.0390  0.00  0.00     0.000 C
ATOM      5  C5  Z9H D   1       7.270  32.110 -56.9810  0.00  0.00     0.000 C
ATOM      6  O5  Z9H D   1       6.601  33.249 -56.3840  0.00  0.00     0.000 O
ATOM      7   O  Z9H D   1      10.571  34.312 -57.1050  0.00  0.00     0.000 O
ATOM      8   C  Z9H D   1      11.168  35.116 -58.1370  0.00  0.00     0.000 C
ATOM      9   O  Z9H D   1       9.402  31.939 -58.1250  0.00  0.00     0.000 O
ATOM     10   C  Z9H D   1      10.631  31.280 -57.8050  0.00  0.00     0.000 C
ENDROOT
BRANCH 2 11
ATOM     11   O  Z9H D   1       8.430  36.370 -56.9220  0.00  0.00     0.000 O
ATOM     12   O  Z9H D   1       8.552  38.037 -56.0490  0.00  0.00     0.000 OA
ATOM     13   S  Z9H D   1       8.566  36.774 -55.3920  0.00  0.00     0.000 S
ATOM     14   O  Z9H D   1       9.866  36.373 -54.9340  0.00  0.00     0.000 OA
ATOM     15   O  Z9H D   1       7.331  36.566 -54.6720  0.00  0.00     0.000 O
ENDBRANCH 2 11
BRANCH 5 16
ATOM     16   C  Z9H D   1       7.071  30.565 -56.3710  0.00  0.00     0.000 C
ATOM     17   S  Z9H D   1       5.723  29.121 -55.9990  0.00  0.00     0.000 S
ATOM     18   O  Z9H D   1       6.000  30.170 -57.1950  0.00  0.00     0.000 O
ATOM     19   O  Z9H D   1       5.286  29.713 -54.7670  0.00  0.00     0.000 O
ATOM     20   O  Z9H D   1       6.653  28.048 -56.0620  0.00  0.00     0.000 OA
ATOM     21   O  Z9H D   1       4.621  28.795 -56.8570  0.00  0.00     0.000 OA
ENDBRANCH 5 16
BRANCH 1 22
ATOM     22  O4  GU1 D   2       6.489  34.885 -57.9250  0.00  0.00     0.000 O
BRANCH 22 26
ATOM     23  C1  GU1 D   2       3.219  35.791 -60.2620  0.00  0.00     0.000 C
ATOM     24  C2  GU1 D   2       3.225  36.445 -58.8880  0.00  0.00     0.000 C
ATOM     25  C3  GU1 D   2       4.604  36.358 -58.3020  0.00  0.00     0.000 C
ATOM     26  C4  GU1 D   2       5.110  34.923 -58.3110  0.00  0.00     0.000 C
ATOM     27  C5  GU1 D   2       4.965  34.325 -59.7140  0.00  0.00     0.000 C
ATOM     28  O5  GU1 D   2       3.616  34.428 -60.1630  0.00  0.00     0.000 O
ATOM     29   O  GU1 D   2       2.853  37.816 -58.9510  0.00  0.00     0.000 O
ATOM     30   C  GU1 D   2       1.483  38.055 -58.6620  0.00  0.00     0.000 C
ATOM     31   C  GU1 D   2       5.037  38.138 -56.7410  0.00  0.00     0.000 C
ATOM     32   O  GU1 D   2       4.548  36.815 -56.9470  0.00  0.00     0.000 O
BRANCH 27 33
ATOM     33   C  GU1 D   2       5.346  32.864 -59.7270  0.00  0.00     0.000 C
ATOM     34   O  GU1 D   2       6.433  32.555 -60.1710  0.00  0.00     0.000 OA
ATOM     35   O  GU1 D   2       4.578  32.018 -59.2970  0.00  0.00     0.000 O
ENDBRANCH 27 33
BRANCH 23 36
ATOM     36  O4  GU6 D   3       1.969  35.524 -60.9280  0.00  0.00     0.000 O
BRANCH 36 40
ATOM     37  C1  GU6 D   3      -1.341  33.791 -62.5810  0.00  0.00     0.000 C
ATOM     38  C2  GU6 D   3      -0.766  34.937 -63.4050  0.00  0.00     0.000 C
ATOM     39  C3  GU6 D   3       0.585  35.321 -62.8610  0.00  0.00     0.000 C
ATOM     40  C4  GU6 D   3       0.997  34.734 -61.5820  0.00  0.00     0.000 C
ATOM     41  C5  GU6 D   3      -0.239  34.641 -60.6270  0.00  0.00     0.000 C
ATOM     42  O5  GU6 D   3      -1.466  34.220 -61.2340  0.00  0.00     0.000 O
BRANCH 38 43
ATOM     43   O  GU6 D   3      -0.652  34.564 -64.7640  0.00  0.00     0.000 O
ATOM     44   S  GU6 D   3      -1.413  35.464 -65.7300  0.00  0.00     0.000 S
ATOM     45   O  GU6 D   3      -2.826  35.048 -65.7420  0.00  0.00     0.000 OA
ATOM     46   O  GU6 D   3      -1.315  36.855 -65.2520  0.00  0.00     0.000 O
ATOM     47   O  GU6 D   3      -0.812  35.346 -67.0550  0.00  0.00     0.000 OA
ENDBRANCH 38 43
BRANCH 39 48
ATOM     48   O  GU6 D   3       1.514  36.030 -63.6590  0.00  0.00     0.000 O
ATOM     49   S  GU6 D   3       2.690  35.514 -64.4880  0.00  0.00     0.000 S
ATOM     50   O  GU6 D   3       2.230  34.494 -65.4380  0.00  0.00     0.000 OA
ATOM     51   O  GU6 D   3       3.157  36.718 -65.1870  0.00  0.00     0.000 OA
ATOM     52   O  GU6 D   3       3.703  34.937 -63.5770  0.00  0.00     0.000 O
ENDBRANCH 39 48
BRANCH 41 53
ATOM     53   C  GU6 D   3      -0.319  34.917 -59.1500  0.00  0.00     0.000 C
ATOM     54   O  GU6 D   3       0.665  34.006 -58.7320  0.00  0.00     0.000 O
ATOM     55   S  GU6 D   3       0.934  33.782 -57.2380  0.00  0.00     0.000 S
ATOM     56   O  GU6 D   3      -0.284  33.155 -56.6750  0.00  0.00     0.000 O
ATOM     57   O  GU6 D   3       2.091  32.885 -57.1000  0.00  0.00     0.000 OA
ATOM     58   O  GU6 D   3       1.179  35.109 -56.6320  0.00  0.00     0.000 OA
ENDBRANCH 41 53
BRANCH 37 59
ATOM     59  O4  Z9K D   4      -0.819  32.446 -62.5560  0.00  0.00     0.000 O
BRANCH 59 63
ATOM     60  C1  Z9K D   4      -0.548  28.691 -63.6850  0.00  0.00     0.000 C
ATOM     61  C2  Z9K D   4      -1.923  29.088 -64.2880  0.00  0.00     0.000 C
ATOM     62  C3  Z9K D   4      -1.944  30.649 -63.9900  0.00  0.00     0.000 C
ATOM     63  C4  Z9K D   4      -1.514  31.164 -62.5630  0.00  0.00     0.000 C
ATOM     64  C5  Z9K D   4      -0.546  30.261 -61.7840  0.00  0.00     0.000 C
ATOM     65  O5  Z9K D   4       0.243  29.649 -62.8380  0.00  0.00     0.000 O
ATOM     66   O  Z9K D   4      -3.225  31.258 -64.2310  0.00  0.00     0.000 O
ATOM     67   C  Z9K D   4      -3.443  31.651 -65.5760  0.00  0.00     0.000 C
BRANCH 61 68
ATOM     68   O  Z9K D   4      -1.816  28.954 -65.6790  0.00  0.00     0.000 O
ATOM     69   O  Z9K D   4      -4.197  28.459 -64.8820  0.00  0.00     0.000 OA
ATOM     70   S  Z9K D   4      -2.969  27.872 -65.3270  0.00  0.00     0.000 S
ATOM     71   O  Z9K D   4      -2.357  26.700 -64.7800  0.00  0.00     0.000 OA
ATOM     72   O  Z9K D   4      -2.918  27.814 -66.7520  0.00  0.00     0.000 OA
ENDBRANCH 61 68
BRANCH 64 73
ATOM     73   C  Z9K D   4       0.181  31.059 -60.6800  0.00  0.00     0.000 C
ATOM     74   O  Z9K D   4      -0.394  31.341 -59.5890  0.00  0.00     0.000 O
ATOM     75   O  Z9K D   4       1.365  31.451 -60.8190  0.00  0.00     0.000 OA
ENDBRANCH 64 73
BRANCH 60 76
ATOM     76  O4  Z9L D   5      -0.219  27.538 -62.8890  0.00  0.00     0.000 O
BRANCH 76 80
ATOM     77  C1  Z9L D   5       2.362  24.525 -62.4130  0.00  0.00     0.000 C
ATOM     78  C2  Z9L D   5       2.533  25.495 -61.1470  0.00  0.00     0.000 C
ATOM     79  C3  Z9L D   5       1.164  26.487 -61.1070  0.00  0.00     0.000 C
ATOM     80  C4  Z9L D   5       0.993  26.854 -62.7040  0.00  0.00     0.000 C
ATOM     81  C5  Z9L D   5       1.049  25.915 -64.0130  0.00  0.00     0.000 C
ATOM     82  O5  Z9L D   5       2.128  24.992 -63.8030  0.00  0.00     0.000 O
ATOM     83   C  Z9L D   5       1.125  22.563 -63.1280  0.00  0.00     0.000 C
ATOM     84   C  Z9L D   5       1.125  22.563 -63.1280  0.00  0.00     0.000 C
BRANCH 78 85
ATOM     85   O  Z9L D   5       2.560  24.707 -60.0000  0.00  0.00     0.000 O
ATOM     86   O  Z9L D   5       4.102  24.438 -58.8780  0.00  0.00     0.000 OA
ATOM     87   S  Z9L D   5       4.035  25.343 -59.9840  0.00  0.00     0.000 S
ATOM     88   O  Z9L D   5       4.095  26.658 -59.3950  0.00  0.00     0.000 OA
ATOM     89   O  Z9L D   5       4.955  24.833 -60.9410  0.00  0.00     0.000 OA
ENDBRANCH 78 85
BRANCH 79 90
ATOM     90   O  Z9L D   5       1.452  27.726 -60.5400  0.00  0.00     0.000 O
ATOM     91   S  Z9L D   5       0.343  27.216 -59.5170  0.00  0.00     0.000 S
ATOM     92   O  Z9L D   5       0.463  25.968 -58.8110  0.00  0.00     0.000 OA
ATOM     93   O  Z9L D   5      -0.946  27.719 -59.9210  0.00  0.00     0.000 O
ATOM     94   O  Z9L D   5       0.953  28.220 -58.7070  0.00  0.00     0.000 OA
ENDBRANCH 79 90
BRANCH 81 95
ATOM     95   C  Z9L D   5       0.921  26.669 -65.5060  0.00  0.00     0.000 C
ATOM     96   S  Z9L D   5       1.880  27.096 -67.1990  0.00  0.00     0.000 S
ATOM     97   O  Z9L D   5       2.276  26.990 -65.6790  0.00  0.00     0.000 O
ATOM     98   O  Z9L D   5       1.104  28.302 -67.3420  0.00  0.00     0.000 OA
ATOM     99   O  Z9L D   5       1.480  25.879 -67.8210  0.00  0.00     0.000 OA
ATOM    100   O  Z9L D   5       3.276  27.438 -67.3130  0.00  0.00     0.000 O
ENDBRANCH 81 95
ENDBRANCH 76 80
ENDBRANCH 60 76
ENDBRANCH 59 63
ENDBRANCH 37 59
ENDBRANCH 36 40
ENDBRANCH 23 36
ENDBRANCH 22 26
ENDBRANCH 1 22
TORSDOF 19
ENDMDL
MODEL 60
REMARK VINA RESULT:      -6.9      2.379     13.696
ROOT
ATOM      1  C1  Z9H D   1       0.756  13.886 -50.9190  0.00  0.00     0.000 C
ATOM      2  C2  Z9H D   1       0.525  12.357 -50.9810  0.00  0.00     0.000 C
ATOM      3  C3  Z9H D   1      -0.953  12.377 -51.4780  0.00  0.00     0.000 C
ATOM      4  C4  Z9H D   1      -1.935  13.311 -50.6560  0.00  0.00     0.000 C
ATOM      5  C5  Z9H D   1      -1.584  14.802 -50.2660  0.00  0.00     0.000 C
ATOM      6  O5  Z9H D   1      -0.140  14.737 -50.1510  0.00  0.00     0.000 O
ATOM      7   O  Z9H D   1      -1.492  11.057 -51.5790  0.00  0.00     0.000 O
ATOM      8   C  Z9H D   1      -1.481  10.487 -52.8980  0.00  0.00     0.000 C
ATOM      9   O  Z9H D   1      -3.155  13.345 -51.4030  0.00  0.00     0.000 O
ATOM     10   C  Z9H D   1      -4.189  12.472 -50.9380  0.00  0.00     0.000 C
ENDROOT
BRANCH 2 11
ATOM     11   O  Z9H D   1       1.284  11.992 -52.1040  0.00  0.00     0.000 O
ATOM     12   O  Z9H D   1       2.833  10.919 -52.0320  0.00  0.00     0.000 OA
ATOM     13   S  Z9H D   1       2.027  11.257 -50.9070  0.00  0.00     0.000 S
ATOM     14   O  Z9H D   1       1.191  10.184 -50.4490  0.00  0.00     0.000 OA
ATOM     15   O  Z9H D   1       2.721  12.194 -50.0540  0.00  0.00     0.000 O
ENDBRANCH 2 11
BRANCH 5 16
ATOM     16   C  Z9H D   1      -2.526  15.456 -49.0470  0.00  0.00     0.000 C
ATOM     17   S  Z9H D   1      -2.615  15.816 -47.0720  0.00  0.00     0.000 S
ATOM     18   O  Z9H D   1      -1.481  15.905 -48.2180  0.00  0.00     0.000 O
ATOM     19   O  Z9H D   1      -3.045  14.485 -46.7520  0.00  0.00     0.000 O
ATOM     20   O  Z9H D   1      -3.505  16.919 -47.1760  0.00  0.00     0.000 OA
ATOM     21   O  Z9H D   1      -1.501  16.227 -46.2680  0.00  0.00     0.000 OA
ENDBRANCH 5 16
BRANCH 1 22
ATOM     22  O4  GU1 D   2       0.722  14.571 -52.2240  0.00  0.00     0.000 O
BRANCH 22 26
ATOM     23  C1  GU1 D   2       2.378  17.856 -54.0760  0.00  0.00     0.000 C
ATOM     24  C2  GU1 D   2       2.956  17.536 -52.7060  0.00  0.00     0.000 C
ATOM     25  C3  GU1 D   2       2.564  16.140 -52.3150  0.00  0.00     0.000 C
ATOM     26  C4  GU1 D   2       1.058  15.950 -52.4170  0.00  0.00     0.000 C
ATOM     27  C5  GU1 D   2       0.564  16.398 -53.7960  0.00  0.00     0.000 C
ATOM     28  O5  GU1 D   2       0.960  17.742 -54.0540  0.00  0.00     0.000 O
ATOM     29   O  GU1 D   2       4.376  17.618 -52.6950  0.00  0.00     0.000 O
ATOM     30   C  GU1 D   2       4.876  18.860 -52.2190  0.00  0.00     0.000 C
ATOM     31   C  GU1 D   2       4.148  15.147 -50.8000  0.00  0.00     0.000 C
ATOM     32   O  GU1 D   2       2.962  15.923 -50.9580  0.00  0.00     0.000 O
BRANCH 27 33
ATOM     33   C  GU1 D   2      -0.942  16.334 -53.8840  0.00  0.00     0.000 C
ATOM     34   O  GU1 D   2      -1.443  15.497 -54.6070  0.00  0.00     0.000 OA
ATOM     35   O  GU1 D   2      -1.636  17.105 -53.2390  0.00  0.00     0.000 O
ENDBRANCH 27 33
BRANCH 23 36
ATOM     36  O4  GU6 D   3       2.401  19.210 -54.5700  0.00  0.00     0.000 O
BRANCH 36 40
ATOM     37  C1  GU6 D   3       1.233  23.042 -55.3750  0.00  0.00     0.000 C
ATOM     38  C2  GU6 D   3       2.605  22.683 -55.9330  0.00  0.00     0.000 C
ATOM     39  C3  GU6 D   3       2.821  21.196 -55.8240  0.00  0.00     0.000 C
ATOM     40  C4  GU6 D   3       1.850  20.422 -55.0440  0.00  0.00     0.000 C
ATOM     41  C5  GU6 D   3       1.407  21.249 -53.7920  0.00  0.00     0.000 C
ATOM     42  O5  GU6 D   3       1.181  22.645 -54.0130  0.00  0.00     0.000 O
BRANCH 38 43
ATOM     43   O  GU6 D   3       2.714  23.089 -57.2840  0.00  0.00     0.000 O
ATOM     44   S  GU6 D   3       3.462  24.400 -57.4890  0.00  0.00     0.000 S
ATOM     45   O  GU6 D   3       2.531  25.514 -57.2370  0.00  0.00     0.000 OA
ATOM     46   O  GU6 D   3       4.574  24.463 -56.5240  0.00  0.00     0.000 O
ATOM     47   O  GU6 D   3       3.980  24.438 -58.8530  0.00  0.00     0.000 OA
ENDBRANCH 38 43
BRANCH 39 48
ATOM     48   O  GU6 D   3       3.783  20.541 -56.6290  0.00  0.00     0.000 O
ATOM     49   S  GU6 D   3       5.298  20.437 -56.4580  0.00  0.00     0.000 S
ATOM     50   O  GU6 D   3       5.620  19.886 -55.1370  0.00  0.00     0.000 OA
ATOM     51   O  GU6 D   3       5.690  19.511 -57.5290  0.00  0.00     0.000 OA
ATOM     52   O  GU6 D   3       5.891  21.784 -56.6050  0.00  0.00     0.000 O
ENDBRANCH 39 48
BRANCH 41 53
ATOM     53   C  GU6 D   3       1.169  20.779 -52.3820  0.00  0.00     0.000 C
ATOM     54   O  GU6 D   3       2.094  21.619 -51.7420  0.00  0.00     0.000 O
ATOM     55   S  GU6 D   3       2.358  21.481 -50.2360  0.00  0.00     0.000 S
ATOM     56   O  GU6 D   3       2.994  20.159 -50.0340  0.00  0.00     0.000 O
ATOM     57   O  GU6 D   3       3.262  22.562 -49.8190  0.00  0.00     0.000 OA
ATOM     58   O  GU6 D   3       1.047  21.552 -49.5520  0.00  0.00     0.000 OA
ENDBRANCH 41 53
BRANCH 37 59
ATOM     59  O4  Z9K D   4      -0.027  22.678 -55.9770  0.00  0.00     0.000 O
BRANCH 59 63
ATOM     60  C1  Z9K D   4      -0.471  25.272 -58.8960  0.00  0.00     0.000 C
ATOM     61  C2  Z9K D   4      -1.170  26.015 -57.7250  0.00  0.00     0.000 C
ATOM     62  C3  Z9K D   4      -0.828  25.050 -56.5080  0.00  0.00     0.000 C
ATOM     63  C4  Z9K D   4      -1.002  23.494 -56.6900  0.00  0.00     0.000 C
ATOM     64  C5  Z9K D   4      -0.883  22.965 -58.1280  0.00  0.00     0.000 C
ATOM     65  O5  Z9K D   4       0.072  23.879 -58.7290  0.00  0.00     0.000 O
ATOM     66   O  Z9K D   4      -1.557  25.365 -55.3090  0.00  0.00     0.000 O
ATOM     67   C  Z9K D   4      -0.957  26.367 -54.5040  0.00  0.00     0.000 C
BRANCH 61 68
ATOM     68   O  Z9K D   4      -0.452  27.198 -57.5020  0.00  0.00     0.000 O
ATOM     69   O  Z9K D   4      -2.935  27.505 -56.9610  0.00  0.00     0.000 OA
ATOM     70   S  Z9K D   4      -1.910  27.765 -57.9260  0.00  0.00     0.000 S
ATOM     71   O  Z9K D   4      -2.053  27.665 -59.3460  0.00  0.00     0.000 OA
ATOM     72   O  Z9K D   4      -1.197  28.959 -57.6040  0.00  0.00     0.000 OA
ENDBRANCH 61 68
BRANCH 64 73
ATOM     73   C  Z9K D   4      -0.568  21.454 -58.1330  0.00  0.00     0.000 C
ATOM     74   O  Z9K D   4       0.543  21.017 -58.5530  0.00  0.00     0.000 O
ATOM     75   O  Z9K D   4      -1.394  20.605 -57.7170  0.00  0.00     0.000 OA
ENDBRANCH 64 73
BRANCH 60 76
ATOM     76  O4  Z9L D   5      -0.959  25.044 -60.2290  0.00  0.00     0.000 O
BRANCH 76 80
ATOM     77  C1  Z9L D   5      -0.063  25.164 -64.1220  0.00  0.00     0.000 C
ATOM     78  C2  Z9L D   5      -0.223  23.619 -63.7240  0.00  0.00     0.000 C
ATOM     79  C3  Z9L D   5      -1.035  23.580 -62.2420  0.00  0.00     0.000 C
ATOM     80  C4  Z9L D   5      -0.284  24.806 -61.4370  0.00  0.00     0.000 C
ATOM     81  C5  Z9L D   5       0.092  26.302 -61.9080  0.00  0.00     0.000 C
ATOM     82  O5  Z9L D   5       0.570  26.193 -63.2570  0.00  0.00     0.000 O
ATOM     83   C  Z9L D   5      -1.357  27.033 -64.9740  0.00  0.00     0.000 C
ATOM     84   C  Z9L D   5      -1.357  27.033 -64.9740  0.00  0.00     0.000 C
BRANCH 78 85
ATOM     85   O  Z9L D   5      -1.010  23.003 -64.6920  0.00  0.00     0.000 O
ATOM     86   O  Z9L D   5      -0.392  21.670 -65.9390  0.00  0.00     0.000 OA
ATOM     87   S  Z9L D   5       0.380  22.214 -64.8630  0.00  0.00     0.000 S
ATOM     88   O  Z9L D   5       0.547  21.123 -63.9340  0.00  0.00     0.000 OA
ATOM     89   O  Z9L D   5       1.441  22.927 -65.4860  0.00  0.00     0.000 OA
ENDBRANCH 78 85
BRANCH 79 90
ATOM     90   O  Z9L D   5      -0.675  22.462 -61.4940  0.00  0.00     0.000 O
ATOM     91   S  Z9L D   5      -2.232  22.176 -61.6680  0.00  0.00     0.000 S
ATOM     92   O  Z9L D   5      -2.862  22.104 -62.9600  0.00  0.00     0.000 OA
ATOM     93   O  Z9L D   5      -2.942  22.691 -60.5240  0.00  0.00     0.000 O
ATOM     94   O  Z9L D   5      -1.796  20.859 -61.3360  0.00  0.00     0.000 OA
ENDBRANCH 79 90
BRANCH 81 95
ATOM     95   C  Z9L D   5       0.953  27.255 -60.8300  0.00  0.00     0.000 C
ATOM     96   S  Z9L D   5       2.759  27.949 -60.3570  0.00  0.00     0.000 S
ATOM     97   O  Z9L D   5       2.189  26.600 -60.9360  0.00  0.00     0.000 O
ATOM     98   O  Z9L D   5       2.385  27.995 -58.9670  0.00  0.00     0.000 OA
ATOM     99   O  Z9L D   5       2.624  29.090 -61.1990  0.00  0.00     0.000 OA
ATOM    100   O  Z9L D   5       3.998  27.220 -60.4720  0.00  0.00     0.000 O
ENDBRANCH 81 95
ENDBRANCH 76 80
ENDBRANCH 60 76
ENDBRANCH 59 63
ENDBRANCH 37 59
ENDBRANCH 36 40
ENDBRANCH 23 36
ENDBRANCH 22 26
ENDBRANCH 1 22
TORSDOF 19
ENDMDL
MODEL 61
REMARK VINA RESULT:      -6.9     27.073     33.009
ROOT
ATOM      1  C1  Z9H D   1      26.596   6.973 -38.9740  0.00  0.00     0.000 C
ATOM      2  C2  Z9H D   1      27.811   7.835 -39.3960  0.00  0.00     0.000 C
ATOM      3  C3  Z9H D   1      27.374   8.132 -40.8630  0.00  0.00     0.000 C
ATOM      4  C4  Z9H D   1      26.946   6.866 -41.7140  0.00  0.00     0.000 C
ATOM      5  C5  Z9H D   1      25.954   5.758 -41.1770  0.00  0.00     0.000 C
ATOM      6  O5  Z9H D   1      26.217   5.804 -39.7520  0.00  0.00     0.000 O
ATOM      7   O  Z9H D   1      28.362   8.890 -41.5630  0.00  0.00     0.000 O
ATOM      8   C  Z9H D   1      28.117  10.305 -41.6330  0.00  0.00     0.000 C
ATOM      9   O  Z9H D   1      26.385   7.383 -42.9250  0.00  0.00     0.000 O
ATOM     10   C  Z9H D   1      27.261   7.389 -44.0570  0.00  0.00     0.000 C
ENDROOT
BRANCH 2 11
ATOM     11   O  Z9H D   1      27.579   9.029 -38.6960  0.00  0.00     0.000 O
ATOM     12   O  Z9H D   1      28.694   9.687 -37.3240  0.00  0.00     0.000 OA
ATOM     13   S  Z9H D   1      28.943   8.503 -38.0750  0.00  0.00     0.000 S
ATOM     14   O  Z9H D   1      29.974   8.648 -39.0630  0.00  0.00     0.000 OA
ATOM     15   O  Z9H D   1      28.739   7.333 -37.2520  0.00  0.00     0.000 O
ENDBRANCH 2 11
BRANCH 5 16
ATOM     16   C  Z9H D   1      25.979   4.314 -42.0210  0.00  0.00     0.000 C
ATOM     17   S  Z9H D   1      26.904   3.302 -43.4910  0.00  0.00     0.000 S
ATOM     18   O  Z9H D   1      27.362   4.269 -42.2820  0.00  0.00     0.000 O
ATOM     19   O  Z9H D   1      26.162   3.951 -44.5340  0.00  0.00     0.000 O
ATOM     20   O  Z9H D   1      26.580   2.011 -42.9910  0.00  0.00     0.000 OA
ATOM     21   O  Z9H D   1      28.316   3.333 -43.7380  0.00  0.00     0.000 OA
ENDBRANCH 5 16
BRANCH 1 22
ATOM     22  O4  GU1 D   2      25.312   7.694 -38.9300  0.00  0.00     0.000 O
BRANCH 22 26
ATOM     23  C1  GU1 D   2      21.767   8.179 -36.8890  0.00  0.00     0.000 C
ATOM     24  C2  GU1 D   2      22.990   7.976 -36.0070  0.00  0.00     0.000 C
ATOM     25  C3  GU1 D   2      24.232   8.195 -36.8220  0.00  0.00     0.000 C
ATOM     26  C4  GU1 D   2      24.218   7.336 -38.0770  0.00  0.00     0.000 C
ATOM     27  C5  GU1 D   2      22.903   7.537 -38.8360  0.00  0.00     0.000 C
ATOM     28  O5  GU1 D   2      21.791   7.273 -37.9850  0.00  0.00     0.000 O
ATOM     29   O  GU1 D   2      23.012   8.881 -34.9100  0.00  0.00     0.000 O
ATOM     30   C  GU1 D   2      22.497   8.335 -33.7040  0.00  0.00     0.000 C
ATOM     31   C  GU1 D   2      26.085   8.922 -35.4680  0.00  0.00     0.000 C
ATOM     32   O  GU1 D   2      25.364   7.827 -36.0280  0.00  0.00     0.000 O
BRANCH 27 33
ATOM     33   C  GU1 D   2      22.809   6.608 -40.0230  0.00  0.00     0.000 C
ATOM     34   O  GU1 D   2      22.857   7.087 -41.1370  0.00  0.00     0.000 OA
ATOM     35   O  GU1 D   2      22.691   5.403 -39.8600  0.00  0.00     0.000 O
ENDBRANCH 27 33
BRANCH 23 36
ATOM     36  O4  GU6 D   3      20.463   7.790 -36.4140  0.00  0.00     0.000 O
BRANCH 36 40
ATOM     37  C1  GU6 D   3      17.029   7.296 -34.2550  0.00  0.00     0.000 C
ATOM     38  C2  GU6 D   3      17.479   6.043 -34.9970  0.00  0.00     0.000 C
ATOM     39  C3  GU6 D   3      18.874   6.245 -35.5290  0.00  0.00     0.000 C
ATOM     40  C4  GU6 D   3      19.442   7.596 -35.4560  0.00  0.00     0.000 C
ATOM     41  C5  GU6 D   3      18.325   8.650 -35.7520  0.00  0.00     0.000 C
ATOM     42  O5  GU6 D   3      17.047   8.389 -35.1600  0.00  0.00     0.000 O
BRANCH 38 43
ATOM     43   O  GU6 D   3      17.448   4.919 -34.1390  0.00  0.00     0.000 O
ATOM     44   S  GU6 D   3      16.106   4.199 -34.0950  0.00  0.00     0.000 S
ATOM     45   O  GU6 D   3      15.217   4.921 -33.1680  0.00  0.00     0.000 OA
ATOM     46   O  GU6 D   3      15.520   4.212 -35.4470  0.00  0.00     0.000 O
ATOM     47   O  GU6 D   3      16.325   2.823 -33.6580  0.00  0.00     0.000 OA
ENDBRANCH 38 43
BRANCH 39 48
ATOM     48   O  GU6 D   3      19.689   5.140 -35.8680  0.00  0.00     0.000 O
ATOM     49   S  GU6 D   3      19.602   4.186 -37.0590  0.00  0.00     0.000 S
ATOM     50   O  GU6 D   3      19.623   4.943 -38.3160  0.00  0.00     0.000 OA
ATOM     51   O  GU6 D   3      20.810   3.362 -36.9150  0.00  0.00     0.000 OA
ATOM     52   O  GU6 D   3      18.348   3.406 -36.9580  0.00  0.00     0.000 O
ENDBRANCH 39 48
BRANCH 41 53
ATOM     53   C  GU6 D   3      18.407   9.915 -36.5640  0.00  0.00     0.000 C
ATOM     54   O  GU6 D   3      17.056   9.987 -36.9410  0.00  0.00     0.000 O
ATOM     55   S  GU6 D   3      16.577  11.074 -37.9130  0.00  0.00     0.000 S
ATOM     56   O  GU6 D   3      17.217  10.792 -39.2180  0.00  0.00     0.000 O
ATOM     57   O  GU6 D   3      15.113  10.991 -38.0230  0.00  0.00     0.000 OA
ATOM     58   O  GU6 D   3      17.024  12.376 -37.3700  0.00  0.00     0.000 OA
ENDBRANCH 41 53
BRANCH 37 59
ATOM     59  O4  Z9K D   4      17.583   7.763 -33.0070  0.00  0.00     0.000 O
BRANCH 59 63
ATOM     60  C1  Z9K D   4      15.437   6.710 -29.8870  0.00  0.00     0.000 C
ATOM     61  C2  Z9K D   4      14.574   7.863 -30.4710  0.00  0.00     0.000 C
ATOM     62  C3  Z9K D   4      15.347   8.160 -31.8280  0.00  0.00     0.000 C
ATOM     63  C4  Z9K D   4      16.920   8.264 -31.8100  0.00  0.00     0.000 C
ATOM     64  C5  Z9K D   4      17.634   7.491 -30.6900  0.00  0.00     0.000 C
ATOM     65  O5  Z9K D   4      16.767   6.344 -30.4870  0.00  0.00     0.000 O
ATOM     66   O  Z9K D   4      14.905   9.363 -32.4830  0.00  0.00     0.000 O
ATOM     67   C  Z9K D   4      13.776   9.192 -33.3230  0.00  0.00     0.000 C
BRANCH 61 68
ATOM     68   O  Z9K D   4      13.339   7.309 -30.8340  0.00  0.00     0.000 O
ATOM     69   O  Z9K D   4      13.074   9.734 -30.0600  0.00  0.00     0.000 OA
ATOM     70   S  Z9K D   4      12.908   8.363 -29.6820  0.00  0.00     0.000 S
ATOM     71   O  Z9K D   4      13.216   7.805 -28.4010  0.00  0.00     0.000 OA
ATOM     72   O  Z9K D   4      11.648   7.861 -30.1280  0.00  0.00     0.000 OA
ENDBRANCH 61 68
BRANCH 64 73
ATOM     73   C  Z9K D   4      19.114   7.247 -31.0500  0.00  0.00     0.000 C
ATOM     74   O  Z9K D   4      20.006   8.100 -30.7690  0.00  0.00     0.000 O
ATOM     75   O  Z9K D   4      19.491   6.197 -31.6250  0.00  0.00     0.000 OA
ENDBRANCH 64 73
BRANCH 60 76
ATOM     76  O4  Z9L D   5      15.867   6.515 -28.5290  0.00  0.00     0.000 O
BRANCH 76 80
ATOM     77  C1  Z9L D   5      16.041   3.822 -25.5810  0.00  0.00     0.000 C
ATOM     78  C2  Z9L D   5      17.550   4.249 -25.9170  0.00  0.00     0.000 C
ATOM     79  C3  Z9L D   5      17.462   5.684 -26.8070  0.00  0.00     0.000 C
ATOM     80  C4  Z9L D   5      16.208   5.350 -27.8220  0.00  0.00     0.000 C
ATOM     81  C5  Z9L D   5      14.760   4.703 -27.5310  0.00  0.00     0.000 C
ATOM     82  O5  Z9L D   5      14.976   3.633 -26.5990  0.00  0.00     0.000 O
ATOM     83   C  Z9L D   5      14.195   4.418 -24.1210  0.00  0.00     0.000 C
ATOM     84   C  Z9L D   5      14.195   4.418 -24.1210  0.00  0.00     0.000 C
BRANCH 78 85
ATOM     85   O  Z9L D   5      18.206   4.497 -24.7150  0.00  0.00     0.000 O
ATOM     86   O  Z9L D   5      19.647   3.437 -24.0010  0.00  0.00     0.000 OA
ATOM     87   S  Z9L D   5      19.055   3.261 -25.2920  0.00  0.00     0.000 S
ATOM     88   O  Z9L D   5      20.080   3.647 -26.2300  0.00  0.00     0.000 OA
ATOM     89   O  Z9L D   5      18.428   1.985 -25.2450  0.00  0.00     0.000 OA
ENDBRANCH 78 85
BRANCH 79 90
ATOM     90   O  Z9L D   5      18.537   5.804 -27.6840  0.00  0.00     0.000 O
ATOM     91   S  Z9L D   5      18.732   7.139 -26.8380  0.00  0.00     0.000 S
ATOM     92   O  Z9L D   5      18.867   7.131 -25.4050  0.00  0.00     0.000 OA
ATOM     93   O  Z9L D   5      18.080   8.232 -27.5160  0.00  0.00     0.000 O
ATOM     94   O  Z9L D   5      20.044   7.026 -27.3870  0.00  0.00     0.000 OA
ENDBRANCH 79 90
BRANCH 81 95
ATOM     95   C  Z9L D   5      13.763   4.424 -28.8510  0.00  0.00     0.000 C
ATOM     96   S  Z9L D   5      12.072   3.564 -29.4580  0.00  0.00     0.000 S
ATOM     97   O  Z9L D   5      13.201   3.214 -28.4180  0.00  0.00     0.000 O
ATOM     98   O  Z9L D   5      12.637   3.362 -30.7680  0.00  0.00     0.000 OA
ATOM     99   O  Z9L D   5      11.290   4.716 -29.1590  0.00  0.00     0.000 OA
ATOM    100   O  Z9L D   5      11.551   2.305 -28.9870  0.00  0.00     0.000 O
ENDBRANCH 81 95
ENDBRANCH 76 80
ENDBRANCH 60 76
ENDBRANCH 59 63
ENDBRANCH 37 59
ENDBRANCH 36 40
ENDBRANCH 23 36
ENDBRANCH 22 26
ENDBRANCH 1 22
TORSDOF 19
ENDMDL
MODEL 62
REMARK VINA RESULT:      -6.9     26.741     34.120
ROOT
ATOM      1  C1  Z9H D   1       3.189  42.315 -25.3500  0.00  0.00     0.000 C
ATOM      2  C2  Z9H D   1       2.712  41.627 -24.0490  0.00  0.00     0.000 C
ATOM      3  C3  Z9H D   1       1.468  40.889 -24.6310  0.00  0.00     0.000 C
ATOM      4  C4  Z9H D   1       0.478  41.790 -25.4790  0.00  0.00     0.000 C
ATOM      5  C5  Z9H D   1       0.966  42.784 -26.6070  0.00  0.00     0.000 C
ATOM      6  O5  Z9H D   1       2.280  43.153 -26.1160  0.00  0.00     0.000 O
ATOM      7   O  Z9H D   1       0.751  40.184 -23.6150  0.00  0.00     0.000 O
ATOM      8   C  Z9H D   1       1.036  38.778 -23.5230  0.00  0.00     0.000 C
ATOM      9   O  Z9H D   1      -0.450  40.885 -26.0850  0.00  0.00     0.000 O
ATOM     10   C  Z9H D   1      -1.713  40.762 -25.4250  0.00  0.00     0.000 C
ENDROOT
BRANCH 2 11
ATOM     11   O  Z9H D   1       3.682  40.627 -23.8750  0.00  0.00     0.000 O
ATOM     12   O  Z9H D   1       4.918  40.587 -22.4510  0.00  0.00     0.000 OA
ATOM     13   S  Z9H D   1       3.899  41.568 -22.6130  0.00  0.00     0.000 S
ATOM     14   O  Z9H D   1       2.783  41.398 -21.7270  0.00  0.00     0.000 OA
ATOM     15   O  Z9H D   1       4.477  42.838 -22.9880  0.00  0.00     0.000 O
ENDBRANCH 2 11
BRANCH 5 16
ATOM     16   C  Z9H D   1      -0.151  43.944 -27.0620  0.00  0.00     0.000 C
ATOM     17   S  Z9H D   1      -1.044  44.818 -28.6360  0.00  0.00     0.000 S
ATOM     18   O  Z9H D   1      -0.616  43.315 -28.2310  0.00  0.00     0.000 O
ATOM     19   O  Z9H D   1       0.052  45.710 -28.8840  0.00  0.00     0.000 O
ATOM     20   O  Z9H D   1      -2.217  45.200 -27.9310  0.00  0.00     0.000 OA
ATOM     21   O  Z9H D   1      -1.454  44.129 -29.8250  0.00  0.00     0.000 OA
ENDBRANCH 5 16
BRANCH 1 22
ATOM     22  O4  GU1 D   2       3.655  41.394 -26.4020  0.00  0.00     0.000 O
BRANCH 22 26
ATOM     23  C1  GU1 D   2       6.434  40.962 -29.4120  0.00  0.00     0.000 C
ATOM     24  C2  GU1 D   2       6.834  41.926 -28.3060  0.00  0.00     0.000 C
ATOM     25  C3  GU1 D   2       5.948  41.711 -27.1140  0.00  0.00     0.000 C
ATOM     26  C4  GU1 D   2       4.480  41.786 -27.5060  0.00  0.00     0.000 C
ATOM     27  C5  GU1 D   2       4.206  40.856 -28.6920  0.00  0.00     0.000 C
ATOM     28  O5  GU1 D   2       5.075  41.165 -29.7790  0.00  0.00     0.000 O
ATOM     29   O  GU1 D   2       8.184  41.738 -27.8970  0.00  0.00     0.000 O
ATOM     30   C  GU1 D   2       9.101  42.629 -28.5150  0.00  0.00     0.000 C
ATOM     31   C  GU1 D   2       7.031  42.336 -25.0570  0.00  0.00     0.000 C
ATOM     32   O  GU1 D   2       6.219  42.740 -26.1570  0.00  0.00     0.000 O
BRANCH 27 33
ATOM     33   C  GU1 D   2       2.784  40.999 -29.1810  0.00  0.00     0.000 C
ATOM     34   O  GU1 D   2       2.482  42.004 -29.7920  0.00  0.00     0.000 OA
ATOM     35   O  GU1 D   2       1.963  40.120 -28.9700  0.00  0.00     0.000 O
ENDBRANCH 27 33
BRANCH 23 36
ATOM     36  O4  GU6 D   3       6.964  41.130 -30.7420  0.00  0.00     0.000 O
BRANCH 36 40
ATOM     37  C1  GU6 D   3       7.495  41.917 -34.7160  0.00  0.00     0.000 C
ATOM     38  C2  GU6 D   3       8.246  40.686 -34.2240  0.00  0.00     0.000 C
ATOM     39  C3  GU6 D   3       7.775  40.328 -32.8380  0.00  0.00     0.000 C
ATOM     40  C4  GU6 D   3       6.906  41.286 -32.1450  0.00  0.00     0.000 C
ATOM     41  C5  GU6 D   3       7.373  42.744 -32.4680  0.00  0.00     0.000 C
ATOM     42  O5  GU6 D   3       7.755  42.991 -33.8260  0.00  0.00     0.000 O
BRANCH 38 43
ATOM     43   O  GU6 D   3       8.041  39.594 -35.1000  0.00  0.00     0.000 O
ATOM     44   S  GU6 D   3       9.320  39.004 -35.6790  0.00  0.00     0.000 S
ATOM     45   O  GU6 D   3       9.743  39.832 -36.8210  0.00  0.00     0.000 OA
ATOM     46   O  GU6 D   3      10.365  39.033 -34.6400  0.00  0.00     0.000 O
ATOM     47   O  GU6 D   3       9.059  37.627 -36.0880  0.00  0.00     0.000 OA
ENDBRANCH 38 43
BRANCH 39 48
ATOM     48   O  GU6 D   3       7.968  39.026 -32.3190  0.00  0.00     0.000 O
ATOM     49   S  GU6 D   3       7.010  37.836 -32.2760  0.00  0.00     0.000 S
ATOM     50   O  GU6 D   3       6.525  37.528 -33.6260  0.00  0.00     0.000 OA
ATOM     51   O  GU6 D   3       7.851  36.751 -31.7530  0.00  0.00     0.000 OA
ATOM     52   O  GU6 D   3       5.871  38.169 -31.3920  0.00  0.00     0.000 O
ENDBRANCH 39 48
BRANCH 41 53
ATOM     53   C  GU6 D   3       7.464  43.934 -31.5510  0.00  0.00     0.000 C
ATOM     54   O  GU6 D   3       8.457  44.638 -32.2510  0.00  0.00     0.000 O
ATOM     55   S  GU6 D   3       9.041  45.936 -31.6770  0.00  0.00     0.000 S
ATOM     56   O  GU6 D   3       9.776  45.566 -30.4450  0.00  0.00     0.000 O
ATOM     57   O  GU6 D   3       9.954  46.518 -32.6720  0.00  0.00     0.000 OA
ATOM     58   O  GU6 D   3       7.904  46.831 -31.3700  0.00  0.00     0.000 OA
ENDBRANCH 41 53
BRANCH 37 59
ATOM     59  O4  Z9K D   4       6.089  41.956 -35.0380  0.00  0.00     0.000 O
BRANCH 59 63
ATOM     60  C1  Z9K D   4       3.123  41.581 -37.5890  0.00  0.00     0.000 C
ATOM     61  C2  Z9K D   4       4.300  41.922 -38.5440  0.00  0.00     0.000 C
ATOM     62  C3  Z9K D   4       5.527  41.890 -37.5330  0.00  0.00     0.000 C
ATOM     63  C4  Z9K D   4       5.391  42.610 -36.1370  0.00  0.00     0.000 C
ATOM     64  C5  Z9K D   4       3.964  42.747 -35.5860  0.00  0.00     0.000 C
ATOM     65  O5  Z9K D   4       3.305  41.558 -36.0960  0.00  0.00     0.000 O
ATOM     66   O  Z9K D   4       6.744  42.409 -38.0990  0.00  0.00     0.000 O
ATOM     67   C  Z9K D   4       7.501  41.460 -38.8320  0.00  0.00     0.000 C
BRANCH 61 68
ATOM     68   O  Z9K D   4       4.466  40.824 -39.3990  0.00  0.00     0.000 O
ATOM     69   O  Z9K D   4       5.169  43.004 -40.5420  0.00  0.00     0.000 OA
ATOM     70   S  Z9K D   4       4.136  42.017 -40.4450  0.00  0.00     0.000 S
ATOM     71   O  Z9K D   4       2.729  42.277 -40.4240  0.00  0.00     0.000 OA
ATOM     72   O  Z9K D   4       4.402  40.914 -41.3110  0.00  0.00     0.000 OA
ENDBRANCH 61 68
BRANCH 64 73
ATOM     73   C  Z9K D   4       3.985  42.987 -34.0610  0.00  0.00     0.000 C
ATOM     74   O  Z9K D   4       3.617  42.087 -33.2510  0.00  0.00     0.000 O
ATOM     75   O  Z9K D   4       4.373  44.074 -33.5680  0.00  0.00     0.000 OA
ENDBRANCH 64 73
BRANCH 60 76
ATOM     76  O4  Z9L D   5       1.815  42.176 -37.5350  0.00  0.00     0.000 O
BRANCH 76 80
ATOM     77  C1  Z9L D   5      -2.103  41.397 -37.6610  0.00  0.00     0.000 C
ATOM     78  C2  Z9L D   5      -1.790  41.996 -36.2070  0.00  0.00     0.000 C
ATOM     79  C3  Z9L D   5      -0.274  42.740 -36.3040  0.00  0.00     0.000 C
ATOM     80  C4  Z9L D   5       0.563  41.636 -37.1950  0.00  0.00     0.000 C
ATOM     81  C5  Z9L D   5       0.164  40.849 -38.5440  0.00  0.00     0.000 C
ATOM     82  O5  Z9L D   5      -1.211  40.463 -38.3950  0.00  0.00     0.000 O
ATOM     83   C  Z9L D   5      -2.779  42.103 -39.8830  0.00  0.00     0.000 C
ATOM     84   C  Z9L D   5      -2.779  42.103 -39.8830  0.00  0.00     0.000 C
BRANCH 78 85
ATOM     85   O  Z9L D   5      -2.754  42.958 -35.9190  0.00  0.00     0.000 O
ATOM     86   O  Z9L D   5      -4.261  42.699 -34.7480  0.00  0.00     0.000 OA
ATOM     87   S  Z9L D   5      -3.201  41.758 -34.9480  0.00  0.00     0.000 S
ATOM     88   O  Z9L D   5      -2.487  41.727 -33.6960  0.00  0.00     0.000 OA
ATOM     89   O  Z9L D   5      -3.812  40.634 -35.5700  0.00  0.00     0.000 OA
ENDBRANCH 78 85
BRANCH 79 90
ATOM     90   O  Z9L D   5       0.387  42.706 -35.0800  0.00  0.00     0.000 O
ATOM     91   S  Z9L D   5       0.318  44.281 -35.3010  0.00  0.00     0.000 S
ATOM     92   O  Z9L D   5      -0.924  44.975 -35.5190  0.00  0.00     0.000 OA
ATOM     93   O  Z9L D   5       1.537  44.729 -35.9280  0.00  0.00     0.000 O
ATOM     94   O  Z9L D   5       0.551  44.261 -33.8930  0.00  0.00     0.000 OA
ENDBRANCH 79 90
BRANCH 81 95
ATOM     95   C  Z9L D   5       1.254  39.713 -39.1230  0.00  0.00     0.000 C
ATOM     96   S  Z9L D   5       1.473  38.123 -40.3030  0.00  0.00     0.000 S
ATOM     97   O  Z9L D   5       0.346  38.668 -39.3480  0.00  0.00     0.000 O
ATOM     98   O  Z9L D   5       2.531  37.633 -39.4570  0.00  0.00     0.000 OA
ATOM     99   O  Z9L D   5       1.750  38.919 -41.4510  0.00  0.00     0.000 OA
ATOM    100   O  Z9L D   5       0.507  37.068 -40.4810  0.00  0.00     0.000 O
ENDBRANCH 81 95
ENDBRANCH 76 80
ENDBRANCH 60 76
ENDBRANCH 59 63
ENDBRANCH 37 59
ENDBRANCH 36 40
ENDBRANCH 23 36
ENDBRANCH 22 26
ENDBRANCH 1 22
TORSDOF 19
ENDMDL
MODEL 63
REMARK VINA RESULT:      -6.9     39.375     45.423
ROOT
ATOM      1  C1  Z9H D   1       8.939  47.828 -26.5230  0.00  0.00     0.000 C
ATOM      2  C2  Z9H D   1       9.143  48.845 -27.6710  0.00  0.00     0.000 C
ATOM      3  C3  Z9H D   1       8.568  47.983 -28.8370  0.00  0.00     0.000 C
ATOM      4  C4  Z9H D   1       9.149  46.513 -28.9460  0.00  0.00     0.000 C
ATOM      5  C5  Z9H D   1       9.281  45.542 -27.7060  0.00  0.00     0.000 C
ATOM      6  O5  Z9H D   1       9.488  46.484 -26.6240  0.00  0.00     0.000 O
ATOM      7   O  Z9H D   1       8.678  48.655 -30.0930  0.00  0.00     0.000 O
ATOM      8   C  Z9H D   1       7.487  49.325 -30.5400  0.00  0.00     0.000 C
ATOM      9   O  Z9H D   1       8.340  45.846 -29.9210  0.00  0.00     0.000 O
ATOM     10   C  Z9H D   1       8.897  45.769 -31.2370  0.00  0.00     0.000 C
ENDROOT
BRANCH 2 11
ATOM     11   O  Z9H D   1       8.151  49.798 -27.3970  0.00  0.00     0.000 O
ATOM     12   O  Z9H D   1       8.504  51.582 -26.8970  0.00  0.00     0.000 OA
ATOM     13   S  Z9H D   1       9.500  50.619 -27.2250  0.00  0.00     0.000 S
ATOM     14   O  Z9H D   1      10.083  50.805 -28.5230  0.00  0.00     0.000 OA
ATOM     15   O  Z9H D   1      10.222  50.217 -26.0400  0.00  0.00     0.000 O
ENDBRANCH 2 11
BRANCH 5 16
ATOM     16   C  Z9H D   1      10.305  44.238 -27.9330  0.00  0.00     0.000 C
ATOM     17   S  Z9H D   1      10.494  42.252 -27.6870  0.00  0.00     0.000 S
ATOM     18   O  Z9H D   1       9.321  43.257 -28.1550  0.00  0.00     0.000 O
ATOM     19   O  Z9H D   1      10.866  42.362 -26.3060  0.00  0.00     0.000 O
ATOM     20   O  Z9H D   1      11.436  42.075 -28.7360  0.00  0.00     0.000 OA
ATOM     21   O  Z9H D   1       9.438  41.303 -27.8840  0.00  0.00     0.000 OA
ENDBRANCH 5 16
BRANCH 1 22
ATOM     22  O4  GU1 D   2       7.532  47.520 -26.2120  0.00  0.00     0.000 O
BRANCH 22 26
ATOM     23  C1  GU1 D   2       4.789  46.820 -23.2200  0.00  0.00     0.000 C
ATOM     24  C2  GU1 D   2       5.779  47.939 -22.9310  0.00  0.00     0.000 C
ATOM     25  C3  GU1 D   2       6.453  48.348 -24.2080  0.00  0.00     0.000 C
ATOM     26  C4  GU1 D   2       7.061  47.144 -24.9120  0.00  0.00     0.000 C
ATOM     27  C5  GU1 D   2       6.011  46.038 -25.0600  0.00  0.00     0.000 C
ATOM     28  O5  GU1 D   2       5.458  45.702 -23.7910  0.00  0.00     0.000 O
ATOM     29   O  GU1 D   2       5.141  49.084 -22.3780  0.00  0.00     0.000 O
ATOM     30   C  GU1 D   2       5.204  49.149 -20.9610  0.00  0.00     0.000 C
ATOM     31   C  GU1 D   2       7.193  50.637 -24.1480  0.00  0.00     0.000 C
ATOM     32   O  GU1 D   2       7.501  49.269 -23.8910  0.00  0.00     0.000 O
BRANCH 27 33
ATOM     33   C  GU1 D   2       6.617  44.785 -25.6470  0.00  0.00     0.000 C
ATOM     34   O  GU1 D   2       6.221  44.405 -26.7300  0.00  0.00     0.000 OA
ATOM     35   O  GU1 D   2       7.485  44.174 -25.0440  0.00  0.00     0.000 O
ENDBRANCH 27 33
BRANCH 23 36
ATOM     36  O4  GU6 D   3       4.193  46.086 -22.1310  0.00  0.00     0.000 O
BRANCH 36 40
ATOM     37  C1  GU6 D   3       1.707  45.344 -18.9750  0.00  0.00     0.000 C
ATOM     38  C2  GU6 D   3       2.404  44.103 -19.5190  0.00  0.00     0.000 C
ATOM     39  C3  GU6 D   3       3.487  44.513 -20.4820  0.00  0.00     0.000 C
ATOM     40  C4  GU6 D   3       3.538  45.921 -20.8900  0.00  0.00     0.000 C
ATOM     41  C5  GU6 D   3       2.083  46.470 -21.0600  0.00  0.00     0.000 C
ATOM     42  O5  GU6 D   3       1.140  46.057 -20.0640  0.00  0.00     0.000 O
BRANCH 38 43
ATOM     43   O  GU6 D   3       2.959  43.342 -18.4640  0.00  0.00     0.000 O
ATOM     44   S  GU6 D   3       2.129  42.131 -18.0570  0.00  0.00     0.000 S
ATOM     45   O  GU6 D   3       1.053  42.582 -17.1560  0.00  0.00     0.000 OA
ATOM     46   O  GU6 D   3       1.536  41.538 -19.2690  0.00  0.00     0.000 O
ATOM     47   O  GU6 D   3       3.001  41.162 -17.4000  0.00  0.00     0.000 OA
ENDBRANCH 38 43
BRANCH 39 48
ATOM     48   O  GU6 D   3       4.550  43.634 -20.7970  0.00  0.00     0.000 O
ATOM     49   S  GU6 D   3       5.989  43.612 -20.2840  0.00  0.00     0.000 S
ATOM     50   O  GU6 D   3       6.003  43.550 -18.8180  0.00  0.00     0.000 OA
ATOM     51   O  GU6 D   3       6.534  42.381 -20.8730  0.00  0.00     0.000 OA
ATOM     52   O  GU6 D   3       6.682  44.836 -20.7450  0.00  0.00     0.000 O
ENDBRANCH 39 48
BRANCH 41 53
ATOM     53   C  GU6 D   3       1.534  47.387 -22.1190  0.00  0.00     0.000 C
ATOM     54   O  GU6 D   3       1.906  48.605 -21.5290  0.00  0.00     0.000 O
ATOM     55   S  GU6 D   3       1.479  49.938 -22.1580  0.00  0.00     0.000 S
ATOM     56   O  GU6 D   3       0.004  50.011 -22.0440  0.00  0.00     0.000 O
ATOM     57   O  GU6 D   3       2.114  51.033 -21.4110  0.00  0.00     0.000 OA
ATOM     58   O  GU6 D   3       1.902  49.909 -23.5770  0.00  0.00     0.000 OA
ENDBRANCH 41 53
BRANCH 37 59
ATOM     59  O4  Z9K D   4       2.310  46.314 -18.0930  0.00  0.00     0.000 O
BRANCH 59 63
ATOM     60  C1  Z9K D   4       0.583  46.290 -14.5630  0.00  0.00     0.000 C
ATOM     61  C2  Z9K D   4      -0.447  47.101 -15.3970  0.00  0.00     0.000 C
ATOM     62  C3  Z9K D   4       0.162  46.950 -16.8580  0.00  0.00     0.000 C
ATOM     63  C4  Z9K D   4       1.710  47.160 -17.0700  0.00  0.00     0.000 C
ATOM     64  C5  Z9K D   4       2.601  46.883 -15.8500  0.00  0.00     0.000 C
ATOM     65  O5  Z9K D   4       1.884  45.826 -15.1600  0.00  0.00     0.000 O
ATOM     66   O  Z9K D   4      -0.464  47.811 -17.8260  0.00  0.00     0.000 O
ATOM     67   C  Z9K D   4      -1.641  47.277 -18.4110  0.00  0.00     0.000 C
BRANCH 61 68
ATOM     68   O  Z9K D   4      -1.644  46.372 -15.3920  0.00  0.00     0.000 O
ATOM     69   O  Z9K D   4      -2.094  48.891 -15.4340  0.00  0.00     0.000 OA
ATOM     70   S  Z9K D   4      -2.071  47.722 -14.6060  0.00  0.00     0.000 S
ATOM     71   O  Z9K D   4      -1.577  47.657 -13.2650  0.00  0.00     0.000 OA
ATOM     72   O  Z9K D   4      -3.307  47.013 -14.6930  0.00  0.00     0.000 OA
ENDBRANCH 61 68
BRANCH 64 73
ATOM     73   C  Z9K D   4       4.061  46.628 -16.2830  0.00  0.00     0.000 C
ATOM     74   O  Z9K D   4       4.560  45.466 -16.2530  0.00  0.00     0.000 O
ATOM     75   O  Z9K D   4       4.803  47.557 -16.6860  0.00  0.00     0.000 OA
ENDBRANCH 64 73
BRANCH 60 76
ATOM     76  O4  Z9L D   5       1.155  46.617 -13.2850  0.00  0.00     0.000 O
BRANCH 76 80
ATOM     77  C1  Z9L D   5       2.177  45.063  -9.7470  0.00  0.00     0.000 C
ATOM     78  C2  Z9L D   5       3.514  45.659 -10.4030  0.00  0.00     0.000 C
ATOM     79  C3  Z9L D   5       3.025  46.699 -11.6440  0.00  0.00     0.000 C
ATOM     80  C4  Z9L D   5       1.812  45.822 -12.3310  0.00  0.00     0.000 C
ATOM     81  C5  Z9L D   5       0.582  45.020 -11.6640  0.00  0.00     0.000 C
ATOM     82  O5  Z9L D   5       1.113  44.358 -10.5060  0.00  0.00     0.000 O
ATOM     83   C  Z9L D   5       0.359  45.698  -8.2700  0.00  0.00     0.000 C
ATOM     84   C  Z9L D   5       0.359  45.698  -8.2700  0.00  0.00     0.000 C
BRANCH 78 85
ATOM     85   O  Z9L D   5       4.183  46.394  -9.4280  0.00  0.00     0.000 O
ATOM     86   O  Z9L D   5       5.853  45.889  -8.6120  0.00  0.00     0.000 OA
ATOM     87   S  Z9L D   5       5.227  45.203  -9.7010  0.00  0.00     0.000 S
ATOM     88   O  Z9L D   5       6.089  45.434 -10.8340  0.00  0.00     0.000 OA
ATOM     89   O  Z9L D   5       4.877  43.924  -9.1860  0.00  0.00     0.000 OA
ENDBRANCH 78 85
BRANCH 79 90
ATOM     90   O  Z9L D   5       3.973  46.755 -12.6620  0.00  0.00     0.000 O
ATOM     91   S  Z9L D   5       3.886  48.302 -12.2930  0.00  0.00     0.000 S
ATOM     92   O  Z9L D   5       4.118  48.790 -10.9590  0.00  0.00     0.000 OA
ATOM     93   O  Z9L D   5       2.936  48.948 -13.1650  0.00  0.00     0.000 O
ATOM     94   O  Z9L D   5       5.144  48.300 -12.9680  0.00  0.00     0.000 OA
ENDBRANCH 79 90
BRANCH 81 95
ATOM     95   C  Z9L D   5      -0.418  44.151 -12.6930  0.00  0.00     0.000 C
ATOM     96   S  Z9L D   5      -0.726  42.379 -13.5480  0.00  0.00     0.000 S
ATOM     97   O  Z9L D   5       0.536  43.241 -13.1700  0.00  0.00     0.000 O
ATOM     98   O  Z9L D   5      -1.346  43.024 -14.6770  0.00  0.00     0.000 OA
ATOM     99   O  Z9L D   5      -1.500  41.900 -12.4520  0.00  0.00     0.000 OA
ATOM    100   O  Z9L D   5       0.299  41.491 -14.0370  0.00  0.00     0.000 O
ENDBRANCH 81 95
ENDBRANCH 76 80
ENDBRANCH 60 76
ENDBRANCH 59 63
ENDBRANCH 37 59
ENDBRANCH 36 40
ENDBRANCH 23 36
ENDBRANCH 22 26
ENDBRANCH 1 22
TORSDOF 19
ENDMDL
MODEL 64
REMARK VINA RESULT:      -6.8      9.004     17.796
ROOT
ATOM      1  C1  Z9H D   1      10.548   3.365 -51.2460  0.00  0.00     0.000 C
ATOM      2  C2  Z9H D   1      12.065   3.298 -50.9480  0.00  0.00     0.000 C
ATOM      3  C3  Z9H D   1      12.504   4.565 -51.7430  0.00  0.00     0.000 C
ATOM      4  C4  Z9H D   1      11.976   4.649 -53.2350  0.00  0.00     0.000 C
ATOM      5  C5  Z9H D   1      10.470   4.380 -53.6350  0.00  0.00     0.000 C
ATOM      6  O5  Z9H D   1      10.069   3.427 -52.6180  0.00  0.00     0.000 O
ATOM      7   O  Z9H D   1      13.921   4.745 -51.7070  0.00  0.00     0.000 O
ATOM      8   C  Z9H D   1      14.398   5.688 -50.7320  0.00  0.00     0.000 C
ATOM      9   O  Z9H D   1      12.306   5.965 -53.6910  0.00  0.00     0.000 O
ATOM     10   C  Z9H D   1      13.487   6.062 -54.4930  0.00  0.00     0.000 C
ENDROOT
BRANCH 2 11
ATOM     11   O  Z9H D   1      12.114   3.677 -49.5980  0.00  0.00     0.000 O
ATOM     12   O  Z9H D   1      12.640   2.533 -48.1940  0.00  0.00     0.000 OA
ATOM     13   S  Z9H D   1      12.631   2.175 -49.5720  0.00  0.00     0.000 S
ATOM     14   O  Z9H D   1      13.935   2.137 -50.1700  0.00  0.00     0.000 OA
ATOM     15   O  Z9H D   1      11.565   1.239 -49.8430  0.00  0.00     0.000 O
ENDBRANCH 2 11
BRANCH 5 16
ATOM     16   C  Z9H D   1      10.212   4.080 -55.2610  0.00  0.00     0.000 C
ATOM     17   S  Z9H D   1       8.814   4.015 -56.7030  0.00  0.00     0.000 S
ATOM     18   O  Z9H D   1       9.150   4.982 -55.4560  0.00  0.00     0.000 O
ATOM     19   O  Z9H D   1       8.366   2.700 -56.3430  0.00  0.00     0.000 O
ATOM     20   O  Z9H D   1       9.714   4.265 -57.7750  0.00  0.00     0.000 OA
ATOM     21   O  Z9H D   1       7.724   4.938 -56.8230  0.00  0.00     0.000 OA
ENDBRANCH 5 16
BRANCH 1 22
ATOM     22  O4  GU1 D   2       9.855   4.529 -50.6680  0.00  0.00     0.000 O
BRANCH 22 26
ATOM     23  C1  GU1 D   2       6.380   5.868 -48.9050  0.00  0.00     0.000 C
ATOM     24  C2  GU1 D   2       6.807   4.467 -48.4950  0.00  0.00     0.000 C
ATOM     25  C3  GU1 D   2       8.240   4.249 -48.8850  0.00  0.00     0.000 C
ATOM     26  C4  GU1 D   2       8.456   4.560 -50.3590  0.00  0.00     0.000 C
ATOM     27  C5  GU1 D   2       7.900   5.948 -50.6890  0.00  0.00     0.000 C
ATOM     28  O5  GU1 D   2       6.529   6.039 -50.3100  0.00  0.00     0.000 O
ATOM     29   O  GU1 D   2       6.692   4.265 -47.0910  0.00  0.00     0.000 O
ATOM     30   C  GU1 D   2       5.487   3.624 -46.6990  0.00  0.00     0.000 C
ATOM     31   C  GU1 D   2       9.326   2.631 -47.4720  0.00  0.00     0.000 C
ATOM     32   O  GU1 D   2       8.568   2.875 -48.6540  0.00  0.00     0.000 O
BRANCH 27 33
ATOM     33   C  GU1 D   2       7.991   6.236 -52.1690  0.00  0.00     0.000 C
ATOM     34   O  GU1 D   2       8.825   7.030 -52.5520  0.00  0.00     0.000 OA
ATOM     35   O  GU1 D   2       7.244   5.677 -52.9570  0.00  0.00     0.000 O
ENDBRANCH 27 33
BRANCH 23 36
ATOM     36  O4  GU6 D   3       4.988   6.238 -48.8660  0.00  0.00     0.000 O
BRANCH 36 40
ATOM     37  C1  GU6 D   3       1.377   8.151 -48.8780  0.00  0.00     0.000 C
ATOM     38  C2  GU6 D   3       1.735   7.513 -47.5410  0.00  0.00     0.000 C
ATOM     39  C3  GU6 D   3       3.177   7.079 -47.5590  0.00  0.00     0.000 C
ATOM     40  C4  GU6 D   3       3.887   7.124 -48.8420  0.00  0.00     0.000 C
ATOM     41  C5  GU6 D   3       2.918   6.687 -49.9910  0.00  0.00     0.000 C
ATOM     42  O5  GU6 D   3       1.581   7.193 -49.9050  0.00  0.00     0.000 O
BRANCH 38 43
ATOM     43   O  GU6 D   3       1.518   8.424 -46.4810  0.00  0.00     0.000 O
ATOM     44   S  GU6 D   3       0.405   8.020 -45.5230  0.00  0.00     0.000 S
ATOM     45   O  GU6 D   3      -0.887   8.410 -46.1130  0.00  0.00     0.000 OA
ATOM     46   O  GU6 D   3       0.442   6.556 -45.3490  0.00  0.00     0.000 O
ATOM     47   O  GU6 D   3       0.625   8.682 -44.2410  0.00  0.00     0.000 OA
ENDBRANCH 38 43
BRANCH 39 48
ATOM     48   O  GU6 D   3       3.885   6.862 -46.3530  0.00  0.00     0.000 O
ATOM     49   S  GU6 D   3       4.799   7.803 -45.5700  0.00  0.00     0.000 S
ATOM     50   O  GU6 D   3       4.091   9.050 -45.2550  0.00  0.00     0.000 OA
ATOM     51   O  GU6 D   3       5.096   7.039 -44.3500  0.00  0.00     0.000 OA
ATOM     52   O  GU6 D   3       6.000   8.094 -46.3840  0.00  0.00     0.000 O
ENDBRANCH 39 48
BRANCH 41 53
ATOM     53   C  GU6 D   3       3.198   5.819 -51.1870  0.00  0.00     0.000 C
ATOM     54   O  GU6 D   3       2.420   6.523 -52.1200  0.00  0.00     0.000 O
ATOM     55   S  GU6 D   3       2.245   5.989 -53.5480  0.00  0.00     0.000 S
ATOM     56   O  GU6 D   3       1.479   4.726 -53.4420  0.00  0.00     0.000 O
ATOM     57   O  GU6 D   3       1.500   6.985 -54.3320  0.00  0.00     0.000 OA
ATOM     58   O  GU6 D   3       3.599   5.746 -54.0950  0.00  0.00     0.000 OA
ENDBRANCH 41 53
BRANCH 37 59
ATOM     59  O4  Z9K D   4       1.891   9.411 -49.3580  0.00  0.00     0.000 O
BRANCH 59 63
ATOM     60  C1  Z9K D   4      -0.177  12.571 -50.4470  0.00  0.00     0.000 C
ATOM     61  C2  Z9K D   4      -0.755  11.490 -51.4020  0.00  0.00     0.000 C
ATOM     62  C3  Z9K D   4      -0.052  10.181 -50.8350  0.00  0.00     0.000 C
ATOM     63  C4  Z9K D   4       1.489  10.219 -50.5030  0.00  0.00     0.000 C
ATOM     64  C5  Z9K D   4       2.069  11.598 -50.1520  0.00  0.00     0.000 C
ATOM     65  O5  Z9K D   4       0.953  12.262 -49.5040  0.00  0.00     0.000 O
ATOM     66   O  Z9K D   4      -0.218   9.032 -51.6860  0.00  0.00     0.000 O
ATOM     67   C  Z9K D   4      -1.421   8.313 -51.4710  0.00  0.00     0.000 C
BRANCH 61 68
ATOM     68   O  Z9K D   4      -2.118  11.364 -51.1040  0.00  0.00     0.000 O
ATOM     69   O  Z9K D   4      -1.670  10.938 -53.5870  0.00  0.00     0.000 OA
ATOM     70   S  Z9K D   4      -2.157  11.891 -52.6350  0.00  0.00     0.000 S
ATOM     71   O  Z9K D   4      -1.895  13.297 -52.6510  0.00  0.00     0.000 OA
ATOM     72   O  Z9K D   4      -3.538  11.667 -52.3520  0.00  0.00     0.000 OA
ENDBRANCH 61 68
BRANCH 64 73
ATOM     73   C  Z9K D   4       3.397  11.454 -49.3800  0.00  0.00     0.000 C
ATOM     74   O  Z9K D   4       4.461  11.099 -49.9650  0.00  0.00     0.000 O
ATOM     75   O  Z9K D   4       3.475  11.688 -48.1490  0.00  0.00     0.000 OA
ENDBRANCH 64 73
BRANCH 60 76
ATOM     76  O4  Z9L D   5       0.303  13.887 -50.7730  0.00  0.00     0.000 O
BRANCH 76 80
ATOM     77  C1  Z9L D   5      -0.056  17.719 -49.6980  0.00  0.00     0.000 C
ATOM     78  C2  Z9L D   5       1.504  17.354 -49.6200  0.00  0.00     0.000 C
ATOM     79  C3  Z9L D   5       1.711  15.921 -50.4950  0.00  0.00     0.000 C
ATOM     80  C4  Z9L D   5       0.398  15.057 -50.0020  0.00  0.00     0.000 C
ATOM     81  C5  Z9L D   5      -1.150  15.484 -49.8550  0.00  0.00     0.000 C
ATOM     82  O5  Z9L D   5      -1.153  16.804 -49.2920  0.00  0.00     0.000 O
ATOM     83   C  Z9L D   5      -1.706  18.617 -51.2350  0.00  0.00     0.000 C
ATOM     84   C  Z9L D   5      -1.706  18.617 -51.2350  0.00  0.00     0.000 C
BRANCH 78 85
ATOM     85   O  Z9L D   5       2.218  18.374 -50.2410  0.00  0.00     0.000 O
ATOM     86   O  Z9L D   5       3.302  19.680 -49.3290  0.00  0.00     0.000 OA
ATOM     87   S  Z9L D   5       2.668  18.556 -48.7090  0.00  0.00     0.000 S
ATOM     88   O  Z9L D   5       3.750  17.688 -48.3140  0.00  0.00     0.000 OA
ATOM     89   O  Z9L D   5       1.701  19.111 -47.8260  0.00  0.00     0.000 OA
ENDBRANCH 78 85
BRANCH 79 90
ATOM     90   O  Z9L D   5       2.772  15.170 -49.9960  0.00  0.00     0.000 O
ATOM     91   S  Z9L D   5       3.246  15.330 -51.5080  0.00  0.00     0.000 S
ATOM     92   O  Z9L D   5       3.403  16.616 -52.1340  0.00  0.00     0.000 OA
ATOM     93   O  Z9L D   5       2.815  14.183 -52.2670  0.00  0.00     0.000 O
ATOM     94   O  Z9L D   5       4.499  14.994 -50.9120  0.00  0.00     0.000 OA
ENDBRANCH 79 90
BRANCH 81 95
ATOM     95   C  Z9L D   5      -2.206  14.344 -49.2230  0.00  0.00     0.000 C
ATOM     96   S  Z9L D   5      -3.158  13.743 -47.5800  0.00  0.00     0.000 S
ATOM     97   O  Z9L D   5      -1.747  14.366 -47.8980  0.00  0.00     0.000 O
ATOM     98   O  Z9L D   5      -3.126  12.382 -48.0500  0.00  0.00     0.000 OA
ATOM     99   O  Z9L D   5      -4.277  14.587 -47.8280  0.00  0.00     0.000 OA
ATOM    100   O  Z9L D   5      -2.625  13.775 -46.2400  0.00  0.00     0.000 O
ENDBRANCH 81 95
ENDBRANCH 76 80
ENDBRANCH 60 76
ENDBRANCH 59 63
ENDBRANCH 37 59
ENDBRANCH 36 40
ENDBRANCH 23 36
ENDBRANCH 22 26
ENDBRANCH 1 22
TORSDOF 19
ENDMDL
MODEL 65
REMARK VINA RESULT:      -6.8     19.911     26.609
ROOT
ATOM      1  C1  Z9H D   1      27.747  24.600 -52.4470  0.00  0.00     0.000 C
ATOM      2  C2  Z9H D   1      29.176  24.012 -52.3650  0.00  0.00     0.000 C
ATOM      3  C3  Z9H D   1      29.274  23.460 -53.8200  0.00  0.00     0.000 C
ATOM      4  C4  Z9H D   1      28.055  22.562 -54.2890  0.00  0.00     0.000 C
ATOM      5  C5  Z9H D   1      26.544  22.976 -54.0770  0.00  0.00     0.000 C
ATOM      6  O5  Z9H D   1      26.631  23.766 -52.8650  0.00  0.00     0.000 O
ATOM      7   O  Z9H D   1      30.509  22.778 -54.0420  0.00  0.00     0.000 O
ATOM      8   C  Z9H D   1      31.529  23.548 -54.6990  0.00  0.00     0.000 C
ATOM      9   O  Z9H D   1      28.243  22.354 -55.6930  0.00  0.00     0.000 O
ATOM     10   C  Z9H D   1      28.831  21.101 -56.0570  0.00  0.00     0.000 C
ENDROOT
BRANCH 2 11
ATOM     11   O  Z9H D   1      29.969  25.171 -52.3590  0.00  0.00     0.000 O
ATOM     12   O  Z9H D   1      31.033  25.719 -50.9010  0.00  0.00     0.000 OA
ATOM     13   S  Z9H D   1      30.262  24.522 -50.9390  0.00  0.00     0.000 S
ATOM     14   O  Z9H D   1      31.043  23.335 -51.1380  0.00  0.00     0.000 OA
ATOM     15   O  Z9H D   1      29.122  24.629 -50.0570  0.00  0.00     0.000 O
ENDBRANCH 2 11
BRANCH 5 16
ATOM     16   C  Z9H D   1      25.440  21.728 -54.2260  0.00  0.00     0.000 C
ATOM     17   S  Z9H D   1      25.245  19.733 -54.3680  0.00  0.00     0.000 S
ATOM     18   O  Z9H D   1      26.155  20.752 -53.5090  0.00  0.00     0.000 O
ATOM     19   O  Z9H D   1      25.530  19.709 -55.7740  0.00  0.00     0.000 O
ATOM     20   O  Z9H D   1      23.926  19.688 -53.8400  0.00  0.00     0.000 OA
ATOM     21   O  Z9H D   1      26.039  18.784 -53.6440  0.00  0.00     0.000 OA
ENDBRANCH 5 16
BRANCH 1 22
ATOM     22  O4  GU1 D   2      27.597  25.734 -53.3760  0.00  0.00     0.000 O
BRANCH 22 26
ATOM     23  C1  GU1 D   2      25.854  29.409 -54.0270  0.00  0.00     0.000 C
ATOM     24  C2  GU1 D   2      26.470  29.229 -52.6480  0.00  0.00     0.000 C
ATOM     25  C3  GU1 D   2      27.385  28.039 -52.6640  0.00  0.00     0.000 C
ATOM     26  C4  GU1 D   2      26.665  26.806 -53.1910  0.00  0.00     0.000 C
ATOM     27  C5  GU1 D   2      25.994  27.124 -54.5310  0.00  0.00     0.000 C
ATOM     28  O5  GU1 D   2      25.125  28.246 -54.3990  0.00  0.00     0.000 O
ATOM     29   O  GU1 D   2      27.226  30.366 -52.2490  0.00  0.00     0.000 O
ATOM     30   C  GU1 D   2      26.512  31.269 -51.4180  0.00  0.00     0.000 C
ATOM     31   C  GU1 D   2      29.134  28.220 -51.0200  0.00  0.00     0.000 C
ATOM     32   O  GU1 D   2      27.813  27.779 -51.3230  0.00  0.00     0.000 O
BRANCH 27 33
ATOM     33   C  GU1 D   2      25.171  25.956 -55.0210  0.00  0.00     0.000 C
ATOM     34   O  GU1 D   2      24.242  25.578 -54.3380  0.00  0.00     0.000 OA
ATOM     35   O  GU1 D   2      25.436  25.412 -56.0820  0.00  0.00     0.000 O
ENDBRANCH 27 33
BRANCH 23 36
ATOM     36  O4  GU6 D   3      24.758  30.327 -54.2120  0.00  0.00     0.000 O
BRANCH 36 40
ATOM     37  C1  GU6 D   3      21.563  32.435 -55.6400  0.00  0.00     0.000 C
ATOM     38  C2  GU6 D   3      22.813  32.547 -56.5030  0.00  0.00     0.000 C
ATOM     39  C3  GU6 D   3      23.832  31.534 -56.0500  0.00  0.00     0.000 C
ATOM     40  C4  GU6 D   3      23.569  30.817 -54.7980  0.00  0.00     0.000 C
ATOM     41  C5  GU6 D   3      22.913  31.791 -53.7650  0.00  0.00     0.000 C
ATOM     42  O5  GU6 D   3      21.922  32.682 -54.2890  0.00  0.00     0.000 O
BRANCH 38 43
ATOM     43   O  GU6 D   3      22.497  32.339 -57.8660  0.00  0.00     0.000 O
ATOM     44   S  GU6 D   3      22.312  33.618 -58.6720  0.00  0.00     0.000 S
ATOM     45   O  GU6 D   3      20.948  34.123 -58.4400  0.00  0.00     0.000 OA
ATOM     46   O  GU6 D   3      23.290  34.616 -58.2030  0.00  0.00     0.000 O
ATOM     47   O  GU6 D   3      22.537  33.322 -60.0830  0.00  0.00     0.000 OA
ENDBRANCH 38 43
BRANCH 39 48
ATOM     48   O  GU6 D   3      24.878  31.122 -56.9090  0.00  0.00     0.000 O
ATOM     49   S  GU6 D   3      26.211  31.798 -57.2260  0.00  0.00     0.000 S
ATOM     50   O  GU6 D   3      26.954  32.057 -55.9880  0.00  0.00     0.000 OA
ATOM     51   O  GU6 D   3      26.898  30.804 -58.0610  0.00  0.00     0.000 OA
ATOM     52   O  GU6 D   3      25.946  33.071 -57.9330  0.00  0.00     0.000 O
ENDBRANCH 39 48
BRANCH 41 53
ATOM     53   C  GU6 D   3      23.166  31.915 -52.2870  0.00  0.00     0.000 C
ATOM     54   O  GU6 D   3      21.856  32.234 -51.8950  0.00  0.00     0.000 O
ATOM     55   S  GU6 D   3      21.545  32.591 -50.4350  0.00  0.00     0.000 S
ATOM     56   O  GU6 D   3      22.241  33.867 -50.1500  0.00  0.00     0.000 O
ATOM     57   O  GU6 D   3      20.091  32.747 -50.2900  0.00  0.00     0.000 OA
ATOM     58   O  GU6 D   3      22.077  31.496 -49.5930  0.00  0.00     0.000 OA
ENDBRANCH 41 53
BRANCH 37 59
ATOM     59  O4  Z9K D   4      20.650  31.317 -55.6440  0.00  0.00     0.000 O
BRANCH 59 63
ATOM     60  C1  Z9K D   4      18.095  32.137 -58.5150  0.00  0.00     0.000 C
ATOM     61  C2  Z9K D   4      17.408  32.817 -57.2980  0.00  0.00     0.000 C
ATOM     62  C3  Z9K D   4      18.529  32.643 -56.1840  0.00  0.00     0.000 C
ATOM     63  C4  Z9K D   4      19.246  31.247 -56.0270  0.00  0.00     0.000 C
ATOM     64  C5  Z9K D   4      19.291  30.367 -57.2850  0.00  0.00     0.000 C
ATOM     65  O5  Z9K D   4      19.362  31.342 -58.3580  0.00  0.00     0.000 O
ATOM     66   O  Z9K D   4      18.073  32.975 -54.8610  0.00  0.00     0.000 O
ATOM     67   C  Z9K D   4      18.161  34.353 -54.5390  0.00  0.00     0.000 C
BRANCH 61 68
ATOM     68   O  Z9K D   4      17.340  34.188 -57.5770  0.00  0.00     0.000 O
ATOM     69   O  Z9K D   4      15.381  33.444 -56.1090  0.00  0.00     0.000 OA
ATOM     70   S  Z9K D   4      15.775  33.796 -57.4400  0.00  0.00     0.000 S
ATOM     71   O  Z9K D   4      15.352  33.139 -58.6380  0.00  0.00     0.000 OA
ATOM     72   O  Z9K D   4      15.722  35.210 -57.6290  0.00  0.00     0.000 OA
ENDBRANCH 61 68
BRANCH 64 73
ATOM     73   C  Z9K D   4      20.406  29.305 -57.1720  0.00  0.00     0.000 C
ATOM     74   O  Z9K D   4      20.321  28.351 -56.3450  0.00  0.00     0.000 O
ATOM     75   O  Z9K D   4      21.431  29.343 -57.8960  0.00  0.00     0.000 OA
ENDBRANCH 64 73
BRANCH 60 76
ATOM     76  O4  Z9L D   5      17.518  31.243 -59.4830  0.00  0.00     0.000 O
BRANCH 76 80
ATOM     77  C1  Z9L D   5      17.150  30.423 -63.3770  0.00  0.00     0.000 C
ATOM     78  C2  Z9L D   5      18.027  29.247 -62.7300  0.00  0.00     0.000 C
ATOM     79  C3  Z9L D   5      17.799  29.335 -61.0570  0.00  0.00     0.000 C
ATOM     80  C4  Z9L D   5      17.871  30.963 -60.8130  0.00  0.00     0.000 C
ATOM     81  C5  Z9L D   5      17.171  32.179 -61.6060  0.00  0.00     0.000 C
ATOM     82  O5  Z9L D   5      17.261  31.856 -63.0020  0.00  0.00     0.000 O
ATOM     83   C  Z9L D   5      14.847  30.992 -63.8900  0.00  0.00     0.000 C
ATOM     84   C  Z9L D   5      14.847  30.992 -63.8900  0.00  0.00     0.000 C
BRANCH 78 85
ATOM     85   O  Z9L D   5      17.531  28.032 -63.1950  0.00  0.00     0.000 O
ATOM     86   O  Z9L D   5      18.441  26.864 -64.4280  0.00  0.00     0.000 OA
ATOM     87   S  Z9L D   5      18.998  28.049 -63.8510  0.00  0.00     0.000 S
ATOM     88   O  Z9L D   5      20.036  27.581 -62.9650  0.00  0.00     0.000 OA
ATOM     89   O  Z9L D   5      19.195  28.940 -64.9420  0.00  0.00     0.000 OA
ENDBRANCH 78 85
BRANCH 79 90
ATOM     90   O  Z9L D   5      18.918  28.876 -60.3670  0.00  0.00     0.000 O
ATOM     91   S  Z9L D   5      17.824  27.866 -59.8030  0.00  0.00     0.000 S
ATOM     92   O  Z9L D   5      17.022  27.038 -60.6650  0.00  0.00     0.000 OA
ATOM     93   O  Z9L D   5      17.293  28.380 -58.5650  0.00  0.00     0.000 O
ATOM     94   O  Z9L D   5      19.001  27.126 -59.4820  0.00  0.00     0.000 OA
ENDBRANCH 79 90
BRANCH 81 95
ATOM     95   C  Z9L D   5      17.557  33.738 -61.1200  0.00  0.00     0.000 C
ATOM     96   S  Z9L D   5      18.770  35.286 -61.4350  0.00  0.00     0.000 S
ATOM     97   O  Z9L D   5      18.916  33.718 -61.4640  0.00  0.00     0.000 O
ATOM     98   O  Z9L D   5      18.656  35.666 -60.0500  0.00  0.00     0.000 OA
ATOM     99   O  Z9L D   5      17.919  35.847 -62.4300  0.00  0.00     0.000 OA
ATOM    100   O  Z9L D   5      20.170  35.203 -61.7710  0.00  0.00     0.000 O
ENDBRANCH 81 95
ENDBRANCH 76 80
ENDBRANCH 60 76
ENDBRANCH 59 63
ENDBRANCH 37 59
ENDBRANCH 36 40
ENDBRANCH 23 36
ENDBRANCH 22 26
ENDBRANCH 1 22
TORSDOF 19
ENDMDL
MODEL 66
REMARK VINA RESULT:      -6.8     30.718     36.749
ROOT
ATOM      1  C1  Z9H D   1       5.104  39.924 -36.9840  0.00  0.00     0.000 C
ATOM      2  C2  Z9H D   1       5.803  40.169 -38.3430  0.00  0.00     0.000 C
ATOM      3  C3  Z9H D   1       5.210  41.579 -38.6460  0.00  0.00     0.000 C
ATOM      4  C4  Z9H D   1       3.636  41.697 -38.5130  0.00  0.00     0.000 C
ATOM      5  C5  Z9H D   1       2.829  41.140 -37.2740  0.00  0.00     0.000 C
ATOM      6  O5  Z9H D   1       3.657  40.020 -36.8720  0.00  0.00     0.000 O
ATOM      7   O  Z9H D   1       5.640  42.068 -39.9180  0.00  0.00     0.000 O
ATOM      8   C  Z9H D   1       6.745  42.986 -39.8840  0.00  0.00     0.000 C
ATOM      9   O  Z9H D   1       3.340  43.094 -38.6160  0.00  0.00     0.000 O
ATOM     10   C  Z9H D   1       2.897  43.538 -39.9020  0.00  0.00     0.000 C
ENDROOT
BRANCH 2 11
ATOM     11   O  Z9H D   1       7.129  40.406 -37.9510  0.00  0.00     0.000 O
ATOM     12   O  Z9H D   1       8.582  39.289 -38.3960  0.00  0.00     0.000 OA
ATOM     13   S  Z9H D   1       7.240  39.086 -38.8270  0.00  0.00     0.000 S
ATOM     14   O  Z9H D   1       7.013  39.436 -40.2000  0.00  0.00     0.000 OA
ATOM     15   O  Z9H D   1       6.661  37.947 -38.1530  0.00  0.00     0.000 O
ENDBRANCH 2 11
BRANCH 5 16
ATOM     16   C  Z9H D   1       1.183  40.962 -37.5210  0.00  0.00     0.000 C
ATOM     17   S  Z9H D   1      -0.207  40.269 -38.7970  0.00  0.00     0.000 S
ATOM     18   O  Z9H D   1       1.229  39.765 -38.2600  0.00  0.00     0.000 O
ATOM     19   O  Z9H D   1      -0.163  41.438 -39.6290  0.00  0.00     0.000 O
ATOM     20   O  Z9H D   1      -1.204  40.055 -37.8070  0.00  0.00     0.000 OA
ATOM     21   O  Z9H D   1      -0.083  39.062 -39.5600  0.00  0.00     0.000 OA
ENDBRANCH 5 16
BRANCH 1 22
ATOM     22  O4  GU1 D   2       5.517  40.835 -35.9020  0.00  0.00     0.000 O
BRANCH 22 26
ATOM     23  C1  GU1 D   2       6.269  41.022 -31.8560  0.00  0.00     0.000 C
ATOM     24  C2  GU1 D   2       6.412  39.638 -32.4700  0.00  0.00     0.000 C
ATOM     25  C3  GU1 D   2       6.495  39.762 -33.9640  0.00  0.00     0.000 C
ATOM     26  C4  GU1 D   2       5.324  40.568 -34.5080  0.00  0.00     0.000 C
ATOM     27  C5  GU1 D   2       5.205  41.896 -33.7540  0.00  0.00     0.000 C
ATOM     28  O5  GU1 D   2       5.100  41.665 -32.3520  0.00  0.00     0.000 O
ATOM     29   O  GU1 D   2       7.584  38.972 -32.0140  0.00  0.00     0.000 O
ATOM     30   C  GU1 D   2       7.353  38.077 -30.9350  0.00  0.00     0.000 C
ATOM     31   C  GU1 D   2       7.709  37.937 -34.9580  0.00  0.00     0.000 C
ATOM     32   O  GU1 D   2       6.449  38.449 -34.5300  0.00  0.00     0.000 O
BRANCH 27 33
ATOM     33   C  GU1 D   2       3.980  42.664 -34.1900  0.00  0.00     0.000 C
ATOM     34   O  GU1 D   2       2.913  42.386 -33.6820  0.00  0.00     0.000 OA
ATOM     35   O  GU1 D   2       4.067  43.545 -35.0310  0.00  0.00     0.000 O
ENDBRANCH 27 33
BRANCH 23 36
ATOM     36  O4  GU6 D   3       5.925  41.162 -30.4640  0.00  0.00     0.000 O
BRANCH 36 40
ATOM     37  C1  GU6 D   3       6.043  42.355 -26.5580  0.00  0.00     0.000 C
ATOM     38  C2  GU6 D   3       7.386  42.442 -27.2720  0.00  0.00     0.000 C
ATOM     39  C3  GU6 D   3       7.184  42.247 -28.7520  0.00  0.00     0.000 C
ATOM     40  C4  GU6 D   3       5.862  41.805 -29.2070  0.00  0.00     0.000 C
ATOM     41  C5  GU6 D   3       5.277  40.771 -28.1880  0.00  0.00     0.000 C
ATOM     42  O5  GU6 D   3       5.483  41.075 -26.8040  0.00  0.00     0.000 O
BRANCH 38 43
ATOM     43   O  GU6 D   3       7.999  43.694 -27.0290  0.00  0.00     0.000 O
ATOM     44   S  GU6 D   3       8.809  43.759 -25.7410  0.00  0.00     0.000 S
ATOM     45   O  GU6 D   3       7.885  44.001 -24.6190  0.00  0.00     0.000 OA
ATOM     46   O  GU6 D   3       9.488  42.465 -25.5460  0.00  0.00     0.000 O
ATOM     47   O  GU6 D   3       9.795  44.828 -25.8580  0.00  0.00     0.000 OA
ENDBRANCH 38 43
BRANCH 39 48
ATOM     48   O  GU6 D   3       8.152  42.694 -29.6820  0.00  0.00     0.000 O
ATOM     49   S  GU6 D   3       9.572  42.192 -29.9380  0.00  0.00     0.000 S
ATOM     50   O  GU6 D   3       9.556  40.753 -30.2240  0.00  0.00     0.000 OA
ATOM     51   O  GU6 D   3       9.991  42.963 -31.1160  0.00  0.00     0.000 OA
ATOM     52   O  GU6 D   3      10.399  42.461 -28.7400  0.00  0.00     0.000 O
ENDBRANCH 39 48
BRANCH 41 53
ATOM     53   C  GU6 D   3       4.512  39.504 -28.4580  0.00  0.00     0.000 C
ATOM     54   O  GU6 D   3       3.220  40.054 -28.4420  0.00  0.00     0.000 O
ATOM     55   S  GU6 D   3       1.987  39.148 -28.5610  0.00  0.00     0.000 S
ATOM     56   O  GU6 D   3       1.951  38.312 -27.3380  0.00  0.00     0.000 O
ATOM     57   O  GU6 D   3       0.789  39.996 -28.6460  0.00  0.00     0.000 OA
ATOM     58   O  GU6 D   3       2.170  38.314 -29.7700  0.00  0.00     0.000 OA
ENDBRANCH 41 53
BRANCH 37 59
ATOM     59  O4  Z9K D   4       4.977  43.321 -26.6760  0.00  0.00     0.000 O
BRANCH 59 63
ATOM     60  C1  Z9K D   4       3.853  44.502 -23.1000  0.00  0.00     0.000 C
ATOM     61  C2  Z9K D   4       3.099  43.149 -23.2210  0.00  0.00     0.000 C
ATOM     62  C3  Z9K D   4       3.699  42.590 -24.5840  0.00  0.00     0.000 C
ATOM     63  C4  Z9K D   4       3.820  43.557 -25.8230  0.00  0.00     0.000 C
ATOM     64  C5  Z9K D   4       3.948  45.053 -25.5020  0.00  0.00     0.000 C
ATOM     65  O5  Z9K D   4       4.666  45.051 -24.2400  0.00  0.00     0.000 O
ATOM     66   O  Z9K D   4       2.999  41.436 -25.0820  0.00  0.00     0.000 O
ATOM     67   C  Z9K D   4       3.443  40.203 -24.5400  0.00  0.00     0.000 C
BRANCH 61 68
ATOM     68   O  Z9K D   4       3.584  42.315 -22.2060  0.00  0.00     0.000 O
ATOM     69   O  Z9K D   4       1.118  41.839 -22.6950  0.00  0.00     0.000 OA
ATOM     70   S  Z9K D   4       2.027  42.476 -21.7910  0.00  0.00     0.000 S
ATOM     71   O  Z9K D   4       1.838  43.756 -21.1780  0.00  0.00     0.000 OA
ATOM     72   O  Z9K D   4       2.510  41.551 -20.8170  0.00  0.00     0.000 OA
ENDBRANCH 61 68
BRANCH 64 73
ATOM     73   C  Z9K D   4       4.550  45.822 -26.6970  0.00  0.00     0.000 C
ATOM     74   O  Z9K D   4       3.844  46.127 -27.7020  0.00  0.00     0.000 O
ATOM     75   O  Z9K D   4       5.753  46.178 -26.7160  0.00  0.00     0.000 OA
ENDBRANCH 64 73
BRANCH 60 76
ATOM     76  O4  Z9L D   5       3.335  45.783 -22.7030  0.00  0.00     0.000 O
BRANCH 76 80
ATOM     77  C1  Z9L D   5       4.136  49.114 -20.6440  0.00  0.00     0.000 C
ATOM     78  C2  Z9L D   5       3.997  49.536 -22.1850  0.00  0.00     0.000 C
ATOM     79  C3  Z9L D   5       3.221  48.255 -22.9720  0.00  0.00     0.000 C
ATOM     80  C4  Z9L D   5       3.983  46.960 -22.2950  0.00  0.00     0.000 C
ATOM     81  C5  Z9L D   5       4.336  46.630 -20.7570  0.00  0.00     0.000 C
ATOM     82  O5  Z9L D   5       4.782  47.863 -20.1720  0.00  0.00     0.000 O
ATOM     83   C  Z9L D   5       2.808  48.899 -18.6230  0.00  0.00     0.000 C
ATOM     84   C  Z9L D   5       2.808  48.899 -18.6230  0.00  0.00     0.000 C
BRANCH 78 85
ATOM     85   O  Z9L D   5       3.191  50.668 -22.2520  0.00  0.00     0.000 O
ATOM     86   O  Z9L D   5       3.780  52.415 -22.8120  0.00  0.00     0.000 OA
ATOM     87   S  Z9L D   5       4.571  51.223 -22.8620  0.00  0.00     0.000 S
ATOM     88   O  Z9L D   5       4.739  50.944 -24.2660  0.00  0.00     0.000 OA
ATOM     89   O  Z9L D   5       5.630  51.438 -21.9370  0.00  0.00     0.000 OA
ENDBRANCH 78 85
BRANCH 79 90
ATOM     90   O  Z9L D   5       3.607  48.170 -24.3060  0.00  0.00     0.000 O
ATOM     91   S  Z9L D   5       2.035  48.340 -24.4940  0.00  0.00     0.000 S
ATOM     92   O  Z9L D   5       1.309  49.453 -23.9420  0.00  0.00     0.000 OA
ATOM     93   O  Z9L D   5       1.424  47.039 -24.6060  0.00  0.00     0.000 O
ATOM     94   O  Z9L D   5       2.461  48.720 -25.8020  0.00  0.00     0.000 OA
ENDBRANCH 79 90
BRANCH 81 95
ATOM     95   C  Z9L D   5       5.216  45.236 -20.4520  0.00  0.00     0.000 C
ATOM     96   S  Z9L D   5       5.850  43.990 -19.0330  0.00  0.00     0.000 S
ATOM     97   O  Z9L D   5       5.625  45.545 -19.1470  0.00  0.00     0.000 O
ATOM     98   O  Z9L D   5       7.019  43.682 -19.8150  0.00  0.00     0.000 OA
ATOM     99   O  Z9L D   5       4.676  43.188 -19.1070  0.00  0.00     0.000 OA
ATOM    100   O  Z9L D   5       6.275  44.370 -17.7080  0.00  0.00     0.000 O
ENDBRANCH 81 95
ENDBRANCH 76 80
ENDBRANCH 60 76
ENDBRANCH 59 63
ENDBRANCH 37 59
ENDBRANCH 36 40
ENDBRANCH 23 36
ENDBRANCH 22 26
ENDBRANCH 1 22
TORSDOF 19
ENDMDL
MODEL 67
REMARK VINA RESULT:      -6.8      2.943     14.320
ROOT
ATOM      1  C1  Z9H D   1       1.370  18.875 -50.9380  0.00  0.00     0.000 C
ATOM      2  C2  Z9H D   1       2.193  17.819 -50.1620  0.00  0.00     0.000 C
ATOM      3  C3  Z9H D   1       2.082  16.652 -51.1890  0.00  0.00     0.000 C
ATOM      4  C4  Z9H D   1       0.614  16.325 -51.6910  0.00  0.00     0.000 C
ATOM      5  C5  Z9H D   1      -0.399  17.436 -52.1780  0.00  0.00     0.000 C
ATOM      6  O5  Z9H D   1       0.018  18.574 -51.3840  0.00  0.00     0.000 O
ATOM      7   O  Z9H D   1       2.718  15.466 -50.7090  0.00  0.00     0.000 O
ATOM      8   C  Z9H D   1       4.047  15.236 -51.2050  0.00  0.00     0.000 C
ATOM      9   O  Z9H D   1       0.769  15.394 -52.7660  0.00  0.00     0.000 O
ATOM     10   C  Z9H D   1       0.564  14.019 -52.4270  0.00  0.00     0.000 C
ENDROOT
BRANCH 2 11
ATOM     11   O  Z9H D   1       3.501  18.307 -50.3020  0.00  0.00     0.000 O
ATOM     12   O  Z9H D   1       4.548  18.960 -48.8750  0.00  0.00     0.000 OA
ATOM     13   S  Z9H D   1       3.238  18.418 -48.7400  0.00  0.00     0.000 S
ATOM     14   O  Z9H D   1       3.212  17.092 -48.1910  0.00  0.00     0.000 OA
ATOM     15   O  Z9H D   1       2.290  19.464 -48.4310  0.00  0.00     0.000 O
ENDBRANCH 2 11
BRANCH 5 16
ATOM     16   C  Z9H D   1      -2.002  16.956 -52.2370  0.00  0.00     0.000 C
ATOM     17   S  Z9H D   1      -3.352  15.686 -51.4610  0.00  0.00     0.000 S
ATOM     18   O  Z9H D   1      -2.141  16.585 -50.8860  0.00  0.00     0.000 O
ATOM     19   O  Z9H D   1      -2.947  14.594 -52.2980  0.00  0.00     0.000 O
ATOM     20   O  Z9H D   1      -4.481  16.503 -51.7380  0.00  0.00     0.000 OA
ATOM     21   O  Z9H D   1      -3.414  15.308 -50.0790  0.00  0.00     0.000 OA
ENDBRANCH 5 16
BRANCH 1 22
ATOM     22  O4  GU1 D   2       1.976  19.323 -52.2050  0.00  0.00     0.000 O
BRANCH 22 26
ATOM     23  C1  GU1 D   2       2.229  22.466 -54.8560  0.00  0.00     0.000 C
ATOM     24  C2  GU1 D   2       1.985  22.867 -53.4090  0.00  0.00     0.000 C
ATOM     25  C3  GU1 D   2       2.293  21.704 -52.5110  0.00  0.00     0.000 C
ATOM     26  C4  GU1 D   2       1.531  20.462 -52.9500  0.00  0.00     0.000 C
ATOM     27  C5  GU1 D   2       1.761  20.206 -54.4430  0.00  0.00     0.000 C
ATOM     28  O5  GU1 D   2       1.409  21.357 -55.2060  0.00  0.00     0.000 O
ATOM     29   O  GU1 D   2       2.805  23.961 -53.0150  0.00  0.00     0.000 O
ATOM     30   C  GU1 D   2       2.158  25.223 -53.0980  0.00  0.00     0.000 C
ATOM     31   C  GU1 D   2       2.955  22.411 -50.3080  0.00  0.00     0.000 C
ATOM     32   O  GU1 D   2       1.890  22.041 -51.1800  0.00  0.00     0.000 O
BRANCH 27 33
ATOM     33   C  GU1 D   2       0.922  19.051 -54.9350  0.00  0.00     0.000 C
ATOM     34   O  GU1 D   2      -0.256  19.245 -55.1560  0.00  0.00     0.000 OA
ATOM     35   O  GU1 D   2       1.422  17.950 -55.1090  0.00  0.00     0.000 O
ENDBRANCH 27 33
BRANCH 23 36
ATOM     36  O4  GU6 D   3       1.776  23.318 -55.9260  0.00  0.00     0.000 O
BRANCH 36 40
ATOM     37  C1  GU6 D   3       0.660  27.089 -57.0360  0.00  0.00     0.000 C
ATOM     38  C2  GU6 D   3       2.038  27.016 -56.3900  0.00  0.00     0.000 C
ATOM     39  C3  GU6 D   3       2.465  25.577 -56.2710  0.00  0.00     0.000 C
ATOM     40  C4  GU6 D   3       1.464  24.543 -56.5580  0.00  0.00     0.000 C
ATOM     41  C5  GU6 D   3       0.070  25.000 -56.0140  0.00  0.00     0.000 C
ATOM     42  O5  GU6 D   3      -0.259  26.379 -56.2200  0.00  0.00     0.000 O
BRANCH 38 43
ATOM     43   O  GU6 D   3       2.984  27.739 -57.1550  0.00  0.00     0.000 O
ATOM     44   S  GU6 D   3       3.730  28.816 -56.3780  0.00  0.00     0.000 S
ATOM     45   O  GU6 D   3       2.880  30.017 -56.3090  0.00  0.00     0.000 OA
ATOM     46   O  GU6 D   3       3.989  28.319 -55.0150  0.00  0.00     0.000 O
ATOM     47   O  GU6 D   3       4.992  29.096 -57.0570  0.00  0.00     0.000 OA
ENDBRANCH 38 43
BRANCH 39 48
ATOM     48   O  GU6 D   3       3.829  25.234 -56.1190  0.00  0.00     0.000 O
ATOM     49   S  GU6 D   3       4.836  24.735 -57.1540  0.00  0.00     0.000 S
ATOM     50   O  GU6 D   3       4.910  25.673 -58.2810  0.00  0.00     0.000 OA
ATOM     51   O  GU6 D   3       6.099  24.707 -56.4030  0.00  0.00     0.000 OA
ATOM     52   O  GU6 D   3       4.411  23.401 -57.6330  0.00  0.00     0.000 O
ENDBRANCH 39 48
BRANCH 41 53
ATOM     53   C  GU6 D   3      -0.986  24.189 -55.3140  0.00  0.00     0.000 C
ATOM     54   O  GU6 D   3      -1.064  24.951 -54.1370  0.00  0.00     0.000 O
ATOM     55   S  GU6 D   3      -1.949  24.494 -52.9700  0.00  0.00     0.000 S
ATOM     56   O  GU6 D   3      -1.357  23.239 -52.4510  0.00  0.00     0.000 O
ATOM     57   O  GU6 D   3      -1.940  25.539 -51.9370  0.00  0.00     0.000 OA
ATOM     58   O  GU6 D   3      -3.305  24.257 -53.5140  0.00  0.00     0.000 OA
ENDBRANCH 41 53
BRANCH 37 59
ATOM     59  O4  Z9K D   4       0.369  26.748 -58.4080  0.00  0.00     0.000 O
BRANCH 59 63
ATOM     60  C1  Z9K D   4      -0.104  26.778 -62.3100  0.00  0.00     0.000 C
ATOM     61  C2  Z9K D   4       0.970  27.886 -62.1280  0.00  0.00     0.000 C
ATOM     62  C3  Z9K D   4       1.291  27.743 -60.5770  0.00  0.00     0.000 C
ATOM     63  C4  Z9K D   4       0.099  27.605 -59.5550  0.00  0.00     0.000 C
ATOM     64  C5  Z9K D   4      -1.202  27.007 -60.1140  0.00  0.00     0.000 C
ATOM     65  O5  Z9K D   4      -0.723  26.084 -61.1270  0.00  0.00     0.000 O
ATOM     66   O  Z9K D   4       2.096  28.818 -60.0620  0.00  0.00     0.000 O
ATOM     67   C  Z9K D   4       3.493  28.636 -60.2270  0.00  0.00     0.000 C
BRANCH 61 68
ATOM     68   O  Z9K D   4       2.119  27.461 -62.8080  0.00  0.00     0.000 O
ATOM     69   O  Z9K D   4       1.860  30.004 -62.9270  0.00  0.00     0.000 OA
ATOM     70   S  Z9K D   4       1.699  28.779 -63.6510  0.00  0.00     0.000 S
ATOM     71   O  Z9K D   4       0.601  28.453 -64.5100  0.00  0.00     0.000 OA
ATOM     72   O  Z9K D   4       2.922  28.392 -64.2760  0.00  0.00     0.000 OA
ENDBRANCH 61 68
BRANCH 64 73
ATOM     73   C  Z9K D   4      -2.089  26.462 -58.9740  0.00  0.00     0.000 C
ATOM     74   O  Z9K D   4      -2.745  27.242 -58.2240  0.00  0.00     0.000 O
ATOM     75   O  Z9K D   4      -2.199  25.231 -58.7520  0.00  0.00     0.000 OA
ENDBRANCH 64 73
BRANCH 60 76
ATOM     76  O4  Z9L D   5      -1.328  26.833 -63.0630  0.00  0.00     0.000 O
BRANCH 76 80
ATOM     77  C1  Z9L D   5      -3.747  24.721 -65.4420  0.00  0.00     0.000 C
ATOM     78  C2  Z9L D   5      -4.587  25.092 -64.1270  0.00  0.00     0.000 C
ATOM     79  C3  Z9L D   5      -3.751  26.341 -63.3520  0.00  0.00     0.000 C
ATOM     80  C4  Z9L D   5      -2.195  25.819 -63.4990  0.00  0.00     0.000 C
ATOM     81  C5  Z9L D   5      -1.399  25.223 -64.7680  0.00  0.00     0.000 C
ATOM     82  O5  Z9L D   5      -2.311  24.342 -65.4410  0.00  0.00     0.000 O
ATOM     83   C  Z9L D   5      -3.269  25.557 -67.6700  0.00  0.00     0.000 C
ATOM     84   C  Z9L D   5      -3.269  25.557 -67.6700  0.00  0.00     0.000 C
BRANCH 78 85
ATOM     85   O  Z9L D   5      -5.835  25.559 -64.5290  0.00  0.00     0.000 O
ATOM     86   O  Z9L D   5      -7.506  24.648 -64.2340  0.00  0.00     0.000 OA
ATOM     87   S  Z9L D   5      -6.239  24.235 -63.7140  0.00  0.00     0.000 S
ATOM     88   O  Z9L D   5      -6.335  24.436 -62.2890  0.00  0.00     0.000 OA
ATOM     89   O  Z9L D   5      -5.961  22.992 -64.3470  0.00  0.00     0.000 OA
ENDBRANCH 78 85
BRANCH 79 90
ATOM     90   O  Z9L D   5      -3.952  26.308 -61.9750  0.00  0.00     0.000 O
ATOM     91   S  Z9L D   5      -4.459  27.786 -62.2840  0.00  0.00     0.000 S
ATOM     92   O  Z9L D   5      -5.502  28.059 -63.2370  0.00  0.00     0.000 OA
ATOM     93   O  Z9L D   5      -3.374  28.714 -62.0860  0.00  0.00     0.000 O
ATOM     94   O  Z9L D   5      -5.085  27.593 -61.0160  0.00  0.00     0.000 OA
ENDBRANCH 79 90
BRANCH 81 95
ATOM     95   C  Z9L D   5       0.175  24.702 -64.5130  0.00  0.00     0.000 C
ATOM     96   S  Z9L D   5       1.321  23.120 -64.1250  0.00  0.00     0.000 S
ATOM     97   O  Z9L D   5      -0.115  23.602 -63.6930  0.00  0.00     0.000 O
ATOM     98   O  Z9L D   5       2.265  23.963 -63.4390  0.00  0.00     0.000 OA
ATOM     99   O  Z9L D   5       1.478  22.800 -65.5040  0.00  0.00     0.000 OA
ATOM    100   O  Z9L D   5       0.974  22.022 -63.2560  0.00  0.00     0.000 O
ENDBRANCH 81 95
ENDBRANCH 76 80
ENDBRANCH 60 76
ENDBRANCH 59 63
ENDBRANCH 37 59
ENDBRANCH 36 40
ENDBRANCH 23 36
ENDBRANCH 22 26
ENDBRANCH 1 22
TORSDOF 19
ENDMDL
MODEL 68
REMARK VINA RESULT:      -6.8     32.779     40.922
ROOT
ATOM      1  C1  Z9H D   1      -3.896  21.362 -22.3380  0.00  0.00     0.000 C
ATOM      2  C2  Z9H D   1      -2.982  20.914 -23.5040  0.00  0.00     0.000 C
ATOM      3  C3  Z9H D   1      -2.418  22.314 -23.8950  0.00  0.00     0.000 C
ATOM      4  C4  Z9H D   1      -3.504  23.448 -24.1090  0.00  0.00     0.000 C
ATOM      5  C5  Z9H D   1      -4.682  23.719 -23.0910  0.00  0.00     0.000 C
ATOM      6  O5  Z9H D   1      -4.900  22.394 -22.5450  0.00  0.00     0.000 O
ATOM      7   O  Z9H D   1      -1.552  22.235 -25.0290  0.00  0.00     0.000 O
ATOM      8   C  Z9H D   1      -0.146  22.202 -24.7300  0.00  0.00     0.000 C
ATOM      9   O  Z9H D   1      -2.769  24.670 -24.2400  0.00  0.00     0.000 O
ATOM     10   C  Z9H D   1      -2.563  25.126 -25.5810  0.00  0.00     0.000 C
ENDROOT
BRANCH 2 11
ATOM     11   O  Z9H D   1      -1.933  20.274 -22.8230  0.00  0.00     0.000 O
ATOM     12   O  Z9H D   1      -1.592  18.421 -22.9040  0.00  0.00     0.000 OA
ATOM     13   S  Z9H D   1      -2.622  19.089 -23.6270  0.00  0.00     0.000 S
ATOM     14   O  Z9H D   1      -2.333  19.263 -25.0220  0.00  0.00     0.000 OA
ATOM     15   O  Z9H D   1      -3.918  18.757 -23.0810  0.00  0.00     0.000 O
ENDBRANCH 2 11
BRANCH 5 16
ATOM     16   C  Z9H D   1      -5.948  24.629 -23.6990  0.00  0.00     0.000 C
ATOM     17   S  Z9H D   1      -7.290  26.058 -23.2530  0.00  0.00     0.000 S
ATOM     18   O  Z9H D   1      -5.728  25.795 -22.9420  0.00  0.00     0.000 O
ATOM     19   O  Z9H D   1      -8.193  25.144 -22.6150  0.00  0.00     0.000 O
ATOM     20   O  Z9H D   1      -7.454  26.511 -24.5900  0.00  0.00     0.000 OA
ATOM     21   O  Z9H D   1      -7.018  27.202 -22.4340  0.00  0.00     0.000 OA
ENDBRANCH 5 16
BRANCH 1 22
ATOM     22  O4  GU1 D   2      -3.185  21.911 -21.1700  0.00  0.00     0.000 O
BRANCH 22 26
ATOM     23  C1  GU1 D   2      -3.026  22.065 -17.0570  0.00  0.00     0.000 C
ATOM     24  C2  GU1 D   2      -3.354  20.696 -17.6330  0.00  0.00     0.000 C
ATOM     25  C3  GU1 D   2      -3.009  20.676 -19.0940  0.00  0.00     0.000 C
ATOM     26  C4  GU1 D   2      -3.671  21.835 -19.8250  0.00  0.00     0.000 C
ATOM     27  C5  GU1 D   2      -3.365  23.152 -19.1050  0.00  0.00     0.000 C
ATOM     28  O5  GU1 D   2      -3.758  23.077 -17.7380  0.00  0.00     0.000 O
ATOM     29   O  GU1 D   2      -2.623  19.658 -16.9900  0.00  0.00     0.000 O
ATOM     30   C  GU1 D   2      -3.346  19.000 -15.9600  0.00  0.00     0.000 C
ATOM     31   C  GU1 D   2      -2.485  18.459 -19.8710  0.00  0.00     0.000 C
ATOM     32   O  GU1 D   2      -3.487  19.449 -19.6550  0.00  0.00     0.000 O
BRANCH 27 33
ATOM     33   C  GU1 D   2      -4.107  24.306 -19.7370  0.00  0.00     0.000 C
ATOM     34   O  GU1 D   2      -3.464  25.160 -20.3140  0.00  0.00     0.000 OA
ATOM     35   O  GU1 D   2      -5.324  24.372 -19.6710  0.00  0.00     0.000 O
ENDBRANCH 27 33
BRANCH 23 36
ATOM     36  O4  GU6 D   3      -3.488  22.421 -15.7390  0.00  0.00     0.000 O
BRANCH 36 40
ATOM     37  C1  GU6 D   3      -5.558  24.011 -12.5950  0.00  0.00     0.000 C
ATOM     38  C2  GU6 D   3      -4.110  23.666 -12.2710  0.00  0.00     0.000 C
ATOM     39  C3  GU6 D   3      -3.369  23.350 -13.5440  0.00  0.00     0.000 C
ATOM     40  C4  GU6 D   3      -4.157  23.207 -14.7730  0.00  0.00     0.000 C
ATOM     41  C5  GU6 D   3      -5.508  22.488 -14.4480  0.00  0.00     0.000 C
ATOM     42  O5  GU6 D   3      -6.156  22.896 -13.2380  0.00  0.00     0.000 O
BRANCH 38 43
ATOM     43   O  GU6 D   3      -3.481  24.740 -11.6000  0.00  0.00     0.000 O
ATOM     44   S  GU6 D   3      -3.491  24.626 -10.0810  0.00  0.00     0.000 S
ATOM     45   O  GU6 D   3      -4.797  25.091  -9.5850  0.00  0.00     0.000 OA
ATOM     46   O  GU6 D   3      -3.303  23.211  -9.7150  0.00  0.00     0.000 O
ATOM     47   O  GU6 D   3      -2.400  25.432  -9.5420  0.00  0.00     0.000 OA
ENDBRANCH 38 43
BRANCH 39 48
ATOM     48   O  GU6 D   3      -1.957  23.420 -13.5990  0.00  0.00     0.000 O
ATOM     49   S  GU6 D   3      -0.908  22.375 -13.2180  0.00  0.00     0.000 S
ATOM     50   O  GU6 D   3      -1.153  21.124 -13.9450  0.00  0.00     0.000 OA
ATOM     51   O  GU6 D   3       0.352  22.999 -13.6440  0.00  0.00     0.000 OA
ATOM     52   O  GU6 D   3      -0.978  22.136 -11.7590  0.00  0.00     0.000 O
ENDBRANCH 39 48
BRANCH 41 53
ATOM     53   C  GU6 D   3      -6.235  21.435 -15.2390  0.00  0.00     0.000 C
ATOM     54   O  GU6 D   3      -6.692  22.259 -16.2800  0.00  0.00     0.000 O
ATOM     55   S  GU6 D   3      -7.625  21.700 -17.3620  0.00  0.00     0.000 S
ATOM     56   O  GU6 D   3      -8.902  21.360 -16.6930  0.00  0.00     0.000 O
ATOM     57   O  GU6 D   3      -7.833  22.737 -18.3830  0.00  0.00     0.000 OA
ATOM     58   O  GU6 D   3      -6.977  20.490 -17.9180  0.00  0.00     0.000 OA
ENDBRANCH 41 53
BRANCH 37 59
ATOM     59  O4  Z9K D   4      -5.990  25.194 -13.2990  0.00  0.00     0.000 O
BRANCH 59 63
ATOM     60  C1  Z9K D   4      -8.234  28.414 -13.5240  0.00  0.00     0.000 C
ATOM     61  C2  Z9K D   4      -9.100  27.507 -12.6070  0.00  0.00     0.000 C
ATOM     62  C3  Z9K D   4      -8.110  26.285 -12.3690  0.00  0.00     0.000 C
ATOM     63  C4  Z9K D   4      -7.333  25.677 -13.5980  0.00  0.00     0.000 C
ATOM     64  C5  Z9K D   4      -7.085  26.628 -14.7780  0.00  0.00     0.000 C
ATOM     65  O5  Z9K D   4      -6.948  27.919 -14.1280  0.00  0.00     0.000 O
ATOM     66   O  Z9K D   4      -8.740  25.158 -11.7350  0.00  0.00     0.000 O
ATOM     67   C  Z9K D   4      -8.775  25.226 -10.3190  0.00  0.00     0.000 C
BRANCH 61 68
ATOM     68   O  Z9K D   4      -9.218  28.163 -11.3740  0.00  0.00     0.000 O
ATOM     69   O  Z9K D   4     -11.333  26.829 -11.9200  0.00  0.00     0.000 OA
ATOM     70   S  Z9K D   4     -10.754  28.138 -11.8890  0.00  0.00     0.000 S
ATOM     71   O  Z9K D   4     -10.928  29.153 -12.8820  0.00  0.00     0.000 OA
ATOM     72   O  Z9K D   4     -10.875  28.718 -10.5900  0.00  0.00     0.000 OA
ENDBRANCH 61 68
BRANCH 64 73
ATOM     73   C  Z9K D   4      -5.928  26.117 -15.6630  0.00  0.00     0.000 C
ATOM     74   O  Z9K D   4      -6.130  25.266 -16.5770  0.00  0.00     0.000 O
ATOM     75   O  Z9K D   4      -4.751  26.527 -15.5150  0.00  0.00     0.000 OA
ENDBRANCH 64 73
BRANCH 60 76
ATOM     76  O4  Z9L D   5      -8.635  29.145 -14.6950  0.00  0.00     0.000 O
BRANCH 76 80
ATOM     77  C1  Z9L D   5      -7.736  32.250 -17.0440  0.00  0.00     0.000 C
ATOM     78  C2  Z9L D   5      -7.582  30.927 -17.9370  0.00  0.00     0.000 C
ATOM     79  C3  Z9L D   5      -8.388  29.689 -17.1120  0.00  0.00     0.000 C
ATOM     80  C4  Z9L D   5      -7.911  29.980 -15.5620  0.00  0.00     0.000 C
ATOM     81  C5  Z9L D   5      -7.842  31.353 -14.7200  0.00  0.00     0.000 C
ATOM     82  O5  Z9L D   5      -7.336  32.352 -15.6180  0.00  0.00     0.000 O
ATOM     83   C  Z9L D   5      -9.373  33.941 -16.4490  0.00  0.00     0.000 C
ATOM     84   C  Z9L D   5      -9.373  33.941 -16.4490  0.00  0.00     0.000 C
BRANCH 78 85
ATOM     85   O  Z9L D   5      -8.216  31.151 -19.1550  0.00  0.00     0.000 O
ATOM     86   O  Z9L D   5      -7.332  31.238 -20.8640  0.00  0.00     0.000 OA
ATOM     87   S  Z9L D   5      -6.704  30.883 -19.6270  0.00  0.00     0.000 S
ATOM     88   O  Z9L D   5      -6.375  29.486 -19.7610  0.00  0.00     0.000 OA
ATOM     89   O  Z9L D   5      -5.767  31.923 -19.3720  0.00  0.00     0.000 OA
ENDBRANCH 78 85
BRANCH 79 90
ATOM     90   O  Z9L D   5      -7.817  28.447 -17.3760  0.00  0.00     0.000 O
ATOM     91   S  Z9L D   5      -9.323  28.142 -17.7920  0.00  0.00     0.000 S
ATOM     92   O  Z9L D   5     -10.025  28.924 -18.7750  0.00  0.00     0.000 OA
ATOM     93   O  Z9L D   5     -10.020  27.563 -16.6700  0.00  0.00     0.000 O
ATOM     94   O  Z9L D   5      -8.677  27.074 -18.4840  0.00  0.00     0.000 OA
ENDBRANCH 79 90
BRANCH 81 95
ATOM     95   C  Z9L D   5      -7.205  31.275 -13.1700  0.00  0.00     0.000 C
ATOM     96   S  Z9L D   5      -6.360  32.325 -11.7040  0.00  0.00     0.000 S
ATOM     97   O  Z9L D   5      -6.299  32.339 -13.2780  0.00  0.00     0.000 O
ATOM     98   O  Z9L D   5      -5.640  31.155 -11.2720  0.00  0.00     0.000 OA
ATOM     99   O  Z9L D   5      -7.615  32.677 -11.1300  0.00  0.00     0.000 OA
ATOM    100   O  Z9L D   5      -5.417  33.403 -11.8770  0.00  0.00     0.000 O
ENDBRANCH 81 95
ENDBRANCH 76 80
ENDBRANCH 60 76
ENDBRANCH 59 63
ENDBRANCH 37 59
ENDBRANCH 36 40
ENDBRANCH 23 36
ENDBRANCH 22 26
ENDBRANCH 1 22
TORSDOF 19
ENDMDL
MODEL 69
REMARK VINA RESULT:      -6.8      3.018     14.522
ROOT
ATOM      1  C1  Z9H D   1      -0.856  18.411 -51.1810  0.00  0.00     0.000 C
ATOM      2  C2  Z9H D   1      -1.126  17.635 -49.8700  0.00  0.00     0.000 C
ATOM      3  C3  Z9H D   1       0.247  17.891 -49.1750  0.00  0.00     0.000 C
ATOM      4  C4  Z9H D   1       1.524  17.571 -50.0550  0.00  0.00     0.000 C
ATOM      5  C5  Z9H D   1       1.691  18.065 -51.5480  0.00  0.00     0.000 C
ATOM      6  O5  Z9H D   1       0.311  18.103 -51.9930  0.00  0.00     0.000 O
ATOM      7   O  Z9H D   1       0.331  17.221 -47.9150  0.00  0.00     0.000 O
ATOM      8   C  Z9H D   1       0.055  18.036 -46.7640  0.00  0.00     0.000 C
ATOM      9   O  Z9H D   1       2.642  18.075 -49.3170  0.00  0.00     0.000 O
ATOM     10   C  Z9H D   1       3.373  17.103 -48.5620  0.00  0.00     0.000 C
ENDROOT
BRANCH 2 11
ATOM     11   O  Z9H D   1      -2.032  18.481 -49.2120  0.00  0.00     0.000 O
ATOM     12   O  Z9H D   1      -3.832  18.037 -48.8620  0.00  0.00     0.000 OA
ATOM     13   S  Z9H D   1      -2.889  17.171 -49.4860  0.00  0.00     0.000 S
ATOM     14   O  Z9H D   1      -2.404  16.127 -48.6280  0.00  0.00     0.000 OA
ATOM     15   O  Z9H D   1      -3.197  17.018 -50.8890  0.00  0.00     0.000 O
ENDBRANCH 2 11
BRANCH 5 16
ATOM     16   C  Z9H D   1       2.868  17.268 -52.4310  0.00  0.00     0.000 C
ATOM     17   S  Z9H D   1       3.585  15.458 -52.9310  0.00  0.00     0.000 S
ATOM     18   O  Z9H D   1       2.123  16.118 -52.7520  0.00  0.00     0.000 O
ATOM     19   O  Z9H D   1       4.334  15.313 -51.7160  0.00  0.00     0.000 O
ATOM     20   O  Z9H D   1       4.165  15.877 -54.1590  0.00  0.00     0.000 OA
ATOM     21   O  Z9H D   1       2.773  14.307 -53.2010  0.00  0.00     0.000 OA
ENDBRANCH 5 16
BRANCH 1 22
ATOM     22  O4  GU1 D   2      -0.691  19.866 -51.0170  0.00  0.00     0.000 O
BRANCH 22 26
ATOM     23  C1  GU1 D   2      -1.213  23.512 -52.8630  0.00  0.00     0.000 C
ATOM     24  C2  GU1 D   2      -2.195  22.432 -53.2900  0.00  0.00     0.000 C
ATOM     25  C3  GU1 D   2      -2.157  21.305 -52.2990  0.00  0.00     0.000 C
ATOM     26  C4  GU1 D   2      -0.734  20.807 -52.0960  0.00  0.00     0.000 C
ATOM     27  C5  GU1 D   2       0.192  21.984 -51.7730  0.00  0.00     0.000 C
ATOM     28  O5  GU1 D   2       0.105  22.980 -52.7880  0.00  0.00     0.000 O
ATOM     29   O  GU1 D   2      -3.529  22.922 -53.3550  0.00  0.00     0.000 O
ATOM     30   C  GU1 D   2      -3.938  23.307 -54.6600  0.00  0.00     0.000 C
ATOM     31   C  GU1 D   2      -4.240  20.102 -52.2170  0.00  0.00     0.000 C
ATOM     32   O  GU1 D   2      -2.950  20.228 -52.8100  0.00  0.00     0.000 O
BRANCH 27 33
ATOM     33   C  GU1 D   2       1.632  21.538 -51.6840  0.00  0.00     0.000 C
ATOM     34   O  GU1 D   2       2.236  21.329 -52.7160  0.00  0.00     0.000 OA
ATOM     35   O  GU1 D   2       2.173  21.397 -50.5980  0.00  0.00     0.000 O
ENDBRANCH 27 33
BRANCH 23 36
ATOM     36  O4  GU6 D   3      -0.880  24.583 -53.7680  0.00  0.00     0.000 O
BRANCH 36 40
ATOM     37  C1  GU6 D   3      -0.912  27.271 -56.8450  0.00  0.00     0.000 C
ATOM     38  C2  GU6 D   3       0.466  27.045 -56.2350  0.00  0.00     0.000 C
ATOM     39  C3  GU6 D   3       0.421  25.857 -55.3110  0.00  0.00     0.000 C
ATOM     40  C4  GU6 D   3      -0.895  25.294 -54.9900  0.00  0.00     0.000 C
ATOM     41  C5  GU6 D   3      -1.936  26.452 -54.8370  0.00  0.00     0.000 C
ATOM     42  O5  GU6 D   3      -1.837  27.511 -55.7950  0.00  0.00     0.000 O
BRANCH 38 43
ATOM     43   O  GU6 D   3       1.430  26.832 -57.2490  0.00  0.00     0.000 O
ATOM     44   S  GU6 D   3       2.213  28.078 -57.6440  0.00  0.00     0.000 S
ATOM     45   O  GU6 D   3       1.400  28.860 -58.5920  0.00  0.00     0.000 OA
ATOM     46   O  GU6 D   3       2.463  28.881 -56.4340  0.00  0.00     0.000 O
ATOM     47   O  GU6 D   3       3.479  27.667 -58.2430  0.00  0.00     0.000 OA
ENDBRANCH 38 43
BRANCH 39 48
ATOM     48   O  GU6 D   3       1.604  25.167 -54.9550  0.00  0.00     0.000 O
ATOM     49   S  GU6 D   3       2.644  25.492 -53.8840  0.00  0.00     0.000 S
ATOM     50   O  GU6 D   3       1.995  25.626 -52.5740  0.00  0.00     0.000 OA
ATOM     51   O  GU6 D   3       3.534  24.324 -53.9190  0.00  0.00     0.000 OA
ATOM     52   O  GU6 D   3       3.324  26.756 -54.2430  0.00  0.00     0.000 O
ENDBRANCH 39 48
BRANCH 41 53
ATOM     53   C  GU6 D   3      -3.043  26.604 -53.8290  0.00  0.00     0.000 C
ATOM     54   O  GU6 D   3      -2.261  27.054 -52.7530  0.00  0.00     0.000 O
ATOM     55   S  GU6 D   3      -2.891  27.272 -51.3710  0.00  0.00     0.000 S
ATOM     56   O  GU6 D   3      -3.306  25.939 -50.8750  0.00  0.00     0.000 O
ATOM     57   O  GU6 D   3      -1.880  27.865 -50.4840  0.00  0.00     0.000 OA
ATOM     58   O  GU6 D   3      -4.061  28.159 -51.5560  0.00  0.00     0.000 OA
ENDBRANCH 41 53
BRANCH 37 59
ATOM     59  O4  Z9K D   4      -1.554  26.391 -57.7910  0.00  0.00     0.000 O
BRANCH 59 63
ATOM     60  C1  Z9K D   4      -1.089  28.003 -61.3450  0.00  0.00     0.000 C
ATOM     61  C2  Z9K D   4      -2.363  28.739 -60.8450  0.00  0.00     0.000 C
ATOM     62  C3  Z9K D   4      -2.440  28.222 -59.3430  0.00  0.00     0.000 C
ATOM     63  C4  Z9K D   4      -2.229  26.688 -59.0470  0.00  0.00     0.000 C
ATOM     64  C5  Z9K D   4      -1.381  25.914 -60.0680  0.00  0.00     0.000 C
ATOM     65  O5  Z9K D   4      -0.439  26.918 -60.5310  0.00  0.00     0.000 O
ATOM     66   O  Z9K D   4      -3.676  28.558 -58.6880  0.00  0.00     0.000 O
ATOM     67   C  Z9K D   4      -3.695  29.848 -58.1000  0.00  0.00     0.000 C
BRANCH 61 68
ATOM     68   O  Z9K D   4      -2.050  30.103 -60.7760  0.00  0.00     0.000 O
ATOM     69   O  Z9K D   4      -4.507  29.747 -61.3970  0.00  0.00     0.000 OA
ATOM     70   S  Z9K D   4      -3.210  30.082 -61.9050  0.00  0.00     0.000 S
ATOM     71   O  Z9K D   4      -2.651  29.622 -63.1390  0.00  0.00     0.000 OA
ATOM     72   O  Z9K D   4      -2.951  31.478 -61.7570  0.00  0.00     0.000 OA
ENDBRANCH 61 68
BRANCH 64 73
ATOM     73   C  Z9K D   4      -0.831  24.611 -59.4500  0.00  0.00     0.000 C
ATOM     74   O  Z9K D   4      -1.575  23.601 -59.2820  0.00  0.00     0.000 O
ATOM     75   O  Z9K D   4       0.368  24.501 -59.0970  0.00  0.00     0.000 OA
ENDBRANCH 64 73
BRANCH 60 76
ATOM     76  O4  Z9L D   5      -0.872  27.345 -62.6050  0.00  0.00     0.000 O
BRANCH 76 80
ATOM     77  C1  Z9L D   5       1.802  26.735 -65.5110  0.00  0.00     0.000 C
ATOM     78  C2  Z9L D   5       1.487  25.306 -64.8560  0.00  0.00     0.000 C
ATOM     79  C3  Z9L D   5       0.056  25.483 -63.9710  0.00  0.00     0.000 C
ATOM     80  C4  Z9L D   5       0.308  26.943 -63.2510  0.00  0.00     0.000 C
ATOM     81  C5  Z9L D   5       0.848  28.337 -63.8550  0.00  0.00     0.000 C
ATOM     82  O5  Z9L D   5       1.923  28.002 -64.7450  0.00  0.00     0.000 O
ATOM     83   C  Z9L D   5       1.064  28.185 -67.3130  0.00  0.00     0.000 C
ATOM     84   C  Z9L D   5       1.064  28.185 -67.3130  0.00  0.00     0.000 C
BRANCH 78 85
ATOM     85   O  Z9L D   5       1.276  24.395 -65.8870  0.00  0.00     0.000 O
ATOM     86   O  Z9L D   5       2.453  22.937 -66.3330  0.00  0.00     0.000 OA
ATOM     87   S  Z9L D   5       2.600  23.798 -65.1990  0.00  0.00     0.000 S
ATOM     88   O  Z9L D   5       2.334  22.960 -64.0560  0.00  0.00     0.000 OA
ATOM     89   O  Z9L D   5       3.809  24.513 -65.4260  0.00  0.00     0.000 OA
ENDBRANCH 78 85
BRANCH 79 90
ATOM     90   O  Z9L D   5       0.020  24.612 -62.8850  0.00  0.00     0.000 O
ATOM     91   S  Z9L D   5      -1.300  24.147 -63.6440  0.00  0.00     0.000 S
ATOM     92   O  Z9L D   5      -1.288  23.713 -65.0160  0.00  0.00     0.000 OA
ATOM     93   O  Z9L D   5      -2.436  24.847 -63.0980  0.00  0.00     0.000 O
ATOM     94   O  Z9L D   5      -1.087  22.992 -62.8330  0.00  0.00     0.000 OA
ENDBRANCH 79 90
BRANCH 81 95
ATOM     95   C  Z9L D   5       1.066  29.607 -62.7810  0.00  0.00     0.000 C
ATOM     96   S  Z9L D   5       1.401  31.565 -62.6240  0.00  0.00     0.000 S
ATOM     97   O  Z9L D   5       1.866  30.419 -63.5990  0.00  0.00     0.000 O
ATOM     98   O  Z9L D   5       2.090  31.354 -61.3780  0.00  0.00     0.000 OA
ATOM     99   O  Z9L D   5       0.013  31.881 -62.6590  0.00  0.00     0.000 OA
ATOM    100   O  Z9L D   5       2.250  32.345 -63.4890  0.00  0.00     0.000 O
ENDBRANCH 81 95
ENDBRANCH 76 80
ENDBRANCH 60 76
ENDBRANCH 59 63
ENDBRANCH 37 59
ENDBRANCH 36 40
ENDBRANCH 23 36
ENDBRANCH 22 26
ENDBRANCH 1 22
TORSDOF 19
ENDMDL
MODEL 70
REMARK VINA RESULT:      -6.8     38.690     44.962
ROOT
ATOM      1  C1  Z9H D   1       5.882  42.224 -26.4660  0.00  0.00     0.000 C
ATOM      2  C2  Z9H D   1       6.128  42.052 -27.9840  0.00  0.00     0.000 C
ATOM      3  C3  Z9H D   1       4.698  41.580 -28.3890  0.00  0.00     0.000 C
ATOM      4  C4  Z9H D   1       4.105  40.390 -27.5260  0.00  0.00     0.000 C
ATOM      5  C5  Z9H D   1       4.144  40.366 -25.9460  0.00  0.00     0.000 C
ATOM      6  O5  Z9H D   1       5.351  41.123 -25.6770  0.00  0.00     0.000 O
ATOM      7   O  Z9H D   1       4.621  41.270 -29.7820  0.00  0.00     0.000 O
ATOM      8   C  Z9H D   1       4.074  42.306 -30.6140  0.00  0.00     0.000 C
ATOM      9   O  Z9H D   1       2.734  40.272 -27.9170  0.00  0.00     0.000 O
ATOM     10   C  Z9H D   1       2.449  39.239 -28.8650  0.00  0.00     0.000 C
ENDROOT
BRANCH 2 11
ATOM     11   O  Z9H D   1       6.210  43.384 -28.4190  0.00  0.00     0.000 O
ATOM     12   O  Z9H D   1       7.793  44.200 -29.0410  0.00  0.00     0.000 OA
ATOM     13   S  Z9H D   1       7.685  42.837 -28.6420  0.00  0.00     0.000 S
ATOM     14   O  Z9H D   1       7.662  41.911 -29.7390  0.00  0.00     0.000 OA
ATOM     15   O  Z9H D   1       8.370  42.623 -27.3880  0.00  0.00     0.000 O
ENDBRANCH 2 11
BRANCH 5 16
ATOM     16   C  Z9H D   1       3.885  38.865 -25.2530  0.00  0.00     0.000 C
ATOM     17   S  Z9H D   1       2.848  37.878 -23.8430  0.00  0.00     0.000 S
ATOM     18   O  Z9H D   1       2.529  39.039 -24.9180  0.00  0.00     0.000 O
ATOM     19   O  Z9H D   1       3.736  38.264 -22.7840  0.00  0.00     0.000 O
ATOM     20   O  Z9H D   1       2.909  36.614 -24.4900  0.00  0.00     0.000 OA
ATOM     21   O  Z9H D   1       1.476  38.134 -23.5130  0.00  0.00     0.000 OA
ENDBRANCH 5 16
BRANCH 1 22
ATOM     22  O4  GU1 D   2       4.930  43.292 -26.1100  0.00  0.00     0.000 O
BRANCH 22 26
ATOM     23  C1  GU1 D   2       3.810  46.076 -23.2890  0.00  0.00     0.000 C
ATOM     24  C2  GU1 D   2       5.296  46.056 -23.6130  0.00  0.00     0.000 C
ATOM     25  C3  GU1 D   2       5.516  45.300 -24.8910  0.00  0.00     0.000 C
ATOM     26  C4  GU1 D   2       4.874  43.922 -24.8250  0.00  0.00     0.000 C
ATOM     27  C5  GU1 D   2       3.410  44.046 -24.3910  0.00  0.00     0.000 C
ATOM     28  O5  GU1 D   2       3.314  44.749 -23.1550  0.00  0.00     0.000 O
ATOM     29   O  GU1 D   2       5.823  47.367 -23.7750  0.00  0.00     0.000 O
ATOM     30   C  GU1 D   2       6.450  47.884 -22.6100  0.00  0.00     0.000 C
ATOM     31   C  GU1 D   2       7.504  46.024 -26.0390  0.00  0.00     0.000 C
ATOM     32   O  GU1 D   2       6.925  45.139 -25.0830  0.00  0.00     0.000 O
BRANCH 27 33
ATOM     33   C  GU1 D   2       2.779  42.687 -24.2010  0.00  0.00     0.000 C
ATOM     34   O  GU1 D   2       1.900  42.346 -24.9650  0.00  0.00     0.000 OA
ATOM     35   O  GU1 D   2       3.152  41.951 -23.3010  0.00  0.00     0.000 O
ENDBRANCH 27 33
BRANCH 23 36
ATOM     36  O4  GU6 D   3       3.360  46.524 -21.9950  0.00  0.00     0.000 O
BRANCH 36 40
ATOM     37  C1  GU6 D   3       1.107  45.838 -18.6560  0.00  0.00     0.000 C
ATOM     38  C2  GU6 D   3       1.810  44.597 -19.1940  0.00  0.00     0.000 C
ATOM     39  C3  GU6 D   3       2.814  45.001 -20.2420  0.00  0.00     0.000 C
ATOM     40  C4  GU6 D   3       2.791  46.392 -20.7080  0.00  0.00     0.000 C
ATOM     41  C5  GU6 D   3       1.310  46.886 -20.8040  0.00  0.00     0.000 C
ATOM     42  O5  GU6 D   3       0.448  46.487 -19.7320  0.00  0.00     0.000 O
BRANCH 38 43
ATOM     43   O  GU6 D   3       2.457  43.899 -18.1480  0.00  0.00     0.000 O
ATOM     44   S  GU6 D   3       1.952  42.478 -17.9330  0.00  0.00     0.000 S
ATOM     45   O  GU6 D   3       0.722  42.536 -17.1240  0.00  0.00     0.000 OA
ATOM     46   O  GU6 D   3       1.647  41.884 -19.2470  0.00  0.00     0.000 O
ATOM     47   O  GU6 D   3       2.993  41.705 -17.2640  0.00  0.00     0.000 OA
ENDBRANCH 38 43
BRANCH 39 48
ATOM     48   O  GU6 D   3       3.884  44.143 -20.5900  0.00  0.00     0.000 O
ATOM     49   S  GU6 D   3       5.306  44.073 -20.0340  0.00  0.00     0.000 S
ATOM     50   O  GU6 D   3       5.271  43.895 -18.5780  0.00  0.00     0.000 OA
ATOM     51   O  GU6 D   3       5.865  42.889 -20.7010  0.00  0.00     0.000 OA
ATOM     52   O  GU6 D   3       6.017  45.325 -20.3750  0.00  0.00     0.000 O
ENDBRANCH 39 48
BRANCH 41 53
ATOM     53   C  GU6 D   3       0.663  47.740 -21.8610  0.00  0.00     0.000 C
ATOM     54   O  GU6 D   3      -0.205  48.457 -21.0220  0.00  0.00     0.000 O
ATOM     55   S  GU6 D   3      -1.227  49.437 -21.6140  0.00  0.00     0.000 S
ATOM     56   O  GU6 D   3      -2.194  48.627 -22.3910  0.00  0.00     0.000 O
ATOM     57   O  GU6 D   3      -1.902  50.134 -20.5090  0.00  0.00     0.000 OA
ATOM     58   O  GU6 D   3      -0.485  50.368 -22.4920  0.00  0.00     0.000 OA
ENDBRANCH 41 53
BRANCH 37 59
ATOM     59  O4  Z9K D   4       1.732  46.862 -17.8550  0.00  0.00     0.000 O
BRANCH 59 63
ATOM     60  C1  Z9K D   4       0.240  46.582 -14.2300  0.00  0.00     0.000 C
ATOM     61  C2  Z9K D   4      -0.833  47.461 -14.9300  0.00  0.00     0.000 C
ATOM     62  C3  Z9K D   4      -0.323  47.418 -16.4360  0.00  0.00     0.000 C
ATOM     63  C4  Z9K D   4       1.210  47.632 -16.7330  0.00  0.00     0.000 C
ATOM     64  C5  Z9K D   4       2.176  47.257 -15.5990  0.00  0.00     0.000 C
ATOM     65  O5  Z9K D   4       1.493  46.156 -14.9440  0.00  0.00     0.000 O
ATOM     66   O  Z9K D   4      -1.000  48.354 -17.2930  0.00  0.00     0.000 O
ATOM     67   C  Z9K D   4      -2.219  47.874 -17.8370  0.00  0.00     0.000 C
BRANCH 61 68
ATOM     68   O  Z9K D   4      -2.036  46.742 -14.9020  0.00  0.00     0.000 O
ATOM     69   O  Z9K D   4      -2.458  49.260 -14.7280  0.00  0.00     0.000 OA
ATOM     70   S  Z9K D   4      -2.396  48.033 -13.9920  0.00  0.00     0.000 S
ATOM     71   O  Z9K D   4      -1.817  47.865 -12.6940  0.00  0.00     0.000 OA
ATOM     72   O  Z9K D   4      -3.643  47.341 -14.0500  0.00  0.00     0.000 OA
ENDBRANCH 61 68
BRANCH 64 73
ATOM     73   C  Z9K D   4       3.601  47.026 -16.1450  0.00  0.00     0.000 C
ATOM     74   O  Z9K D   4       4.128  45.876 -16.1370  0.00  0.00     0.000 O
ATOM     75   O  Z9K D   4       4.286  47.964 -16.6230  0.00  0.00     0.000 OA
ENDBRANCH 64 73
BRANCH 60 76
ATOM     76  O4  Z9L D   5       0.897  46.808 -12.9710  0.00  0.00     0.000 O
BRANCH 76 80
ATOM     77  C1  Z9L D   5       2.074  45.017  -9.5980  0.00  0.00     0.000 C
ATOM     78  C2  Z9L D   5       3.393  45.578 -10.3160  0.00  0.00     0.000 C
ATOM     79  C3  Z9L D   5       2.877  46.707 -11.4650  0.00  0.00     0.000 C
ATOM     80  C4  Z9L D   5       1.574  45.931 -12.1080  0.00  0.00     0.000 C
ATOM     81  C5  Z9L D   5       0.351  45.156 -11.3960  0.00  0.00     0.000 C
ATOM     82  O5  Z9L D   5       0.923  44.408 -10.3130  0.00  0.00     0.000 O
ATOM     83   C  Z9L D   5       0.398  45.662  -7.9650  0.00  0.00     0.000 C
ATOM     84   C  Z9L D   5       0.398  45.662  -7.9650  0.00  0.00     0.000 C
BRANCH 78 85
ATOM     85   O  Z9L D   5       4.165  46.225  -9.3560  0.00  0.00     0.000 O
ATOM     86   O  Z9L D   5       5.829  45.565  -8.6440  0.00  0.00     0.000 OA
ATOM     87   S  Z9L D   5       5.097  44.967  -9.7190  0.00  0.00     0.000 S
ATOM     88   O  Z9L D   5       5.917  45.169 -10.8880  0.00  0.00     0.000 OA
ATOM     89   O  Z9L D   5       4.673  43.702  -9.2260  0.00  0.00     0.000 OA
ENDBRANCH 78 85
BRANCH 79 90
ATOM     90   O  Z9L D   5       3.754  46.769 -12.5440  0.00  0.00     0.000 O
ATOM     91   S  Z9L D   5       3.790  48.293 -12.0830  0.00  0.00     0.000 S
ATOM     92   O  Z9L D   5       4.142  48.685 -10.7440  0.00  0.00     0.000 OA
ATOM     93   O  Z9L D   5       2.825  49.045 -12.8460  0.00  0.00     0.000 O
ATOM     94   O  Z9L D   5       4.996  48.260 -12.8450  0.00  0.00     0.000 OA
ENDBRANCH 79 90
BRANCH 81 95
ATOM     95   C  Z9L D   5      -0.762  44.396 -12.3930  0.00  0.00     0.000 C
ATOM     96   S  Z9L D   5      -1.272  42.667 -13.2410  0.00  0.00     0.000 S
ATOM     97   O  Z9L D   5       0.081  43.398 -12.9020  0.00  0.00     0.000 O
ATOM     98   O  Z9L D   5      -1.860  43.376 -14.3490  0.00  0.00     0.000 OA
ATOM     99   O  Z9L D   5      -2.053  42.262 -12.1210  0.00  0.00     0.000 OA
ATOM    100   O  Z9L D   5      -0.355  41.684 -13.7640  0.00  0.00     0.000 O
ENDBRANCH 81 95
ENDBRANCH 76 80
ENDBRANCH 60 76
ENDBRANCH 59 63
ENDBRANCH 37 59
ENDBRANCH 36 40
ENDBRANCH 23 36
ENDBRANCH 22 26
ENDBRANCH 1 22
TORSDOF 19
ENDMDL
MODEL 71
REMARK VINA RESULT:      -6.8     17.726     22.102
ROOT
ATOM      1  C1  Z9H D   1      19.379   7.309 -56.2340  0.00  0.00     0.000 C
ATOM      2  C2  Z9H D   1      19.926   8.644 -56.7940  0.00  0.00     0.000 C
ATOM      3  C3  Z9H D   1      18.565   9.381 -56.9790  0.00  0.00     0.000 C
ATOM      4  C4  Z9H D   1      17.454   8.569 -57.7660  0.00  0.00     0.000 C
ATOM      5  C5  Z9H D   1      17.097   7.063 -57.4470  0.00  0.00     0.000 C
ATOM      6  O5  Z9H D   1      18.370   6.561 -56.9680  0.00  0.00     0.000 O
ATOM      7   O  Z9H D   1      18.741  10.674 -57.5620  0.00  0.00     0.000 O
ATOM      8   C  Z9H D   1      18.747  11.772 -56.6350  0.00  0.00     0.000 C
ATOM      9   O  Z9H D   1      16.248   9.328 -57.6290  0.00  0.00     0.000 O
ATOM     10   C  Z9H D   1      15.909  10.157 -58.7450  0.00  0.00     0.000 C
ENDROOT
BRANCH 2 11
ATOM     11   O  Z9H D   1      20.503   9.224 -55.6530  0.00  0.00     0.000 O
ATOM     12   O  Z9H D   1      22.359   9.449 -55.4030  0.00  0.00     0.000 OA
ATOM     13   S  Z9H D   1      21.758   8.907 -56.5750  0.00  0.00     0.000 S
ATOM     14   O  Z9H D   1      21.739   9.811 -57.6890  0.00  0.00     0.000 OA
ATOM     15   O  Z9H D   1      22.012   7.487 -56.6610  0.00  0.00     0.000 O
ENDBRANCH 2 11
BRANCH 5 16
ATOM     16   C  Z9H D   1      16.244   6.268 -58.6470  0.00  0.00     0.000 C
ATOM     17   S  Z9H D   1      14.528   5.306 -59.0630  0.00  0.00     0.000 S
ATOM     18   O  Z9H D   1      14.948   6.624 -58.2290  0.00  0.00     0.000 O
ATOM     19   O  Z9H D   1      14.974   4.066 -58.4950  0.00  0.00     0.000 O
ATOM     20   O  Z9H D   1      14.555   5.579 -60.4580  0.00  0.00     0.000 OA
ATOM     21   O  Z9H D   1      13.239   5.690 -58.5670  0.00  0.00     0.000 OA
ENDBRANCH 5 16
BRANCH 1 22
ATOM     22  O4  GU1 D   2      18.731   7.410 -54.9150  0.00  0.00     0.000 O
BRANCH 22 26
ATOM     23  C1  GU1 D   2      17.493   5.328 -51.5830  0.00  0.00     0.000 C
ATOM     24  C2  GU1 D   2      18.811   4.856 -52.1790  0.00  0.00     0.000 C
ATOM     25  C3  GU1 D   2      19.335   5.903 -53.1180  0.00  0.00     0.000 C
ATOM     26  C4  GU1 D   2      18.284   6.284 -54.1500  0.00  0.00     0.000 C
ATOM     27  C5  GU1 D   2      16.968   6.641 -53.4520  0.00  0.00     0.000 C
ATOM     28  O5  GU1 D   2      16.543   5.571 -52.6130  0.00  0.00     0.000 O
ATOM     29   O  GU1 D   2      19.794   4.623 -51.1780  0.00  0.00     0.000 O
ATOM     30   C  GU1 D   2      19.900   3.263 -50.7820  0.00  0.00     0.000 C
ATOM     31   C  GU1 D   2      21.733   5.826 -53.3110  0.00  0.00     0.000 C
ATOM     32   O  GU1 D   2      20.474   5.369 -53.8000  0.00  0.00     0.000 O
BRANCH 27 33
ATOM     33   C  GU1 D   2      15.872   6.906 -54.4560  0.00  0.00     0.000 C
ATOM     34   O  GU1 D   2      15.366   5.960 -55.0230  0.00  0.00     0.000 OA
ATOM     35   O  GU1 D   2      15.503   8.048 -54.6860  0.00  0.00     0.000 O
ENDBRANCH 27 33
BRANCH 23 36
ATOM     36  O4  GU6 D   3      16.666   4.407 -50.8440  0.00  0.00     0.000 O
BRANCH 36 40
ATOM     37  C1  GU6 D   3      13.727   1.860 -49.5910  0.00  0.00     0.000 C
ATOM     38  C2  GU6 D   3      14.257   2.779 -48.4970  0.00  0.00     0.000 C
ATOM     39  C3  GU6 D   3      15.124   3.847 -49.1110  0.00  0.00     0.000 C
ATOM     40  C4  GU6 D   3      15.482   3.704 -50.5270  0.00  0.00     0.000 C
ATOM     41  C5  GU6 D   3      15.741   2.195 -50.8500  0.00  0.00     0.000 C
ATOM     42  O5  GU6 D   3      14.831   1.264 -50.2550  0.00  0.00     0.000 O
BRANCH 38 43
ATOM     43   O  GU6 D   3      13.188   3.373 -47.7870  0.00  0.00     0.000 O
ATOM     44   S  GU6 D   3      12.822   2.663 -46.4900  0.00  0.00     0.000 S
ATOM     45   O  GU6 D   3      11.959   1.514 -46.8130  0.00  0.00     0.000 OA
ATOM     46   O  GU6 D   3      14.061   2.181 -45.8520  0.00  0.00     0.000 O
ATOM     47   O  GU6 D   3      12.142   3.609 -45.6110  0.00  0.00     0.000 OA
ENDBRANCH 38 43
BRANCH 39 48
ATOM     48   O  GU6 D   3      15.387   5.054 -48.4220  0.00  0.00     0.000 O
ATOM     49   S  GU6 D   3      16.431   5.362 -47.3490  0.00  0.00     0.000 S
ATOM     50   O  GU6 D   3      17.773   5.023 -47.8370  0.00  0.00     0.000 OA
ATOM     51   O  GU6 D   3      16.289   6.812 -47.1530  0.00  0.00     0.000 OA
ATOM     52   O  GU6 D   3      16.119   4.576 -46.1350  0.00  0.00     0.000 O
ENDBRANCH 39 48
BRANCH 41 53
ATOM     53   C  GU6 D   3      16.808   1.582 -51.7160  0.00  0.00     0.000 C
ATOM     54   O  GU6 D   3      16.442   2.187 -52.9290  0.00  0.00     0.000 O
ATOM     55   S  GU6 D   3      17.160   1.815 -54.2330  0.00  0.00     0.000 S
ATOM     56   O  GU6 D   3      16.826   0.399 -54.5150  0.00  0.00     0.000 O
ATOM     57   O  GU6 D   3      16.665   2.689 -55.3060  0.00  0.00     0.000 OA
ATOM     58   O  GU6 D   3      18.611   1.982 -53.9980  0.00  0.00     0.000 OA
ENDBRANCH 41 53
BRANCH 37 59
ATOM     59  O4  Z9K D   4      12.773   2.242 -50.6040  0.00  0.00     0.000 O
BRANCH 59 63
ATOM     60  C1  Z9K D   4       9.749   3.702 -52.6470  0.00  0.00     0.000 C
ATOM     61  C2  Z9K D   4      10.231   4.964 -51.8790  0.00  0.00     0.000 C
ATOM     62  C3  Z9K D   4      11.560   4.415 -51.2000  0.00  0.00     0.000 C
ATOM     63  C4  Z9K D   4      11.536   3.005 -50.4950  0.00  0.00     0.000 C
ATOM     64  C5  Z9K D   4      10.488   2.009 -51.0130  0.00  0.00     0.000 C
ATOM     65  O5  Z9K D   4      10.381   2.356 -52.4190  0.00  0.00     0.000 O
ATOM     66   O  Z9K D   4      12.110   5.310 -50.2180  0.00  0.00     0.000 O
ATOM     67   C  Z9K D   4      12.959   6.314 -50.7490  0.00  0.00     0.000 C
BRANCH 61 68
ATOM     68   O  Z9K D   4      10.638   5.900 -52.8400  0.00  0.00     0.000 O
ATOM     69   O  Z9K D   4       9.623   7.055 -50.7940  0.00  0.00     0.000 OA
ATOM     70   S  Z9K D   4       9.382   6.654 -52.1480  0.00  0.00     0.000 S
ATOM     71   O  Z9K D   4       8.166   6.092 -52.6500  0.00  0.00     0.000 OA
ATOM     72   O  Z9K D   4       9.865   7.637 -53.0630  0.00  0.00     0.000 OA
ENDBRANCH 61 68
BRANCH 64 73
ATOM     73   C  Z9K D   4      10.869   0.563 -50.6330  0.00  0.00     0.000 C
ATOM     74   O  Z9K D   4      10.768   0.149 -49.4420  0.00  0.00     0.000 O
ATOM     75   O  Z9K D   4      11.287  -0.257 -51.4870  0.00  0.00     0.000 OA
ENDBRANCH 64 73
BRANCH 60 76
ATOM     76  O4  Z9L D   5       8.413   3.183 -52.7630  0.00  0.00     0.000 O
BRANCH 76 80
ATOM     77  C1  Z9L D   5       5.745   1.631 -55.3020  0.00  0.00     0.000 C
ATOM     78  C2  Z9L D   5       6.092   0.490 -54.2300  0.00  0.00     0.000 C
ATOM     79  C3  Z9L D   5       6.837   1.262 -52.9230  0.00  0.00     0.000 C
ATOM     80  C4  Z9L D   5       7.834   2.316 -53.7040  0.00  0.00     0.000 C
ATOM     81  C5  Z9L D   5       7.554   3.309 -54.9430  0.00  0.00     0.000 C
ATOM     82  O5  Z9L D   5       6.737   2.579 -55.8700  0.00  0.00     0.000 O
ATOM     83   C  Z9L D   5       4.169   3.437 -55.6870  0.00  0.00     0.000 C
ATOM     84   C  Z9L D   5       4.169   3.437 -55.6870  0.00  0.00     0.000 C
BRANCH 78 85
ATOM     85   O  Z9L D   5       4.896  -0.079 -53.8020  0.00  0.00     0.000 O
ATOM     86   O  Z9L D   5       4.310  -1.867 -54.2180  0.00  0.00     0.000 OA
ATOM     87   S  Z9L D   5       5.591  -1.321 -54.5480  0.00  0.00     0.000 S
ATOM     88   O  Z9L D   5       6.529  -2.043 -53.7250  0.00  0.00     0.000 OA
ATOM     89   O  Z9L D   5       5.621  -1.270 -55.9700  0.00  0.00     0.000 OA
ENDBRANCH 78 85
BRANCH 79 90
ATOM     90   O  Z9L D   5       7.736   0.416 -52.2790  0.00  0.00     0.000 O
ATOM     91   S  Z9L D   5       6.767   0.752 -51.0610  0.00  0.00     0.000 S
ATOM     92   O  Z9L D   5       5.349   0.516 -51.1170  0.00  0.00     0.000 OA
ATOM     93   O  Z9L D   5       7.305   1.863 -50.3150  0.00  0.00     0.000 O
ATOM     94   O  Z9L D   5       7.373  -0.433 -50.5470  0.00  0.00     0.000 OA
ENDBRANCH 79 90
BRANCH 81 95
ATOM     95   C  Z9L D   5       8.858   4.179 -55.5410  0.00  0.00     0.000 C
ATOM     96   S  Z9L D   5      10.275   4.231 -56.9400  0.00  0.00     0.000 S
ATOM     97   O  Z9L D   5       9.574   3.105 -56.0900  0.00  0.00     0.000 O
ATOM     98   O  Z9L D   5      11.145   4.947 -56.0420  0.00  0.00     0.000 OA
ATOM     99   O  Z9L D   5       9.440   4.916 -57.8670  0.00  0.00     0.000 OA
ATOM    100   O  Z9L D   5      10.991   3.090 -57.4540  0.00  0.00     0.000 O
ENDBRANCH 81 95
ENDBRANCH 76 80
ENDBRANCH 60 76
ENDBRANCH 59 63
ENDBRANCH 37 59
ENDBRANCH 36 40
ENDBRANCH 23 36
ENDBRANCH 22 26
ENDBRANCH 1 22
TORSDOF 19
ENDMDL
MODEL 72
REMARK VINA RESULT:      -6.8     36.272     43.396
ROOT
ATOM      1  C1  Z9H D   1       4.241  47.191 -14.6110  0.00  0.00     0.000 C
ATOM      2  C2  Z9H D   1       3.996  46.962 -13.1010  0.00  0.00     0.000 C
ATOM      3  C3  Z9H D   1       2.588  47.625 -13.0010  0.00  0.00     0.000 C
ATOM      4  C4  Z9H D   1       2.475  49.076 -13.6280  0.00  0.00     0.000 C
ATOM      5  C5  Z9H D   1       3.033  49.444 -15.0610  0.00  0.00     0.000 C
ATOM      6  O5  Z9H D   1       4.149  48.527 -15.1780  0.00  0.00     0.000 O
ATOM      7   O  Z9H D   1       2.100  47.625 -11.6580  0.00  0.00     0.000 O
ATOM      8   C  Z9H D   1       1.177  46.570 -11.3390  0.00  0.00     0.000 C
ATOM      9   O  Z9H D   1       1.079  49.394 -13.6240  0.00  0.00     0.000 O
ATOM     10   C  Z9H D   1       0.638  50.225 -12.5460  0.00  0.00     0.000 C
ENDROOT
BRANCH 2 11
ATOM     11   O  Z9H D   1       3.753  45.580 -13.0500  0.00  0.00     0.000 O
ATOM     12   O  Z9H D   1       4.873  44.339 -12.1760  0.00  0.00     0.000 OA
ATOM     13   S  Z9H D   1       5.081  45.748 -12.1940  0.00  0.00     0.000 S
ATOM     14   O  Z9H D   1       4.744  46.401 -10.9620  0.00  0.00     0.000 OA
ATOM     15   O  Z9H D   1       6.215  46.079 -13.0270  0.00  0.00     0.000 O
ENDBRANCH 2 11
BRANCH 5 16
ATOM     16   C  Z9H D   1       3.217  51.082 -15.3500  0.00  0.00     0.000 C
ATOM     17   S  Z9H D   1       4.061  52.773 -14.6660  0.00  0.00     0.000 S
ATOM     18   O  Z9H D   1       4.508  51.229 -14.8100  0.00  0.00     0.000 O
ATOM     19   O  Z9H D   1       3.026  53.014 -13.7030  0.00  0.00     0.000 O
ATOM     20   O  Z9H D   1       4.114  53.419 -15.9310  0.00  0.00     0.000 OA
ATOM     21   O  Z9H D   1       5.368  52.852 -14.0800  0.00  0.00     0.000 OA
ENDBRANCH 5 16
BRANCH 1 22
ATOM     22  O4  GU1 D   2       3.327  46.458 -15.5050  0.00  0.00     0.000 O
BRANCH 22 26
ATOM     23  C1  GU1 D   2       3.103  44.630 -19.1900  0.00  0.00     0.000 C
ATOM     24  C2  GU1 D   2       4.509  44.762 -18.6260  0.00  0.00     0.000 C
ATOM     25  C3  GU1 D   2       4.429  45.076 -17.1600  0.00  0.00     0.000 C
ATOM     26  C4  GU1 D   2       3.542  46.287 -16.9110  0.00  0.00     0.000 C
ATOM     27  C5  GU1 D   2       2.190  46.099 -17.6060  0.00  0.00     0.000 C
ATOM     28  O5  GU1 D   2       2.377  45.838 -18.9950  0.00  0.00     0.000 O
ATOM     29   O  GU1 D   2       5.260  43.563 -18.7830  0.00  0.00     0.000 O
ATOM     30   C  GU1 D   2       6.105  43.560 -19.9250  0.00  0.00     0.000 C
ATOM     31   C  GU1 D   2       6.374  44.315 -15.9640  0.00  0.00     0.000 C
ATOM     32   O  GU1 D   2       5.748  45.371 -16.6880  0.00  0.00     0.000 O
BRANCH 27 33
ATOM     33   C  GU1 D   2       1.333  47.335 -17.4780  0.00  0.00     0.000 C
ATOM     34   O  GU1 D   2       0.388  47.306 -16.7170  0.00  0.00     0.000 OA
ATOM     35   O  GU1 D   2       1.590  48.339 -18.1240  0.00  0.00     0.000 O
ENDBRANCH 27 33
BRANCH 23 36
ATOM     36  O4  GU6 D   3       2.900  44.574 -20.6160  0.00  0.00     0.000 O
BRANCH 36 40
ATOM     37  C1  GU6 D   3       3.109  43.602 -24.5790  0.00  0.00     0.000 C
ATOM     38  C2  GU6 D   3       2.628  45.024 -24.3150  0.00  0.00     0.000 C
ATOM     39  C3  GU6 D   3       2.845  45.369 -22.8650  0.00  0.00     0.000 C
ATOM     40  C4  GU6 D   3       3.237  44.285 -21.9580  0.00  0.00     0.000 C
ATOM     41  C5  GU6 D   3       2.479  42.974 -22.3510  0.00  0.00     0.000 C
ATOM     42  O5  GU6 D   3       2.369  42.714 -23.7550  0.00  0.00     0.000 O
BRANCH 38 43
ATOM     43   O  GU6 D   3       3.318  45.943 -25.1390  0.00  0.00     0.000 O
ATOM     44   S  GU6 D   3       2.704  46.136 -26.5200  0.00  0.00     0.000 S
ATOM     45   O  GU6 D   3       3.150  45.033 -27.3890  0.00  0.00     0.000 OA
ATOM     46   O  GU6 D   3       1.236  46.095 -26.3910  0.00  0.00     0.000 O
ATOM     47   O  GU6 D   3       3.124  47.431 -27.0450  0.00  0.00     0.000 OA
ENDBRANCH 38 43
BRANCH 39 48
ATOM     48   O  GU6 D   3       2.899  46.717 -22.4400  0.00  0.00     0.000 O
ATOM     49   S  GU6 D   3       1.775  47.740 -22.2770  0.00  0.00     0.000 S
ATOM     50   O  GU6 D   3       0.733  47.210 -21.3900  0.00  0.00     0.000 OA
ATOM     51   O  GU6 D   3       2.457  48.890 -21.6680  0.00  0.00     0.000 OA
ATOM     52   O  GU6 D   3       1.202  48.039 -23.6090  0.00  0.00     0.000 O
ENDBRANCH 39 48
BRANCH 41 53
ATOM     53   C  GU6 D   3       1.859  41.934 -21.4580  0.00  0.00     0.000 C
ATOM     54   O  GU6 D   3       2.464  40.804 -22.0320  0.00  0.00     0.000 O
ATOM     55   S  GU6 D   3       2.086  39.394 -21.5590  0.00  0.00     0.000 S
ATOM     56   O  GU6 D   3       0.672  39.179 -21.9450  0.00  0.00     0.000 O
ATOM     57   O  GU6 D   3       2.962  38.424 -22.2330  0.00  0.00     0.000 OA
ATOM     58   O  GU6 D   3       2.247  39.366 -20.0880  0.00  0.00     0.000 OA
ENDBRANCH 41 53
BRANCH 37 59
ATOM     59  O4  Z9K D   4       4.486  43.173 -24.5440  0.00  0.00     0.000 O
BRANCH 59 63
ATOM     60  C1  Z9K D   4       6.174  42.310 -27.9870  0.00  0.00     0.000 C
ATOM     61  C2  Z9K D   4       5.180  41.126 -27.8340  0.00  0.00     0.000 C
ATOM     62  C3  Z9K D   4       4.374  41.575 -26.5390  0.00  0.00     0.000 C
ATOM     63  C4  Z9K D   4       5.167  42.124 -25.2920  0.00  0.00     0.000 C
ATOM     64  C5  Z9K D   4       6.531  42.765 -25.5890  0.00  0.00     0.000 C
ATOM     65  O5  Z9K D   4       6.335  43.345 -26.9060  0.00  0.00     0.000 O
ATOM     66   O  Z9K D   4       3.525  40.540 -26.0100  0.00  0.00     0.000 O
ATOM     67   C  Z9K D   4       2.244  40.467 -26.6140  0.00  0.00     0.000 C
BRANCH 61 68
ATOM     68   O  Z9K D   4       4.280  41.204 -28.9040  0.00  0.00     0.000 O
ATOM     69   O  Z9K D   4       4.566  38.789 -28.1100  0.00  0.00     0.000 OA
ATOM     70   S  Z9K D   4       4.930  39.736 -29.1200  0.00  0.00     0.000 S
ATOM     71   O  Z9K D   4       6.229  39.883 -29.7000  0.00  0.00     0.000 OA
ATOM     72   O  Z9K D   4       3.942  39.789 -30.1490  0.00  0.00     0.000 OA
ENDBRANCH 61 68
BRANCH 64 73
ATOM     73   C  Z9K D   4       6.969  43.686 -24.4310  0.00  0.00     0.000 C
ATOM     74   O  Z9K D   4       6.998  44.943 -24.5680  0.00  0.00     0.000 O
ATOM     75   O  Z9K D   4       7.306  43.227 -23.3120  0.00  0.00     0.000 OA
ENDBRANCH 64 73
BRANCH 60 76
ATOM     76  O4  Z9L D   5       7.574  42.267 -28.3110  0.00  0.00     0.000 O
BRANCH 76 80
ATOM     77  C1  Z9L D   5      10.465  43.631 -30.7090  0.00  0.00     0.000 C
ATOM     78  C2  Z9L D   5      10.689  44.307 -29.2720  0.00  0.00     0.000 C
ATOM     79  C3  Z9L D   5       9.783  43.405 -28.1650  0.00  0.00     0.000 C
ATOM     80  C4  Z9L D   5       8.393  43.165 -29.0150  0.00  0.00     0.000 C
ATOM     81  C5  Z9L D   5       8.156  42.704 -30.5420  0.00  0.00     0.000 C
ATOM     82  O5  Z9L D   5       9.136  43.397 -31.3290  0.00  0.00     0.000 O
ATOM     83   C  Z9L D   5      11.134  41.688 -32.0010  0.00  0.00     0.000 C
ATOM     84   C  Z9L D   5      11.134  41.688 -32.0010  0.00  0.00     0.000 C
BRANCH 78 85
ATOM     85   O  Z9L D   5      12.039  44.202 -28.9510  0.00  0.00     0.000 O
ATOM     86   O  Z9L D   5      13.284  45.671 -28.9060  0.00  0.00     0.000 OA
ATOM     87   S  Z9L D   5      11.873  45.792 -29.1130  0.00  0.00     0.000 S
ATOM     88   O  Z9L D   5      11.377  46.448 -27.9280  0.00  0.00     0.000 OA
ATOM     89   O  Z9L D   5      11.729  46.282 -30.4400  0.00  0.00     0.000 OA
ENDBRANCH 78 85
BRANCH 79 90
ATOM     90   O  Z9L D   5       9.355  44.191 -27.0990  0.00  0.00     0.000 O
ATOM     91   S  Z9L D   5      10.299  43.174 -26.3170  0.00  0.00     0.000 S
ATOM     92   O  Z9L D   5      11.683  42.985 -26.6650  0.00  0.00     0.000 OA
ATOM     93   O  Z9L D   5       9.507  42.083 -25.8080  0.00  0.00     0.000 O
ATOM     94   O  Z9L D   5      10.246  44.222 -25.3500  0.00  0.00     0.000 OA
ENDBRANCH 79 90
BRANCH 81 95
ATOM     95   C  Z9L D   5       6.574  42.658 -31.0950  0.00  0.00     0.000 C
ATOM     96   S  Z9L D   5       5.419  42.579 -32.7160  0.00  0.00     0.000 S
ATOM     97   O  Z9L D   5       6.784  43.269 -32.3400  0.00  0.00     0.000 O
ATOM     98   O  Z9L D   5       4.384  43.302 -32.0230  0.00  0.00     0.000 OA
ATOM     99   O  Z9L D   5       5.433  41.155 -32.7500  0.00  0.00     0.000 OA
ATOM    100   O  Z9L D   5       5.681  43.245 -33.9680  0.00  0.00     0.000 O
ENDBRANCH 81 95
ENDBRANCH 76 80
ENDBRANCH 60 76
ENDBRANCH 59 63
ENDBRANCH 37 59
ENDBRANCH 36 40
ENDBRANCH 23 36
ENDBRANCH 22 26
ENDBRANCH 1 22
TORSDOF 19
ENDMDL
MODEL 73
REMARK VINA RESULT:      -6.8     38.636     48.229
ROOT
ATOM      1  C1  Z9H D   1       9.475  10.451  -3.1920  0.00  0.00     0.000 C
ATOM      2  C2  Z9H D   1       9.717   9.786  -1.8160  0.00  0.00     0.000 C
ATOM      3  C3  Z9H D   1       8.330  10.095  -1.1730  0.00  0.00     0.000 C
ATOM      4  C4  Z9H D   1       7.857  11.605  -1.2710  0.00  0.00     0.000 C
ATOM      5  C5  Z9H D   1       7.918  12.444  -2.6090  0.00  0.00     0.000 C
ATOM      6  O5  Z9H D   1       9.055  11.841  -3.2750  0.00  0.00     0.000 O
ATOM      7   O  Z9H D   1       8.263   9.640   0.1800  0.00  0.00     0.000 O
ATOM      8   C  Z9H D   1       7.615   8.371   0.3710  0.00  0.00     0.000 C
ATOM      9   O  Z9H D   1       6.496  11.615  -0.8270  0.00  0.00     0.000 O
ATOM     10   C  Z9H D   1       6.293  12.024   0.5300  0.00  0.00     0.000 C
ENDROOT
BRANCH 2 11
ATOM     11   O  Z9H D   1       9.674   8.421  -2.1390  0.00  0.00     0.000 O
ATOM     12   O  Z9H D   1      11.164   7.267  -2.0610  0.00  0.00     0.000 OA
ATOM     13   S  Z9H D   1      11.182   8.642  -1.6910  0.00  0.00     0.000 S
ATOM     14   O  Z9H D   1      11.204   8.860  -0.2720  0.00  0.00     0.000 OA
ATOM     15   O  Z9H D   1      11.920   9.416  -2.6620  0.00  0.00     0.000 O
ENDBRANCH 2 11
BRANCH 5 16
ATOM     16   C  Z9H D   1       7.803  14.102  -2.4110  0.00  0.00     0.000 C
ATOM     17   S  Z9H D   1       8.490  15.873  -3.0680  0.00  0.00     0.000 S
ATOM     18   O  Z9H D   1       8.057  14.473  -3.7440  0.00  0.00     0.000 O
ATOM     19   O  Z9H D   1       9.681  15.815  -2.2710  0.00  0.00     0.000 O
ATOM     20   O  Z9H D   1       7.336  16.613  -2.6920  0.00  0.00     0.000 OA
ATOM     21   O  Z9H D   1       8.777  16.177  -4.4390  0.00  0.00     0.000 OA
ENDBRANCH 5 16
BRANCH 1 22
ATOM     22  O4  GU1 D   2       8.437   9.808  -4.0160  0.00  0.00     0.000 O
BRANCH 22 26
ATOM     23  C1  GU1 D   2       7.358   8.853  -7.8760  0.00  0.00     0.000 C
ATOM     24  C2  GU1 D   2       8.858   8.917  -7.6280  0.00  0.00     0.000 C
ATOM     25  C3  GU1 D   2       9.119   8.887  -6.1500  0.00  0.00     0.000 C
ATOM     26  C4  GU1 D   2       8.323   9.969  -5.4350  0.00  0.00     0.000 C
ATOM     27  C5  GU1 D   2       6.846   9.883  -5.8330  0.00  0.00     0.000 C
ATOM     28  O5  GU1 D   2       6.706   9.952  -7.2490  0.00  0.00     0.000 O
ATOM     29   O  GU1 D   2       9.542   7.820  -8.2220  0.00  0.00     0.000 O
ATOM     30   C  GU1 D   2      10.103   8.114  -9.4940  0.00  0.00     0.000 C
ATOM     31   C  GU1 D   2      11.280   7.963  -5.6310  0.00  0.00     0.000 C
ATOM     32   O  GU1 D   2      10.513   9.126  -5.9330  0.00  0.00     0.000 O
BRANCH 27 33
ATOM     33   C  GU1 D   2       6.051  11.018  -5.2330  0.00  0.00     0.000 C
ATOM     34   O  GU1 D   2       5.253  10.764  -4.3550  0.00  0.00     0.000 OA
ATOM     35   O  GU1 D   2       6.214  12.164  -5.6230  0.00  0.00     0.000 O
ENDBRANCH 27 33
BRANCH 23 36
ATOM     36  O4  GU6 D   3       6.834   9.112  -9.1930  0.00  0.00     0.000 O
BRANCH 36 40
ATOM     37  C1  GU6 D   3       4.109   8.556 -12.1870  0.00  0.00     0.000 C
ATOM     38  C2  GU6 D   3       4.562  10.002 -12.0240  0.00  0.00     0.000 C
ATOM     39  C3  GU6 D   3       5.748  10.058 -11.0970  0.00  0.00     0.000 C
ATOM     40  C4  GU6 D   3       6.104   8.833 -10.3710  0.00  0.00     0.000 C
ATOM     41  C5  GU6 D   3       4.800   8.084  -9.9390  0.00  0.00     0.000 C
ATOM     42  O5  GU6 D   3       3.750   8.048 -10.9120  0.00  0.00     0.000 O
BRANCH 38 43
ATOM     43   O  GU6 D   3       4.903  10.561 -13.2770  0.00  0.00     0.000 O
ATOM     44   S  GU6 D   3       3.852  11.501 -13.8530  0.00  0.00     0.000 S
ATOM     45   O  GU6 D   3       2.807  10.693 -14.5050  0.00  0.00     0.000 OA
ATOM     46   O  GU6 D   3       3.255  12.273 -12.7480  0.00  0.00     0.000 O
ATOM     47   O  GU6 D   3       4.496  12.403 -14.8020  0.00  0.00     0.000 OA
ENDBRANCH 38 43
BRANCH 39 48
ATOM     48   O  GU6 D   3       6.623  11.170 -11.1020  0.00  0.00     0.000 O
ATOM     49   S  GU6 D   3       7.892  11.416 -11.9160  0.00  0.00     0.000 S
ATOM     50   O  GU6 D   3       7.607  11.280 -13.3490  0.00  0.00     0.000 OA
ATOM     51   O  GU6 D   3       8.244  12.801 -11.5740  0.00  0.00     0.000 OA
ATOM     52   O  GU6 D   3       8.921  10.434 -11.5090  0.00  0.00     0.000 O
ENDBRANCH 39 48
BRANCH 41 53
ATOM     53   C  GU6 D   3       4.497   7.379  -8.6450  0.00  0.00     0.000 C
ATOM     54   O  GU6 D   3       3.398   8.161  -8.2540  0.00  0.00     0.000 O
ATOM     55   S  GU6 D   3       2.734   7.941  -6.8880  0.00  0.00     0.000 S
ATOM     56   O  GU6 D   3       3.730   8.326  -5.8610  0.00  0.00     0.000 O
ATOM     57   O  GU6 D   3       1.543   8.799  -6.8040  0.00  0.00     0.000 OA
ATOM     58   O  GU6 D   3       2.396   6.504  -6.7900  0.00  0.00     0.000 OA
ENDBRANCH 41 53
BRANCH 37 59
ATOM     59  O4  Z9K D   4       4.858   7.525 -12.8650  0.00  0.00     0.000 O
BRANCH 59 63
ATOM     60  C1  Z9K D   4       2.615   6.752 -15.9980  0.00  0.00     0.000 C
ATOM     61  C2  Z9K D   4       2.095   5.693 -14.9870  0.00  0.00     0.000 C
ATOM     62  C3  Z9K D   4       2.871   6.128 -13.6690  0.00  0.00     0.000 C
ATOM     63  C4  Z9K D   4       4.408   6.466 -13.7590  0.00  0.00     0.000 C
ATOM     64  C5  Z9K D   4       4.912   6.953 -15.1260  0.00  0.00     0.000 C
ATOM     65  O5  Z9K D   4       3.763   7.662 -15.6590  0.00  0.00     0.000 O
ATOM     66   O  Z9K D   4       2.766   5.167 -12.6030  0.00  0.00     0.000 O
ATOM     67   C  Z9K D   4       1.605   5.307 -11.8000  0.00  0.00     0.000 C
BRANCH 61 68
ATOM     68   O  Z9K D   4       0.741   5.974 -14.7570  0.00  0.00     0.000 O
ATOM     69   O  Z9K D   4       1.195   3.457 -14.6520  0.00  0.00     0.000 OA
ATOM     70   S  Z9K D   4       0.666   4.516 -15.4590  0.00  0.00     0.000 S
ATOM     71   O  Z9K D   4       0.856   4.667 -16.8690  0.00  0.00     0.000 OA
ATOM     72   O  Z9K D   4      -0.700   4.770 -15.1330  0.00  0.00     0.000 OA
ENDBRANCH 61 68
BRANCH 64 73
ATOM     73   C  Z9K D   4       6.249   7.711 -14.9790  0.00  0.00     0.000 C
ATOM     74   O  Z9K D   4       6.401   8.871 -15.4590  0.00  0.00     0.000 O
ATOM     75   O  Z9K D   4       7.230   7.211 -14.3760  0.00  0.00     0.000 OA
ENDBRANCH 64 73
BRANCH 60 76
ATOM     76  O4  Z9L D   5       3.021   6.560 -17.3640  0.00  0.00     0.000 O
BRANCH 76 80
ATOM     77  C1  Z9L D   5       2.675   8.106 -21.0330  0.00  0.00     0.000 C
ATOM     78  C2  Z9L D   5       4.240   8.079 -20.6800  0.00  0.00     0.000 C
ATOM     79  C3  Z9L D   5       4.423   7.029 -19.3670  0.00  0.00     0.000 C
ATOM     80  C4  Z9L D   5       3.137   7.463 -18.4330  0.00  0.00     0.000 C
ATOM     81  C5  Z9L D   5       1.592   7.720 -18.8200  0.00  0.00     0.000 C
ATOM     82  O5  Z9L D   5       1.601   8.439 -20.0620  0.00  0.00     0.000 O
ATOM     83   C  Z9L D   5       0.959   6.754 -22.0900  0.00  0.00     0.000 C
ATOM     84   C  Z9L D   5       0.959   6.754 -22.0900  0.00  0.00     0.000 C
BRANCH 78 85
ATOM     85   O  Z9L D   5       4.921   7.561 -21.7770  0.00  0.00     0.000 O
ATOM     86   O  Z9L D   5       6.061   8.575 -22.9520  0.00  0.00     0.000 OA
ATOM     87   S  Z9L D   5       5.460   9.074 -21.7530  0.00  0.00     0.000 S
ATOM     88   O  Z9L D   5       6.559   9.285 -20.8440  0.00  0.00     0.000 OA
ATOM     89   O  Z9L D   5       4.548  10.078 -22.1810  0.00  0.00     0.000 OA
ENDBRANCH 78 85
BRANCH 79 90
ATOM     90   O  Z9L D   5       5.508   7.392 -18.5740  0.00  0.00     0.000 O
ATOM     91   S  Z9L D   5       5.927   5.897 -18.9310  0.00  0.00     0.000 S
ATOM     92   O  Z9L D   5       6.048   5.434 -20.2880  0.00  0.00     0.000 OA
ATOM     93   O  Z9L D   5       5.479   5.014 -17.8830  0.00  0.00     0.000 O
ATOM     94   O  Z9L D   5       7.203   6.402 -18.5400  0.00  0.00     0.000 OA
ENDBRANCH 79 90
BRANCH 81 95
ATOM     95   C  Z9L D   5       0.571   8.248 -17.5980  0.00  0.00     0.000 C
ATOM     96   S  Z9L D   5      -0.317   9.840 -16.7960  0.00  0.00     0.000 S
ATOM     97   O  Z9L D   5       1.075   9.551 -17.4730  0.00  0.00     0.000 O
ATOM     98   O  Z9L D   5      -0.287   9.213 -15.5000  0.00  0.00     0.000 OA
ATOM     99   O  Z9L D   5      -1.454   9.729 -17.6470  0.00  0.00     0.000 OA
ATOM    100   O  Z9L D   5       0.260  11.157 -16.6790  0.00  0.00     0.000 O
ENDBRANCH 81 95
ENDBRANCH 76 80
ENDBRANCH 60 76
ENDBRANCH 59 63
ENDBRANCH 37 59
ENDBRANCH 36 40
ENDBRANCH 23 36
ENDBRANCH 22 26
ENDBRANCH 1 22
TORSDOF 19
ENDMDL
MODEL 74
REMARK VINA RESULT:      -6.7     27.538     33.947
ROOT
ATOM      1  C1  Z9H D   1      19.463   9.331 -35.3510  0.00  0.00     0.000 C
ATOM      2  C2  Z9H D   1      20.428   9.627 -36.5240  0.00  0.00     0.000 C
ATOM      3  C3  Z9H D   1      21.520   8.566 -36.1870  0.00  0.00     0.000 C
ATOM      4  C4  Z9H D   1      22.039   8.577 -34.6900  0.00  0.00     0.000 C
ATOM      5  C5  Z9H D   1      21.072   8.624 -33.4400  0.00  0.00     0.000 C
ATOM      6  O5  Z9H D   1      19.943   9.357 -33.9780  0.00  0.00     0.000 O
ATOM      7   O  Z9H D   1      22.621   8.637 -37.0950  0.00  0.00     0.000 O
ATOM      8   C  Z9H D   1      22.597   7.679 -38.1670  0.00  0.00     0.000 C
ATOM      9   O  Z9H D   1      22.852   7.408 -34.5520  0.00  0.00     0.000 O
ATOM     10   C  Z9H D   1      24.263   7.621 -34.6550  0.00  0.00     0.000 C
ENDROOT
BRANCH 2 11
ATOM     11   O  Z9H D   1      19.728   9.097 -37.6190  0.00  0.00     0.000 O
ATOM     12   O  Z9H D   1      19.057  10.129 -39.0480  0.00  0.00     0.000 OA
ATOM     13   S  Z9H D   1      19.810  10.647 -37.9560  0.00  0.00     0.000 S
ATOM     14   O  Z9H D   1      21.170  10.965 -38.2870  0.00  0.00     0.000 OA
ATOM     15   O  Z9H D   1      18.962  11.428 -37.0860  0.00  0.00     0.000 O
ENDBRANCH 2 11
BRANCH 5 16
ATOM     16   C  Z9H D   1      21.796   9.074 -32.0000  0.00  0.00     0.000 C
ATOM     17   S  Z9H D   1      21.441   9.637 -30.1040  0.00  0.00     0.000 S
ATOM     18   O  Z9H D   1      20.826   8.549 -31.1260  0.00  0.00     0.000 O
ATOM     19   O  Z9H D   1      21.188  11.005 -30.4570  0.00  0.00     0.000 O
ATOM     20   O  Z9H D   1      22.686   9.182 -29.5920  0.00  0.00     0.000 OA
ATOM     21   O  Z9H D   1      20.403   9.097 -29.2750  0.00  0.00     0.000 OA
ENDBRANCH 5 16
BRANCH 1 22
ATOM     22  O4  GU1 D   2      18.833   7.999 -35.3890  0.00  0.00     0.000 O
BRANCH 22 26
ATOM     23  C1  GU1 D   2      15.197   6.127 -34.8930  0.00  0.00     0.000 C
ATOM     24  C2  GU1 D   2      15.118   7.630 -35.1110  0.00  0.00     0.000 C
ATOM     25  C3  GU1 D   2      16.429   8.124 -35.6510  0.00  0.00     0.000 C
ATOM     26  C4  GU1 D   2      17.583   7.683 -34.7640  0.00  0.00     0.000 C
ATOM     27  C5  GU1 D   2      17.512   6.172 -34.5220  0.00  0.00     0.000 C
ATOM     28  O5  GU1 D   2      16.243   5.814 -33.9800  0.00  0.00     0.000 O
ATOM     29   O  GU1 D   2      14.095   7.980 -36.0360  0.00  0.00     0.000 O
ATOM     30   C  GU1 D   2      12.873   8.366 -35.4230  0.00  0.00     0.000 C
ATOM     31   C  GU1 D   2      16.169  10.121 -36.9690  0.00  0.00     0.000 C
ATOM     32   O  GU1 D   2      16.395   9.554 -35.6810  0.00  0.00     0.000 O
BRANCH 27 33
ATOM     33   C  GU1 D   2      18.575   5.724 -33.5470  0.00  0.00     0.000 C
ATOM     34   O  GU1 D   2      18.502   6.105 -32.3970  0.00  0.00     0.000 OA
ATOM     35   O  GU1 D   2      19.481   4.991 -33.9110  0.00  0.00     0.000 O
ENDBRANCH 27 33
BRANCH 23 36
ATOM     36  O4  GU6 D   3      14.161   5.449 -34.1540  0.00  0.00     0.000 O
BRANCH 36 40
ATOM     37  C1  GU6 D   3      11.950   3.505 -31.3210  0.00  0.00     0.000 C
ATOM     38  C2  GU6 D   3      11.719   3.000 -32.7400  0.00  0.00     0.000 C
ATOM     39  C3  GU6 D   3      12.762   3.581 -33.6590  0.00  0.00     0.000 C
ATOM     40  C4  GU6 D   3      13.625   4.641 -33.1260  0.00  0.00     0.000 C
ATOM     41  C5  GU6 D   3      12.787   5.577 -32.1930  0.00  0.00     0.000 C
ATOM     42  O5  GU6 D   3      11.857   4.921 -31.3240  0.00  0.00     0.000 O
BRANCH 38 43
ATOM     43   O  GU6 D   3      11.773   1.587 -32.7800  0.00  0.00     0.000 O
ATOM     44   S  GU6 D   3      10.511   0.925 -33.3180  0.00  0.00     0.000 S
ATOM     45   O  GU6 D   3       9.522   0.849 -32.2290  0.00  0.00     0.000 OA
ATOM     46   O  GU6 D   3       9.973   1.754 -34.4110  0.00  0.00     0.000 O
ATOM     47   O  GU6 D   3      10.853  -0.403 -33.8190  0.00  0.00     0.000 OA
ENDBRANCH 38 43
BRANCH 39 48
ATOM     48   O  GU6 D   3      13.056   2.972 -34.9020  0.00  0.00     0.000 O
ATOM     49   S  GU6 D   3      14.173   1.999 -35.2780  0.00  0.00     0.000 S
ATOM     50   O  GU6 D   3      14.142   0.828 -34.3950  0.00  0.00     0.000 OA
ATOM     51   O  GU6 D   3      13.842   1.631 -36.6610  0.00  0.00     0.000 OA
ATOM     52   O  GU6 D   3      15.475   2.693 -35.1540  0.00  0.00     0.000 O
ENDBRANCH 39 48
BRANCH 41 53
ATOM     53   C  GU6 D   3      12.832   7.076 -32.0680  0.00  0.00     0.000 C
ATOM     54   O  GU6 D   3      14.189   7.199 -31.7300  0.00  0.00     0.000 O
ATOM     55   S  GU6 D   3      14.780   8.567 -31.3640  0.00  0.00     0.000 S
ATOM     56   O  GU6 D   3      14.137   8.984 -30.0960  0.00  0.00     0.000 O
ATOM     57   O  GU6 D   3      16.231   8.419 -31.1870  0.00  0.00     0.000 OA
ATOM     58   O  GU6 D   3      14.443   9.499 -32.4630  0.00  0.00     0.000 OA
ENDBRANCH 41 53
BRANCH 37 59
ATOM     59  O4  Z9K D   4      13.074   3.151 -30.4890  0.00  0.00     0.000 O
BRANCH 59 63
ATOM     60  C1  Z9K D   4      15.317   1.102 -27.9950  0.00  0.00     0.000 C
ATOM     61  C2  Z9K D   4      14.022   0.244 -28.0080  0.00  0.00     0.000 C
ATOM     62  C3  Z9K D   4      13.191   0.971 -29.1530  0.00  0.00     0.000 C
ATOM     63  C4  Z9K D   4      13.113   2.546 -29.1630  0.00  0.00     0.000 C
ATOM     64  C5  Z9K D   4      14.284   3.284 -28.4990  0.00  0.00     0.000 C
ATOM     65  O5  Z9K D   4      15.408   2.399 -28.7510  0.00  0.00     0.000 O
ATOM     66   O  Z9K D   4      11.823   0.532 -29.2290  0.00  0.00     0.000 O
ATOM     67   C  Z9K D   4      11.624  -0.632 -30.0140  0.00  0.00     0.000 C
BRANCH 61 68
ATOM     68   O  Z9K D   4      14.369  -1.016 -28.5130  0.00  0.00     0.000 O
ATOM     69   O  Z9K D   4      12.482  -1.195 -26.7940  0.00  0.00     0.000 OA
ATOM     70   S  Z9K D   4      13.885  -1.379 -27.0110  0.00  0.00     0.000 S
ATOM     71   O  Z9K D   4      14.926  -1.034 -26.0910  0.00  0.00     0.000 OA
ATOM     72   O  Z9K D   4      14.150  -2.666 -27.5670  0.00  0.00     0.000 OA
ENDBRANCH 61 68
BRANCH 64 73
ATOM     73   C  Z9K D   4      14.364   4.744 -28.9920  0.00  0.00     0.000 C
ATOM     74   O  Z9K D   4      13.494   5.599 -28.6550  0.00  0.00     0.000 O
ATOM     75   O  Z9K D   4      15.293   5.140 -29.7380  0.00  0.00     0.000 OA
ENDBRANCH 64 73
BRANCH 60 76
ATOM     76  O4  Z9L D   5      16.062   1.580 -26.8610  0.00  0.00     0.000 O
BRANCH 76 80
ATOM     77  C1  Z9L D   5      19.689   2.473 -25.4410  0.00  0.00     0.000 C
ATOM     78  C2  Z9L D   5      18.899   3.858 -25.6150  0.00  0.00     0.000 C
ATOM     79  C3  Z9L D   5      17.260   3.466 -25.7640  0.00  0.00     0.000 C
ATOM     80  C4  Z9L D   5      17.337   2.160 -26.7650  0.00  0.00     0.000 C
ATOM     81  C5  Z9L D   5      18.292   0.861 -26.7330  0.00  0.00     0.000 C
ATOM     82  O5  Z9L D   5      19.603   1.332 -26.3880  0.00  0.00     0.000 O
ATOM     83   C  Z9L D   5      20.123   0.747 -23.7900  0.00  0.00     0.000 C
ATOM     84   C  Z9L D   5      20.123   0.747 -23.7900  0.00  0.00     0.000 C
BRANCH 78 85
ATOM     85   O  Z9L D   5      19.085   4.609 -24.4580  0.00  0.00     0.000 O
ATOM     86   O  Z9L D   5      20.058   6.269 -24.3620  0.00  0.00     0.000 OA
ATOM     87   S  Z9L D   5      19.758   5.558 -25.5670  0.00  0.00     0.000 S
ATOM     88   O  Z9L D   5      18.813   6.393 -26.2680  0.00  0.00     0.000 OA
ATOM     89   O  Z9L D   5      21.017   5.140 -26.0790  0.00  0.00     0.000 OA
ENDBRANCH 78 85
BRANCH 79 90
ATOM     90   O  Z9L D   5      16.583   4.403 -26.5390  0.00  0.00     0.000 O
ATOM     91   S  Z9L D   5      15.758   4.533 -25.1840  0.00  0.00     0.000 S
ATOM     92   O  Z9L D   5      16.385   4.841 -23.9260  0.00  0.00     0.000 OA
ATOM     93   O  Z9L D   5      14.602   3.673 -25.2450  0.00  0.00     0.000 O
ATOM     94   O  Z9L D   5      15.393   5.773 -25.7900  0.00  0.00     0.000 OA
ENDBRANCH 79 90
BRANCH 81 95
ATOM     95   C  Z9L D   5      18.142  -0.235 -27.9930  0.00  0.00     0.000 C
ATOM     96   S  Z9L D   5      18.855  -0.774 -29.7730  0.00  0.00     0.000 S
ATOM     97   O  Z9L D   5      18.609   0.590 -29.0260  0.00  0.00     0.000 O
ATOM     98   O  Z9L D   5      17.560  -1.282 -30.1460  0.00  0.00     0.000 OA
ATOM     99   O  Z9L D   5      19.847  -1.622 -29.2030  0.00  0.00     0.000 OA
ATOM    100   O  Z9L D   5      19.307   0.125 -30.8060  0.00  0.00     0.000 O
ENDBRANCH 81 95
ENDBRANCH 76 80
ENDBRANCH 60 76
ENDBRANCH 59 63
ENDBRANCH 37 59
ENDBRANCH 36 40
ENDBRANCH 23 36
ENDBRANCH 22 26
ENDBRANCH 1 22
TORSDOF 19
ENDMDL
MODEL 75
REMARK VINA RESULT:      -6.7     29.186     34.659
ROOT
ATOM      1  C1  Z9H D   1       0.690  42.287 -37.5700  0.00  0.00     0.000 C
ATOM      2  C2  Z9H D   1      -0.076  41.257 -38.4350  0.00  0.00     0.000 C
ATOM      3  C3  Z9H D   1       1.125  40.748 -39.2900  0.00  0.00     0.000 C
ATOM      4  C4  Z9H D   1       2.004  41.879 -39.9680  0.00  0.00     0.000 C
ATOM      5  C5  Z9H D   1       2.529  43.150 -39.1870  0.00  0.00     0.000 C
ATOM      6  O5  Z9H D   1       1.484  43.331 -38.1990  0.00  0.00     0.000 O
ATOM      7   O  Z9H D   1       0.708  39.791 -40.2650  0.00  0.00     0.000 O
ATOM      8   C  Z9H D   1       0.908  38.415 -39.9030  0.00  0.00     0.000 C
ATOM      9   O  Z9H D   1       3.150  41.211 -40.5060  0.00  0.00     0.000 O
ATOM     10   C  Z9H D   1       3.096  40.926 -41.9070  0.00  0.00     0.000 C
ENDROOT
BRANCH 2 11
ATOM     11   O  Z9H D   1      -0.328  40.231 -37.5110  0.00  0.00     0.000 O
ATOM     12   O  Z9H D   1      -2.041  39.794 -36.8540  0.00  0.00     0.000 OA
ATOM     13   S  Z9H D   1      -1.777  40.801 -37.8260  0.00  0.00     0.000 S
ATOM     14   O  Z9H D   1      -2.130  40.421 -39.1650  0.00  0.00     0.000 OA
ATOM     15   O  Z9H D   1      -1.969  42.115 -37.2570  0.00  0.00     0.000 O
ENDBRANCH 2 11
BRANCH 5 16
ATOM     16   C  Z9H D   1       3.040  44.415 -40.1560  0.00  0.00     0.000 C
ATOM     17   S  Z9H D   1       2.947  45.191 -42.0080  0.00  0.00     0.000 S
ATOM     18   O  Z9H D   1       1.909  44.487 -40.9910  0.00  0.00     0.000 O
ATOM     19   O  Z9H D   1       3.965  44.323 -42.5260  0.00  0.00     0.000 O
ATOM     20   O  Z9H D   1       3.195  46.531 -41.6060  0.00  0.00     0.000 OA
ATOM     21   O  Z9H D   1       1.773  45.192 -42.8320  0.00  0.00     0.000 OA
ENDBRANCH 5 16
BRANCH 1 22
ATOM     22  O4  GU1 D   2       1.689  41.706 -36.6550  0.00  0.00     0.000 O
BRANCH 22 26
ATOM     23  C1  GU1 D   2       3.490  42.116 -32.9730  0.00  0.00     0.000 C
ATOM     24  C2  GU1 D   2       2.054  42.612 -33.0410  0.00  0.00     0.000 C
ATOM     25  C3  GU1 D   2       1.399  42.071 -34.2790  0.00  0.00     0.000 C
ATOM     26  C4  GU1 D   2       2.227  42.387 -35.5150  0.00  0.00     0.000 C
ATOM     27  C5  GU1 D   2       3.677  41.942 -35.3030  0.00  0.00     0.000 C
ATOM     28  O5  GU1 D   2       4.213  42.536 -34.1240  0.00  0.00     0.000 O
ATOM     29   O  GU1 D   2       1.292  42.193 -31.9150  0.00  0.00     0.000 O
ATOM     30   C  GU1 D   2       1.201  43.169 -30.8870  0.00  0.00     0.000 C
ATOM     31   C  GU1 D   2      -0.987  41.872 -34.0270  0.00  0.00     0.000 C
ATOM     32   O  GU1 D   2       0.115  42.688 -34.4180  0.00  0.00     0.000 O
BRANCH 27 33
ATOM     33   C  GU1 D   2       4.550  42.351 -36.4660  0.00  0.00     0.000 C
ATOM     34   O  GU1 D   2       4.870  43.518 -36.5650  0.00  0.00     0.000 OA
ATOM     35   O  GU1 D   2       4.926  41.524 -37.2810  0.00  0.00     0.000 O
ENDBRANCH 27 33
BRANCH 23 36
ATOM     36  O4  GU6 D   3       4.405  42.687 -32.0170  0.00  0.00     0.000 O
BRANCH 36 40
ATOM     37  C1  GU6 D   3       6.539  43.635 -28.6640  0.00  0.00     0.000 C
ATOM     38  C2  GU6 D   3       6.184  44.836 -29.5310  0.00  0.00     0.000 C
ATOM     39  C3  GU6 D   3       5.181  44.425 -30.5780  0.00  0.00     0.000 C
ATOM     40  C4  GU6 D   3       4.906  42.992 -30.7310  0.00  0.00     0.000 C
ATOM     41  C5  GU6 D   3       6.231  42.182 -30.5480  0.00  0.00     0.000 C
ATOM     42  O5  GU6 D   3       7.094  42.626 -29.4940  0.00  0.00     0.000 O
BRANCH 38 43
ATOM     43   O  GU6 D   3       5.655  45.882 -28.7400  0.00  0.00     0.000 O
ATOM     44   S  GU6 D   3       6.682  46.916 -28.2950  0.00  0.00     0.000 S
ATOM     45   O  GU6 D   3       7.392  46.392 -27.1150  0.00  0.00     0.000 OA
ATOM     46   O  GU6 D   3       7.643  47.127 -29.3920  0.00  0.00     0.000 O
ATOM     47   O  GU6 D   3       5.990  48.164 -27.9890  0.00  0.00     0.000 OA
ENDBRANCH 38 43
BRANCH 39 48
ATOM     48   O  GU6 D   3       4.368  45.387 -31.2220  0.00  0.00     0.000 O
ATOM     49   S  GU6 D   3       4.694  46.329 -32.3800  0.00  0.00     0.000 S
ATOM     50   O  GU6 D   3       5.185  45.563 -33.5320  0.00  0.00     0.000 OA
ATOM     51   O  GU6 D   3       3.399  46.957 -32.6730  0.00  0.00     0.000 OA
ATOM     52   O  GU6 D   3       5.725  47.294 -31.9380  0.00  0.00     0.000 O
ENDBRANCH 39 48
BRANCH 41 53
ATOM     53   C  GU6 D   3       6.725  40.986 -31.3160  0.00  0.00     0.000 C
ATOM     54   O  GU6 D   3       5.954  40.010 -30.6650  0.00  0.00     0.000 O
ATOM     55   S  GU6 D   3       6.145  38.522 -30.9910  0.00  0.00     0.000 S
ATOM     56   O  GU6 D   3       7.505  38.156 -30.5320  0.00  0.00     0.000 O
ATOM     57   O  GU6 D   3       5.126  37.749 -30.2660  0.00  0.00     0.000 OA
ATOM     58   O  GU6 D   3       6.021  38.374 -32.4580  0.00  0.00     0.000 OA
ENDBRANCH 41 53
BRANCH 37 59
ATOM     59  O4  Z9K D   4       5.641  42.985 -27.7400  0.00  0.00     0.000 O
BRANCH 59 63
ATOM     60  C1  Z9K D   4       4.849  42.443 -23.9290  0.00  0.00     0.000 C
ATOM     61  C2  Z9K D   4       6.403  42.444 -23.9170  0.00  0.00     0.000 C
ATOM     62  C3  Z9K D   4       6.716  42.846 -25.4230  0.00  0.00     0.000 C
ATOM     63  C4  Z9K D   4       5.922  42.140 -26.5870  0.00  0.00     0.000 C
ATOM     64  C5  Z9K D   4       4.529  41.603 -26.2250  0.00  0.00     0.000 C
ATOM     65  O5  Z9K D   4       4.075  42.541 -25.2150  0.00  0.00     0.000 O
ATOM     66   O  Z9K D   4       8.103  42.695 -25.7750  0.00  0.00     0.000 O
ATOM     67   C  Z9K D   4       8.915  43.812 -25.4520  0.00  0.00     0.000 C
BRANCH 61 68
ATOM     68   O  Z9K D   4       6.806  43.529 -23.1270  0.00  0.00     0.000 O
ATOM     69   O  Z9K D   4       8.430  41.564 -22.9000  0.00  0.00     0.000 OA
ATOM     70   S  Z9K D   4       7.354  42.269 -22.2700  0.00  0.00     0.000 S
ATOM     71   O  Z9K D   4       6.260  41.671 -21.5690  0.00  0.00     0.000 OA
ATOM     72   O  Z9K D   4       7.844  43.383 -21.5250  0.00  0.00     0.000 OA
ENDBRANCH 61 68
BRANCH 64 73
ATOM     73   C  Z9K D   4       3.672  41.403 -27.4930  0.00  0.00     0.000 C
ATOM     74   O  Z9K D   4       3.879  40.434 -28.2790  0.00  0.00     0.000 O
ATOM     75   O  Z9K D   4       2.736  42.187 -27.7880  0.00  0.00     0.000 OA
ENDBRANCH 64 73
BRANCH 60 76
ATOM     76  O4  Z9L D   5       3.950  41.494 -23.3280  0.00  0.00     0.000 O
BRANCH 76 80
ATOM     77  C1  Z9L D   5       0.592  41.108 -21.1960  0.00  0.00     0.000 C
ATOM     78  C2  Z9L D   5       0.314  40.453 -22.6330  0.00  0.00     0.000 C
ATOM     79  C3  Z9L D   5       1.825  40.199 -23.3510  0.00  0.00     0.000 C
ATOM     80  C4  Z9L D   5       2.599  41.600 -22.9610  0.00  0.00     0.000 C
ATOM     81  C5  Z9L D   5       2.695  42.398 -21.5630  0.00  0.00     0.000 C
ATOM     82  O5  Z9L D   5       1.386  42.344 -20.9760  0.00  0.00     0.000 O
ATOM     83   C  Z9L D   5       1.364  40.515 -18.9720  0.00  0.00     0.000 C
ATOM     84   C  Z9L D   5       1.364  40.515 -18.9720  0.00  0.00     0.000 C
BRANCH 78 85
ATOM     85   O  Z9L D   5      -0.308  39.224 -22.4330  0.00  0.00     0.000 O
ATOM     86   O  Z9L D   5      -2.159  38.847 -22.8090  0.00  0.00     0.000 OA
ATOM     87   S  Z9L D   5      -1.485  40.068 -23.1280  0.00  0.00     0.000 S
ATOM     88   O  Z9L D   5      -1.413  40.090 -24.5680  0.00  0.00     0.000 OA
ATOM     89   O  Z9L D   5      -2.111  41.062 -22.3250  0.00  0.00     0.000 OA
ENDBRANCH 78 85
BRANCH 79 90
ATOM     90   O  Z9L D   5       1.745  40.274 -24.7390  0.00  0.00     0.000 O
ATOM     91   S  Z9L D   5       2.359  38.812 -24.5850  0.00  0.00     0.000 S
ATOM     92   O  Z9L D   5       1.720  37.787 -23.8020  0.00  0.00     0.000 OA
ATOM     93   O  Z9L D   5       3.795  38.885 -24.6810  0.00  0.00     0.000 O
ATOM     94   O  Z9L D   5       1.852  38.706 -25.9150  0.00  0.00     0.000 OA
ENDBRANCH 79 90
BRANCH 81 95
ATOM     95   C  Z9L D   5       3.510  43.864 -21.5680  0.00  0.00     0.000 C
ATOM     96   S  Z9L D   5       4.088  45.407 -20.4490  0.00  0.00     0.000 S
ATOM     97   O  Z9L D   5       2.821  44.473 -20.5090  0.00  0.00     0.000 O
ATOM     98   O  Z9L D   5       4.018  46.275 -21.5970  0.00  0.00     0.000 OA
ATOM     99   O  Z9L D   5       5.306  44.774 -20.0720  0.00  0.00     0.000 OA
ATOM    100   O  Z9L D   5       3.326  46.003 -19.3800  0.00  0.00     0.000 O
ENDBRANCH 81 95
ENDBRANCH 76 80
ENDBRANCH 60 76
ENDBRANCH 59 63
ENDBRANCH 37 59
ENDBRANCH 36 40
ENDBRANCH 23 36
ENDBRANCH 22 26
ENDBRANCH 1 22
TORSDOF 19
ENDMDL
MODEL 76
REMARK VINA RESULT:      -6.7     30.888     37.710
ROOT
ATOM      1  C1  Z9H D   1       5.635  48.373 -22.5310  0.00  0.00     0.000 C
ATOM      2  C2  Z9H D   1       4.715  49.070 -21.5000  0.00  0.00     0.000 C
ATOM      3  C3  Z9H D   1       3.926  49.982 -22.4890  0.00  0.00     0.000 C
ATOM      4  C4  Z9H D   1       4.816  50.835 -23.4840  0.00  0.00     0.000 C
ATOM      5  C5  Z9H D   1       6.013  50.222 -24.3150  0.00  0.00     0.000 C
ATOM      6  O5  Z9H D   1       6.461  49.162 -23.4330  0.00  0.00     0.000 O
ATOM      7   O  Z9H D   1       3.001  50.827 -21.8000  0.00  0.00     0.000 O
ATOM      8   C  Z9H D   1       1.641  50.364 -21.7800  0.00  0.00     0.000 C
ATOM      9   O  Z9H D   1       3.903  51.414 -24.4230  0.00  0.00     0.000 O
ATOM     10   C  Z9H D   1       3.537  52.774 -24.1690  0.00  0.00     0.000 C
ENDROOT
BRANCH 2 11
ATOM     11   O  Z9H D   1       3.823  48.040 -21.1620  0.00  0.00     0.000 O
ATOM     12   O  Z9H D   1       3.770  47.195 -19.4770  0.00  0.00     0.000 OA
ATOM     13   S  Z9H D   1       4.637  48.272 -19.8180  0.00  0.00     0.000 S
ATOM     14   O  Z9H D   1       4.239  49.534 -19.2630  0.00  0.00     0.000 OA
ATOM     15   O  Z9H D   1       6.000  47.807 -19.9320  0.00  0.00     0.000 O
ENDBRANCH 2 11
BRANCH 5 16
ATOM     16   C  Z9H D   1       7.085  51.341 -24.9450  0.00  0.00     0.000 C
ATOM     17   S  Z9H D   1       7.662  53.265 -24.8740  0.00  0.00     0.000 S
ATOM     18   O  Z9H D   1       7.219  52.146 -23.7980  0.00  0.00     0.000 O
ATOM     19   O  Z9H D   1       6.613  53.711 -25.7460  0.00  0.00     0.000 O
ATOM     20   O  Z9H D   1       8.991  53.024 -25.3140  0.00  0.00     0.000 OA
ATOM     21   O  Z9H D   1       7.733  54.050 -23.6760  0.00  0.00     0.000 OA
ENDBRANCH 5 16
BRANCH 1 22
ATOM     22  O4  GU1 D   2       4.938  47.505 -23.4970  0.00  0.00     0.000 O
BRANCH 22 26
ATOM     23  C1  GU1 D   2       5.163  44.031 -25.6990  0.00  0.00     0.000 C
ATOM     24  C2  GU1 D   2       5.774  43.948 -24.3080  0.00  0.00     0.000 C
ATOM     25  C3  GU1 D   2       5.300  45.111 -23.4860  0.00  0.00     0.000 C
ATOM     26  C4  GU1 D   2       5.561  46.427 -24.2040  0.00  0.00     0.000 C
ATOM     27  C5  GU1 D   2       4.998  46.369 -25.6270  0.00  0.00     0.000 C
ATOM     28  O5  GU1 D   2       5.534  45.251 -26.3300  0.00  0.00     0.000 O
ATOM     29   O  GU1 D   2       5.406  42.749 -23.6360  0.00  0.00     0.000 O
ATOM     30   C  GU1 D   2       6.375  41.715 -23.7330  0.00  0.00     0.000 C
ATOM     31   C  GU1 D   2       5.292  44.611 -21.1320  0.00  0.00     0.000 C
ATOM     32   O  GU1 D   2       6.020  45.114 -22.2490  0.00  0.00     0.000 O
BRANCH 27 33
ATOM     33   C  GU1 D   2       5.348  47.615 -26.4050  0.00  0.00     0.000 C
ATOM     34   O  GU1 D   2       4.454  48.381 -26.7010  0.00  0.00     0.000 OA
ATOM     35   O  GU1 D   2       6.504  47.845 -26.7230  0.00  0.00     0.000 O
ENDBRANCH 27 33
BRANCH 23 36
ATOM     36  O4  GU6 D   3       5.648  43.175 -26.7520  0.00  0.00     0.000 O
BRANCH 36 40
ATOM     37  C1  GU6 D   3       7.781  41.897 -29.9940  0.00  0.00     0.000 C
ATOM     38  C2  GU6 D   3       6.843  40.844 -29.4170  0.00  0.00     0.000 C
ATOM     39  C3  GU6 D   3       5.918  41.487 -28.4160  0.00  0.00     0.000 C
ATOM     40  C4  GU6 D   3       6.201  42.869 -28.0160  0.00  0.00     0.000 C
ATOM     41  C5  GU6 D   3       7.748  43.074 -27.9040  0.00  0.00     0.000 C
ATOM     42  O5  GU6 D   3       8.535  42.461 -28.9320  0.00  0.00     0.000 O
BRANCH 38 43
ATOM     43   O  GU6 D   3       6.091  40.230 -30.4450  0.00  0.00     0.000 O
ATOM     44   S  GU6 D   3       6.746  38.997 -31.0540  0.00  0.00     0.000 S
ATOM     45   O  GU6 D   3       7.737  39.437 -32.0510  0.00  0.00     0.000 OA
ATOM     46   O  GU6 D   3       7.428  38.249 -29.9820  0.00  0.00     0.000 O
ATOM     47   O  GU6 D   3       5.711  38.167 -31.6620  0.00  0.00     0.000 OA
ENDBRANCH 38 43
BRANCH 39 48
ATOM     48   O  GU6 D   3       4.696  40.870 -28.0560  0.00  0.00     0.000 O
ATOM     49   S  GU6 D   3       3.275  41.154 -28.5380  0.00  0.00     0.000 S
ATOM     50   O  GU6 D   3       3.210  41.063 -30.0020  0.00  0.00     0.000 OA
ATOM     51   O  GU6 D   3       2.489  40.086 -27.9050  0.00  0.00     0.000 OA
ATOM     52   O  GU6 D   3       2.880  42.510 -28.0970  0.00  0.00     0.000 O
ENDBRANCH 39 48
BRANCH 41 53
ATOM     53   C  GU6 D   3       8.530  43.841 -26.8720  0.00  0.00     0.000 C
ATOM     54   O  GU6 D   3       9.553  42.901 -26.6700  0.00  0.00     0.000 O
ATOM     55   S  GU6 D   3      10.618  43.129 -25.5890  0.00  0.00     0.000 S
ATOM     56   O  GU6 D   3       9.921  43.068 -24.2840  0.00  0.00     0.000 O
ATOM     57   O  GU6 D   3      11.625  42.063 -25.6910  0.00  0.00     0.000 OA
ATOM     58   O  GU6 D   3      11.199  44.470 -25.8210  0.00  0.00     0.000 OA
ENDBRANCH 41 53
BRANCH 37 59
ATOM     59  O4  Z9K D   4       7.379  42.980 -30.8590  0.00  0.00     0.000 O
BRANCH 59 63
ATOM     60  C1  Z9K D   4       8.608  41.909 -34.4350  0.00  0.00     0.000 C
ATOM     61  C2  Z9K D   4       9.858  42.662 -33.9010  0.00  0.00     0.000 C
ATOM     62  C3  Z9K D   4       9.426  42.930 -32.3940  0.00  0.00     0.000 C
ATOM     63  C4  Z9K D   4       7.975  43.469 -32.0960  0.00  0.00     0.000 C
ATOM     64  C5  Z9K D   4       6.900  43.124 -33.1370  0.00  0.00     0.000 C
ATOM     65  O5  Z9K D   4       7.337  41.832 -33.6350  0.00  0.00     0.000 O
ATOM     66   O  Z9K D   4      10.305  43.836 -31.7030  0.00  0.00     0.000 O
ATOM     67   C  Z9K D   4      11.443  43.219 -31.1220  0.00  0.00     0.000 C
BRANCH 61 68
ATOM     68   O  Z9K D   4      10.906  41.733 -33.8500  0.00  0.00     0.000 O
ATOM     69   O  Z9K D   4      11.777  44.087 -34.3480  0.00  0.00     0.000 OA
ATOM     70   S  Z9K D   4      11.466  42.812 -34.9200  0.00  0.00     0.000 S
ATOM     71   O  Z9K D   4      10.823  42.595 -36.1800  0.00  0.00     0.000 OA
ATOM     72   O  Z9K D   4      12.566  41.912 -34.7880  0.00  0.00     0.000 OA
ENDBRANCH 61 68
BRANCH 64 73
ATOM     73   C  Z9K D   4       5.487  43.245 -32.5290  0.00  0.00     0.000 C
ATOM     74   O  Z9K D   4       4.700  42.255 -32.4960  0.00  0.00     0.000 O
ATOM     75   O  Z9K D   4       5.067  44.323 -32.0400  0.00  0.00     0.000 OA
ENDBRANCH 64 73
BRANCH 60 76
ATOM     76  O4  Z9L D   5       7.939  42.071 -35.6980  0.00  0.00     0.000 O
BRANCH 76 80
ATOM     77  C1  Z9L D   5       6.315  40.168 -38.8140  0.00  0.00     0.000 C
ATOM     78  C2  Z9L D   5       5.117  40.884 -38.0250  0.00  0.00     0.000 C
ATOM     79  C3  Z9L D   5       5.824  42.039 -37.0110  0.00  0.00     0.000 C
ATOM     80  C4  Z9L D   5       7.118  41.199 -36.4320  0.00  0.00     0.000 C
ATOM     81  C5  Z9L D   5       8.205  40.280 -37.1910  0.00  0.00     0.000 C
ATOM     82  O5  Z9L D   5       7.477  39.513 -38.1610  0.00  0.00     0.000 O
ATOM     83   C  Z9L D   5       7.875  40.562 -40.6320  0.00  0.00     0.000 C
ATOM     84   C  Z9L D   5       7.875  40.562 -40.6320  0.00  0.00     0.000 C
BRANCH 78 85
ATOM     85   O  Z9L D   5       4.310  41.529 -38.9580  0.00  0.00     0.000 O
ATOM     86   O  Z9L D   5       2.525  40.988 -39.4400  0.00  0.00     0.000 OA
ATOM     87   S  Z9L D   5       3.309  40.406 -38.3940  0.00  0.00     0.000 S
ATOM     88   O  Z9L D   5       2.642  40.782 -37.1720  0.00  0.00     0.000 OA
ATOM     89   O  Z9L D   5       3.557  39.069 -38.8130  0.00  0.00     0.000 OA
ENDBRANCH 78 85
BRANCH 79 90
ATOM     90   O  Z9L D   5       5.060  42.245 -35.8660  0.00  0.00     0.000 O
ATOM     91   S  Z9L D   5       5.035  43.717 -36.4730  0.00  0.00     0.000 S
ATOM     92   O  Z9L D   5       4.568  43.994 -37.8060  0.00  0.00     0.000 OA
ATOM     93   O  Z9L D   5       6.097  44.494 -35.8830  0.00  0.00     0.000 O
ATOM     94   O  Z9L D   5       3.909  43.813 -35.6010  0.00  0.00     0.000 OA
ENDBRANCH 79 90
BRANCH 81 95
ATOM     95   C  Z9L D   5       9.345  39.496 -36.2430  0.00  0.00     0.000 C
ATOM     96   S  Z9L D   5       9.713  37.870 -35.1540  0.00  0.00     0.000 S
ATOM     97   O  Z9L D   5       8.459  38.784 -35.4220  0.00  0.00     0.000 O
ATOM     98   O  Z9L D   5      10.606  38.626 -34.3130  0.00  0.00     0.000 OA
ATOM     99   O  Z9L D   5      10.195  37.136 -36.2750  0.00  0.00     0.000 OA
ATOM    100   O  Z9L D   5       8.762  37.187 -34.3120  0.00  0.00     0.000 O
ENDBRANCH 81 95
ENDBRANCH 76 80
ENDBRANCH 60 76
ENDBRANCH 59 63
ENDBRANCH 37 59
ENDBRANCH 36 40
ENDBRANCH 23 36
ENDBRANCH 22 26
ENDBRANCH 1 22
TORSDOF 19
ENDMDL
MODEL 77
REMARK VINA RESULT:      -6.7      5.005      8.545
ROOT
ATOM      1  C1  Z9H D   1       5.283  33.354 -58.9490  0.00  0.00     0.000 C
ATOM      2  C2  Z9H D   1       5.861  34.705 -58.4650  0.00  0.00     0.000 C
ATOM      3  C3  Z9H D   1       4.544  35.539 -58.5080  0.00  0.00     0.000 C
ATOM      4  C4  Z9H D   1       3.727  35.448 -59.8630  0.00  0.00     0.000 C
ATOM      5  C5  Z9H D   1       3.404  34.081 -60.5870  0.00  0.00     0.000 C
ATOM      6  O5  Z9H D   1       4.546  33.275 -60.2010  0.00  0.00     0.000 O
ATOM      7   O  Z9H D   1       4.774  36.905 -58.1570  0.00  0.00     0.000 O
ATOM      8   C  Z9H D   1       4.469  37.251 -56.7960  0.00  0.00     0.000 C
ATOM      9   O  Z9H D   1       2.476  36.096 -59.6070  0.00  0.00     0.000 O
ATOM     10   C  Z9H D   1       2.376  37.448 -60.0650  0.00  0.00     0.000 C
ENDROOT
BRANCH 2 11
ATOM     11   O  Z9H D   1       6.090  34.454 -57.1030  0.00  0.00     0.000 O
ATOM     12   O  Z9H D   1       7.799  34.410 -56.3060  0.00  0.00     0.000 OA
ATOM     13   S  Z9H D   1       7.549  34.711 -57.6750  0.00  0.00     0.000 S
ATOM     14   O  Z9H D   1       7.669  36.105 -57.9940  0.00  0.00     0.000 OA
ATOM     15   O  Z9H D   1       7.991  33.624 -58.5190  0.00  0.00     0.000 O
ENDBRANCH 2 11
BRANCH 5 16
ATOM     16   C  Z9H D   1       2.939  34.220 -62.1890  0.00  0.00     0.000 C
ATOM     17   S  Z9H D   1       3.237  35.250 -63.8890  0.00  0.00     0.000 S
ATOM     18   O  Z9H D   1       4.169  34.665 -62.7080  0.00  0.00     0.000 O
ATOM     19   O  Z9H D   1       2.375  36.329 -63.4980  0.00  0.00     0.000 O
ATOM     20   O  Z9H D   1       2.827  34.201 -64.7560  0.00  0.00     0.000 OA
ATOM     21   O  Z9H D   1       4.512  35.720 -64.3430  0.00  0.00     0.000 OA
ENDBRANCH 5 16
BRANCH 1 22
ATOM     22  O4  GU1 D   2       4.316  32.729 -58.0290  0.00  0.00     0.000 O
BRANCH 22 26
ATOM     23  C1  GU1 D   2       3.000  29.161 -56.4450  0.00  0.00     0.000 C
ATOM     24  C2  GU1 D   2       4.494  29.225 -56.7230  0.00  0.00     0.000 C
ATOM     25  C3  GU1 D   2       4.902  30.656 -56.9230  0.00  0.00     0.000 C
ATOM     26  C4  GU1 D   2       4.041  31.324 -57.9850  0.00  0.00     0.000 C
ATOM     27  C5  GU1 D   2       2.558  31.112 -57.6680  0.00  0.00     0.000 C
ATOM     28  O5  GU1 D   2       2.271  29.723 -57.5300  0.00  0.00     0.000 O
ATOM     29   O  GU1 D   2       5.258  28.691 -55.6480  0.00  0.00     0.000 O
ATOM     30   C  GU1 D   2       5.646  27.337 -55.8360  0.00  0.00     0.000 C
ATOM     31   C  GU1 D   2       7.209  31.029 -56.3450  0.00  0.00     0.000 C
ATOM     32   O  GU1 D   2       6.266  30.681 -57.3560  0.00  0.00     0.000 O
BRANCH 27 33
ATOM     33   C  GU1 D   2       1.680  31.660 -58.7680  0.00  0.00     0.000 C
ATOM     34   O  GU1 D   2       1.723  31.130 -59.8590  0.00  0.00     0.000 OA
ATOM     35   O  GU1 D   2       0.943  32.611 -58.5590  0.00  0.00     0.000 O
ENDBRANCH 27 33
BRANCH 23 36
ATOM     36  O4  GU6 D   3       2.318  27.892 -56.4610  0.00  0.00     0.000 O
BRANCH 36 40
ATOM     37  C1  GU6 D   3       0.220  24.545 -55.4160  0.00  0.00     0.000 C
ATOM     38  C2  GU6 D   3       1.131  24.352 -56.6220  0.00  0.00     0.000 C
ATOM     39  C3  GU6 D   3       2.049  25.539 -56.7560  0.00  0.00     0.000 C
ATOM     40  C4  GU6 D   3       1.781  26.707 -55.9090  0.00  0.00     0.000 C
ATOM     41  C5  GU6 D   3       0.236  26.916 -55.7800  0.00  0.00     0.000 C
ATOM     42  O5  GU6 D   3      -0.543  25.726 -55.6090  0.00  0.00     0.000 O
BRANCH 38 43
ATOM     43   O  GU6 D   3       1.891  23.167 -56.4870  0.00  0.00     0.000 O
ATOM     44   S  GU6 D   3       1.314  21.963 -57.2200  0.00  0.00     0.000 S
ATOM     45   O  GU6 D   3       0.254  21.370 -56.3860  0.00  0.00     0.000 OA
ATOM     46   O  GU6 D   3       0.733  22.422 -58.4950  0.00  0.00     0.000 O
ATOM     47   O  GU6 D   3       2.387  21.008 -57.4740  0.00  0.00     0.000 OA
ENDBRANCH 38 43
BRANCH 39 48
ATOM     48   O  GU6 D   3       3.254  25.446 -57.4920  0.00  0.00     0.000 O
ATOM     49   S  GU6 D   3       3.516  25.686 -58.9780  0.00  0.00     0.000 S
ATOM     50   O  GU6 D   3       3.058  27.026 -59.3620  0.00  0.00     0.000 OA
ATOM     51   O  GU6 D   3       4.977  25.574 -59.0810  0.00  0.00     0.000 OA
ATOM     52   O  GU6 D   3       2.795  24.660 -59.7640  0.00  0.00     0.000 O
ENDBRANCH 39 48
BRANCH 41 53
ATOM     53   C  GU6 D   3      -0.551  28.198 -55.7960  0.00  0.00     0.000 C
ATOM     54   O  GU6 D   3      -1.073  28.118 -54.4950  0.00  0.00     0.000 O
ATOM     55   S  GU6 D   3      -2.082  29.160 -53.9950  0.00  0.00     0.000 S
ATOM     56   O  GU6 D   3      -3.312  28.985 -54.8000  0.00  0.00     0.000 O
ATOM     57   O  GU6 D   3      -2.351  28.906 -52.5720  0.00  0.00     0.000 OA
ATOM     58   O  GU6 D   3      -1.483  30.495 -54.2210  0.00  0.00     0.000 OA
ENDBRANCH 41 53
BRANCH 37 59
ATOM     59  O4  Z9K D   4       0.654  24.535 -54.0390  0.00  0.00     0.000 O
BRANCH 59 63
ATOM     60  C1  Z9K D   4      -1.302  21.533 -52.4250  0.00  0.00     0.000 C
ATOM     61  C2  Z9K D   4      -2.297  22.702 -52.1890  0.00  0.00     0.000 C
ATOM     62  C3  Z9K D   4      -1.588  23.870 -53.0030  0.00  0.00     0.000 C
ATOM     63  C4  Z9K D   4      -0.037  24.090 -52.8360  0.00  0.00     0.000 C
ATOM     64  C5  Z9K D   4       0.780  22.854 -52.4260  0.00  0.00     0.000 C
ATOM     65  O5  Z9K D   4       0.048  21.765 -53.0460  0.00  0.00     0.000 O
ATOM     66   O  Z9K D   4      -2.172  25.164 -52.7670  0.00  0.00     0.000 O
ATOM     67   C  Z9K D   4      -3.292  25.459 -53.5850  0.00  0.00     0.000 C
BRANCH 61 68
ATOM     68   O  Z9K D   4      -3.471  22.391 -52.8890  0.00  0.00     0.000 O
ATOM     69   O  Z9K D   4      -3.989  23.678 -50.7390  0.00  0.00     0.000 OA
ATOM     70   S  Z9K D   4      -3.985  22.385 -51.3530  0.00  0.00     0.000 S
ATOM     71   O  Z9K D   4      -3.575  21.164 -50.7290  0.00  0.00     0.000 OA
ATOM     72   O  Z9K D   4      -5.192  22.163 -52.0820  0.00  0.00     0.000 OA
ENDBRANCH 61 68
BRANCH 64 73
ATOM     73   C  Z9K D   4       2.271  23.041 -52.7760  0.00  0.00     0.000 C
ATOM     74   O  Z9K D   4       2.851  22.277 -53.6020  0.00  0.00     0.000 O
ATOM     75   O  Z9K D   4       2.961  23.956 -52.2630  0.00  0.00     0.000 OA
ENDBRANCH 64 73
BRANCH 60 76
ATOM     76  O4  Z9L D   5      -0.826  20.559 -51.4790  0.00  0.00     0.000 O
BRANCH 76 80
ATOM     77  C1  Z9L D   5      -0.069  16.658 -51.0560  0.00  0.00     0.000 C
ATOM     78  C2  Z9L D   5       1.297  17.438 -50.7460  0.00  0.00     0.000 C
ATOM     79  C3  Z9L D   5       0.882  19.054 -50.4720  0.00  0.00     0.000 C
ATOM     80  C4  Z9L D   5      -0.228  19.302 -51.6640  0.00  0.00     0.000 C
ATOM     81  C5  Z9L D   5      -1.481  18.405 -52.1410  0.00  0.00     0.000 C
ATOM     82  O5  Z9L D   5      -1.032  17.041 -52.1200  0.00  0.00     0.000 O
ATOM     83   C  Z9L D   5      -2.038  15.787 -49.9340  0.00  0.00     0.000 C
ATOM     84   C  Z9L D   5      -2.038  15.787 -49.9340  0.00  0.00     0.000 C
BRANCH 78 85
ATOM     85   O  Z9L D   5       1.844  16.904 -49.5830  0.00  0.00     0.000 O
ATOM     86   O  Z9L D   5       3.432  15.816 -49.5050  0.00  0.00     0.000 OA
ATOM     87   S  Z9L D   5       2.938  16.470 -50.6780  0.00  0.00     0.000 S
ATOM     88   O  Z9L D   5       3.906  17.497 -50.9710  0.00  0.00     0.000 OA
ATOM     89   O  Z9L D   5       2.566  15.420 -51.5630  0.00  0.00     0.000 OA
ENDBRANCH 78 85
BRANCH 79 90
ATOM     90   O  Z9L D   5       1.915  19.912 -50.8380  0.00  0.00     0.000 O
ATOM     91   S  Z9L D   5       1.658  20.424 -49.3520  0.00  0.00     0.000 S
ATOM     92   O  Z9L D   5       1.716  19.544 -48.2140  0.00  0.00     0.000 OA
ATOM     93   O  Z9L D   5       0.745  21.539 -49.3830  0.00  0.00     0.000 O
ATOM     94   O  Z9L D   5       2.971  20.949 -49.5480  0.00  0.00     0.000 OA
ENDBRANCH 79 90
BRANCH 81 95
ATOM     95   C  Z9L D   5      -2.348  18.941 -53.4720  0.00  0.00     0.000 C
ATOM     96   S  Z9L D   5      -2.595  18.744 -55.4390  0.00  0.00     0.000 S
ATOM     97   O  Z9L D   5      -1.370  18.705 -54.4500  0.00  0.00     0.000 O
ATOM     98   O  Z9L D   5      -3.009  20.121 -55.5320  0.00  0.00     0.000 OA
ATOM     99   O  Z9L D   5      -3.544  17.693 -55.2910  0.00  0.00     0.000 OA
ATOM    100   O  Z9L D   5      -1.544  18.519 -56.4010  0.00  0.00     0.000 O
ENDBRANCH 81 95
ENDBRANCH 76 80
ENDBRANCH 60 76
ENDBRANCH 59 63
ENDBRANCH 37 59
ENDBRANCH 36 40
ENDBRANCH 23 36
ENDBRANCH 22 26
ENDBRANCH 1 22
TORSDOF 19
ENDMDL
MODEL 78
REMARK VINA RESULT:      -6.7     27.250     32.607
ROOT
ATOM      1  C1  Z9H D   1      18.676   9.746 -35.1410  0.00  0.00     0.000 C
ATOM      2  C2  Z9H D   1      19.289   9.777 -36.5620  0.00  0.00     0.000 C
ATOM      3  C3  Z9H D   1      20.456   8.772 -36.3220  0.00  0.00     0.000 C
ATOM      4  C4  Z9H D   1      21.353   9.063 -35.0490  0.00  0.00     0.000 C
ATOM      5  C5  Z9H D   1      20.751   9.382 -33.6230  0.00  0.00     0.000 C
ATOM      6  O5  Z9H D   1      19.502  10.028 -33.9770  0.00  0.00     0.000 O
ATOM      7   O  Z9H D   1      21.275   8.630 -37.4850  0.00  0.00     0.000 O
ATOM      8   C  Z9H D   1      20.992   7.481 -38.3010  0.00  0.00     0.000 C
ATOM      9   O  Z9H D   1      22.203   7.920 -34.9020  0.00  0.00     0.000 O
ATOM     10   C  Z9H D   1      23.530   8.067 -35.4150  0.00  0.00     0.000 C
ENDROOT
BRANCH 2 11
ATOM     11   O  Z9H D   1      18.337   9.062 -37.3050  0.00  0.00     0.000 O
ATOM     12   O  Z9H D   1      17.263   9.819 -38.6590  0.00  0.00     0.000 OA
ATOM     13   S  Z9H D   1      18.265  10.521 -37.9300  0.00  0.00     0.000 S
ATOM     14   O  Z9H D   1      19.470  10.752 -38.6750  0.00  0.00     0.000 OA
ATOM     15   O  Z9H D   1      17.658  11.463 -37.0180  0.00  0.00     0.000 O
ENDBRANCH 2 11
BRANCH 5 16
ATOM     16   C  Z9H D   1      21.819  10.086 -32.5440  0.00  0.00     0.000 C
ATOM     17   S  Z9H D   1      22.436  10.093 -30.6310  0.00  0.00     0.000 S
ATOM     18   O  Z9H D   1      22.014   8.969 -31.7100  0.00  0.00     0.000 O
ATOM     19   O  Z9H D   1      21.363  10.936 -30.1880  0.00  0.00     0.000 O
ATOM     20   O  Z9H D   1      23.742  10.577 -30.9110  0.00  0.00     0.000 OA
ATOM     21   O  Z9H D   1      22.569   8.922 -29.8140  0.00  0.00     0.000 OA
ENDBRANCH 5 16
BRANCH 1 22
ATOM     22  O4  GU1 D   2      18.091   8.452 -34.7470  0.00  0.00     0.000 O
BRANCH 22 26
ATOM     23  C1  GU1 D   2      14.998   6.533 -32.8180  0.00  0.00     0.000 C
ATOM     24  C2  GU1 D   2      14.568   7.598 -33.8150  0.00  0.00     0.000 C
ATOM     25  C3  GU1 D   2      15.725   7.940 -34.7090  0.00  0.00     0.000 C
ATOM     26  C4  GU1 D   2      16.952   8.313 -33.8900  0.00  0.00     0.000 C
ATOM     27  C5  GU1 D   2      17.238   7.227 -32.8480  0.00  0.00     0.000 C
ATOM     28  O5  GU1 D   2      16.090   7.002 -32.0350  0.00  0.00     0.000 O
ATOM     29   O  GU1 D   2      13.491   7.156 -34.6330  0.00  0.00     0.000 O
ATOM     30   C  GU1 D   2      12.213   7.577 -34.1770  0.00  0.00     0.000 C
ATOM     31   C  GU1 D   2      15.002   8.741 -36.8600  0.00  0.00     0.000 C
ATOM     32   O  GU1 D   2      15.356   9.062 -35.5170  0.00  0.00     0.000 O
BRANCH 27 33
ATOM     33   C  GU1 D   2      18.377   7.625 -31.9410  0.00  0.00     0.000 C
ATOM     34   O  GU1 D   2      18.294   8.675 -31.3370  0.00  0.00     0.000 OA
ATOM     35   O  GU1 D   2      19.355   6.904 -31.8190  0.00  0.00     0.000 O
ENDBRANCH 27 33
BRANCH 23 36
ATOM     36  O4  GU6 D   3      14.151   6.210 -31.6980  0.00  0.00     0.000 O
BRANCH 36 40
ATOM     37  C1  GU6 D   3      13.809   4.035 -28.2560  0.00  0.00     0.000 C
ATOM     38  C2  GU6 D   3      14.378   5.434 -28.0500  0.00  0.00     0.000 C
ATOM     39  C3  GU6 D   3      14.210   6.238 -29.3120  0.00  0.00     0.000 C
ATOM     40  C4  GU6 D   3      13.772   5.528 -30.5190  0.00  0.00     0.000 C
ATOM     41  C5  GU6 D   3      14.443   4.116 -30.5680  0.00  0.00     0.000 C
ATOM     42  O5  GU6 D   3      14.510   3.413 -29.3210  0.00  0.00     0.000 O
BRANCH 38 43
ATOM     43   O  GU6 D   3      13.728   6.082 -26.9740  0.00  0.00     0.000 O
ATOM     44   S  GU6 D   3      14.650   6.474 -25.8260  0.00  0.00     0.000 S
ATOM     45   O  GU6 D   3      14.865   5.292 -24.9740  0.00  0.00     0.000 OA
ATOM     46   O  GU6 D   3      15.940   6.915 -26.3880  0.00  0.00     0.000 O
ATOM     47   O  GU6 D   3      14.032   7.564 -25.0780  0.00  0.00     0.000 OA
ENDBRANCH 38 43
BRANCH 39 48
ATOM     48   O  GU6 D   3      14.245   7.652 -29.2830  0.00  0.00     0.000 O
ATOM     49   S  GU6 D   3      13.098   8.661 -29.2770  0.00  0.00     0.000 S
ATOM     50   O  GU6 D   3      12.186   8.383 -28.1620  0.00  0.00     0.000 OA
ATOM     51   O  GU6 D   3      13.786   9.946 -29.0910  0.00  0.00     0.000 OA
ATOM     52   O  GU6 D   3      12.370   8.569 -30.5620  0.00  0.00     0.000 O
ENDBRANCH 39 48
BRANCH 41 53
ATOM     53   C  GU6 D   3      15.017   3.379 -31.7480  0.00  0.00     0.000 C
ATOM     54   O  GU6 D   3      16.373   3.641 -31.4950  0.00  0.00     0.000 O
ATOM     55   S  GU6 D   3      17.451   3.198 -32.4930  0.00  0.00     0.000 S
ATOM     56   O  GU6 D   3      17.239   3.987 -33.7290  0.00  0.00     0.000 O
ATOM     57   O  GU6 D   3      18.771   3.483 -31.9140  0.00  0.00     0.000 OA
ATOM     58   O  GU6 D   3      17.249   1.753 -32.7440  0.00  0.00     0.000 OA
ENDBRANCH 41 53
BRANCH 37 59
ATOM     59  O4  Z9K D   4      12.409   3.728 -28.4260  0.00  0.00     0.000 O
BRANCH 59 63
ATOM     60  C1  Z9K D   4       8.794   2.639 -27.3310  0.00  0.00     0.000 C
ATOM     61  C2  Z9K D   4       9.625   2.218 -26.0870  0.00  0.00     0.000 C
ATOM     62  C3  Z9K D   4      11.048   2.825 -26.4560  0.00  0.00     0.000 C
ATOM     63  C4  Z9K D   4      11.618   2.617 -27.9110  0.00  0.00     0.000 C
ATOM     64  C5  Z9K D   4      10.576   2.413 -29.0210  0.00  0.00     0.000 C
ATOM     65  O5  Z9K D   4       9.453   3.208 -28.5580  0.00  0.00     0.000 O
ATOM     66   O  Z9K D   4      12.100   2.381 -25.5800  0.00  0.00     0.000 O
ATOM     67   C  Z9K D   4      12.235   3.144 -24.3920  0.00  0.00     0.000 C
BRANCH 61 68
ATOM     68   O  Z9K D   4       9.148   2.965 -25.0020  0.00  0.00     0.000 O
ATOM     69   O  Z9K D   4      10.013   0.679 -24.2440  0.00  0.00     0.000 OA
ATOM     70   S  Z9K D   4       8.839   1.448 -24.5260  0.00  0.00     0.000 S
ATOM     71   O  Z9K D   4       7.673   0.974 -25.2080  0.00  0.00     0.000 OA
ATOM     72   O  Z9K D   4       8.445   2.213 -23.3880  0.00  0.00     0.000 OA
ENDBRANCH 61 68
BRANCH 64 73
ATOM     73   C  Z9K D   4      11.182   2.721 -30.4060  0.00  0.00     0.000 C
ATOM     74   O  Z9K D   4      11.951   1.898 -30.9830  0.00  0.00     0.000 O
ATOM     75   O  Z9K D   4      10.933   3.791 -31.0140  0.00  0.00     0.000 OA
ENDBRANCH 64 73
BRANCH 60 76
ATOM     76  O4  Z9L D   5       7.831   1.866 -28.0670  0.00  0.00     0.000 O
BRANCH 76 80
ATOM     77  C1  Z9L D   5       4.213   1.835 -29.7630  0.00  0.00     0.000 C
ATOM     78  C2  Z9L D   5       5.289   1.841 -30.9520  0.00  0.00     0.000 C
ATOM     79  C3  Z9L D   5       6.770   1.394 -30.2690  0.00  0.00     0.000 C
ATOM     80  C4  Z9L D   5       6.743   2.255 -28.8640  0.00  0.00     0.000 C
ATOM     81  C5  Z9L D   5       5.577   2.444 -27.7670  0.00  0.00     0.000 C
ATOM     82  O5  Z9L D   5       4.353   2.603 -28.5000  0.00  0.00     0.000 O
ATOM     83   C  Z9L D   5       2.926   0.297 -28.3940  0.00  0.00     0.000 C
ATOM     84   C  Z9L D   5       2.926   0.297 -28.3940  0.00  0.00     0.000 C
BRANCH 78 85
ATOM     85   O  Z9L D   5       4.908   0.880 -31.8840  0.00  0.00     0.000 O
ATOM     86   O  Z9L D   5       4.247   1.255 -33.6540  0.00  0.00     0.000 OA
ATOM     87   S  Z9L D   5       4.757   2.232 -32.7400  0.00  0.00     0.000 S
ATOM     88   O  Z9L D   5       5.991   2.688 -33.3300  0.00  0.00     0.000 OA
ATOM     89   O  Z9L D   5       3.646   3.062 -32.4210  0.00  0.00     0.000 OA
ENDBRANCH 78 85
BRANCH 79 90
ATOM     90   O  Z9L D   5       7.838   1.967 -30.9540  0.00  0.00     0.000 O
ATOM     91   S  Z9L D   5       8.152   0.426 -31.2110  0.00  0.00     0.000 S
ATOM     92   O  Z9L D   5       7.197  -0.463 -31.8190  0.00  0.00     0.000 OA
ATOM     93   O  Z9L D   5       9.072  -0.047 -30.2070  0.00  0.00     0.000 O
ATOM     94   O  Z9L D   5       8.931   0.994 -32.2630  0.00  0.00     0.000 OA
ENDBRANCH 79 90
BRANCH 81 95
ATOM     95   C  Z9L D   5       5.885   3.488 -26.4900  0.00  0.00     0.000 C
ATOM     96   S  Z9L D   5       5.096   4.385 -24.8970  0.00  0.00     0.000 S
ATOM     97   O  Z9L D   5       4.587   3.994 -26.3350  0.00  0.00     0.000 O
ATOM     98   O  Z9L D   5       6.000   5.494 -25.0640  0.00  0.00     0.000 OA
ATOM     99   O  Z9L D   5       5.409   3.297 -24.0340  0.00  0.00     0.000 OA
ATOM    100   O  Z9L D   5       3.753   4.903 -24.8020  0.00  0.00     0.000 O
ENDBRANCH 81 95
ENDBRANCH 76 80
ENDBRANCH 60 76
ENDBRANCH 59 63
ENDBRANCH 37 59
ENDBRANCH 36 40
ENDBRANCH 23 36
ENDBRANCH 22 26
ENDBRANCH 1 22
TORSDOF 19
ENDMDL
MODEL 79
REMARK VINA RESULT:      -6.7     29.468     35.546
ROOT
ATOM      1  C1  Z9H D   1      19.806  44.332 -33.3330  0.00  0.00     0.000 C
ATOM      2  C2  Z9H D   1      20.880  45.445 -33.3460  0.00  0.00     0.000 C
ATOM      3  C3  Z9H D   1      21.677  44.970 -34.6000  0.00  0.00     0.000 C
ATOM      4  C4  Z9H D   1      22.096  43.442 -34.6000  0.00  0.00     0.000 C
ATOM      5  C5  Z9H D   1      21.094  42.271 -34.2480  0.00  0.00     0.000 C
ATOM      6  O5  Z9H D   1      20.197  42.931 -33.3190  0.00  0.00     0.000 O
ATOM      7   O  Z9H D   1      22.816  45.797 -34.8440  0.00  0.00     0.000 O
ATOM      8   C  Z9H D   1      22.637  46.813 -35.8460  0.00  0.00     0.000 C
ATOM      9   O  Z9H D   1      22.609  43.179 -35.9100  0.00  0.00     0.000 O
ATOM     10   C  Z9H D   1      24.035  43.190 -36.0280  0.00  0.00     0.000 C
ENDROOT
BRANCH 2 11
ATOM     11   O  Z9H D   1      20.143  46.558 -33.7820  0.00  0.00     0.000 O
ATOM     12   O  Z9H D   1      19.790  48.076 -32.7200  0.00  0.00     0.000 OA
ATOM     13   S  Z9H D   1      20.576  46.962 -32.3080  0.00  0.00     0.000 S
ATOM     14   O  Z9H D   1      21.988  47.218 -32.3070  0.00  0.00     0.000 OA
ATOM     15   O  Z9H D   1      19.871  46.188 -31.3120  0.00  0.00     0.000 O
ENDBRANCH 2 11
BRANCH 5 16
ATOM     16   C  Z9H D   1      21.815  40.809 -33.8710  0.00  0.00     0.000 C
ATOM     17   S  Z9H D   1      21.603  38.813 -33.9730  0.00  0.00     0.000 S
ATOM     18   O  Z9H D   1      21.312  40.063 -34.9530  0.00  0.00     0.000 O
ATOM     19   O  Z9H D   1      20.762  38.748 -32.8120  0.00  0.00     0.000 O
ATOM     20   O  Z9H D   1      22.995  38.528 -33.9430  0.00  0.00     0.000 OA
ATOM     21   O  Z9H D   1      21.036  38.110 -35.0860  0.00  0.00     0.000 OA
ENDBRANCH 5 16
BRANCH 1 22
ATOM     22  O4  GU1 D   2      18.890  44.342 -34.4870  0.00  0.00     0.000 O
BRANCH 22 26
ATOM     23  C1  GU1 D   2      15.014  43.806 -35.7750  0.00  0.00     0.000 C
ATOM     24  C2  GU1 D   2      15.158  44.634 -34.5080  0.00  0.00     0.000 C
ATOM     25  C3  GU1 D   2      16.585  45.075 -34.3610  0.00  0.00     0.000 C
ATOM     26  C4  GU1 D   2      17.532  43.887 -34.4400  0.00  0.00     0.000 C
ATOM     27  C5  GU1 D   2      17.236  43.062 -35.6970  0.00  0.00     0.000 C
ATOM     28  O5  GU1 D   2      15.867  42.668 -35.7220  0.00  0.00     0.000 O
ATOM     29   O  GU1 D   2      14.334  45.794 -34.5340  0.00  0.00     0.000 O
ATOM     30   C  GU1 D   2      13.094  45.634 -33.8590  0.00  0.00     0.000 C
ATOM     31   C  GU1 D   2      16.776  47.121 -33.1080  0.00  0.00     0.000 C
ATOM     32   O  GU1 D   2      16.737  45.697 -33.0810  0.00  0.00     0.000 O
BRANCH 27 33
ATOM     33   C  GU1 D   2      18.079  41.810 -35.7400  0.00  0.00     0.000 C
ATOM     34   O  GU1 D   2      18.884  41.687 -36.6400  0.00  0.00     0.000 OA
ATOM     35   O  GU1 D   2      17.953  40.947 -34.8860  0.00  0.00     0.000 O
ENDBRANCH 27 33
BRANCH 23 36
ATOM     36  O4  GU6 D   3      13.803  43.061 -36.0170  0.00  0.00     0.000 O
BRANCH 36 40
ATOM     37  C1  GU6 D   3      10.068  41.414 -35.8350  0.00  0.00     0.000 C
ATOM     38  C2  GU6 D   3      11.153  40.441 -36.2790  0.00  0.00     0.000 C
ATOM     39  C3  GU6 D   3      12.509  41.057 -36.0520  0.00  0.00     0.000 C
ATOM     40  C4  GU6 D   3      12.559  42.477 -35.6880  0.00  0.00     0.000 C
ATOM     41  C5  GU6 D   3      11.459  43.259 -36.4800  0.00  0.00     0.000 C
ATOM     42  O5  GU6 D   3      10.190  42.605 -36.5970  0.00  0.00     0.000 O
BRANCH 38 43
ATOM     43   O  GU6 D   3      11.051  39.223 -35.5650  0.00  0.00     0.000 O
ATOM     44   S  GU6 D   3      10.122  38.197 -36.2010  0.00  0.00     0.000 S
ATOM     45   O  GU6 D   3       8.736  38.525 -35.8260  0.00  0.00     0.000 OA
ATOM     46   O  GU6 D   3      10.266  38.277 -37.6660  0.00  0.00     0.000 O
ATOM     47   O  GU6 D   3      10.500  36.867 -35.7330  0.00  0.00     0.000 OA
ENDBRANCH 38 43
BRANCH 39 48
ATOM     48   O  GU6 D   3      13.668  40.251 -35.9640  0.00  0.00     0.000 O
ATOM     49   S  GU6 D   3      14.499  39.605 -37.0710  0.00  0.00     0.000 S
ATOM     50   O  GU6 D   3      14.942  40.623 -38.0310  0.00  0.00     0.000 OA
ATOM     51   O  GU6 D   3      15.639  39.033 -36.3410  0.00  0.00     0.000 OA
ATOM     52   O  GU6 D   3      13.675  38.585 -37.7580  0.00  0.00     0.000 O
ENDBRANCH 39 48
BRANCH 41 53
ATOM     53   C  GU6 D   3      11.541  44.616 -37.1260  0.00  0.00     0.000 C
ATOM     54   O  GU6 D   3      11.759  44.186 -38.4450  0.00  0.00     0.000 O
ATOM     55   S  GU6 D   3      12.038  45.204 -39.5590  0.00  0.00     0.000 S
ATOM     56   O  GU6 D   3      13.344  45.830 -39.2490  0.00  0.00     0.000 O
ATOM     57   O  GU6 D   3      12.095  44.489 -40.8420  0.00  0.00     0.000 OA
ATOM     58   O  GU6 D   3      10.947  46.203 -39.5230  0.00  0.00     0.000 OA
ENDBRANCH 41 53
BRANCH 37 59
ATOM     59  O4  Z9K D   4       9.813  41.803 -34.4680  0.00  0.00     0.000 O
BRANCH 59 63
ATOM     60  C1  Z9K D   4       7.115  42.828 -31.8000  0.00  0.00     0.000 C
ATOM     61  C2  Z9K D   4       6.503  43.432 -33.0950  0.00  0.00     0.000 C
ATOM     62  C3  Z9K D   4       7.498  42.859 -34.1940  0.00  0.00     0.000 C
ATOM     63  C4  Z9K D   4       9.051  42.925 -33.9340  0.00  0.00     0.000 C
ATOM     64  C5  Z9K D   4       9.488  42.946 -32.4610  0.00  0.00     0.000 C
ATOM     65  O5  Z9K D   4       8.460  42.155 -31.8090  0.00  0.00     0.000 O
ATOM     66   O  Z9K D   4       7.316  43.453 -35.4920  0.00  0.00     0.000 O
ATOM     67   C  Z9K D   4       6.309  42.840 -36.2810  0.00  0.00     0.000 C
BRANCH 61 68
ATOM     68   O  Z9K D   4       5.274  42.793 -33.3050  0.00  0.00     0.000 O
ATOM     69   O  Z9K D   4       5.201  45.224 -34.1010  0.00  0.00     0.000 OA
ATOM     70   S  Z9K D   4       4.816  44.326 -33.0540  0.00  0.00     0.000 S
ATOM     71   O  Z9K D   4       4.868  44.605 -31.6520  0.00  0.00     0.000 OA
ATOM     72   O  Z9K D   4       3.580  43.683 -33.3650  0.00  0.00     0.000 OA
ENDBRANCH 61 68
BRANCH 64 73
ATOM     73   C  Z9K D   4      10.962  42.511 -32.3190  0.00  0.00     0.000 C
ATOM     74   O  Z9K D   4      11.904  43.353 -32.3860  0.00  0.00     0.000 O
ATOM     75   O  Z9K D   4      11.281  41.312 -32.1250  0.00  0.00     0.000 OA
ENDBRANCH 64 73
BRANCH 60 76
ATOM     76  O4  Z9L D   5       7.313  43.462 -30.5250  0.00  0.00     0.000 O
BRANCH 76 80
ATOM     77  C1  Z9L D   5       7.577  42.813 -26.5900  0.00  0.00     0.000 C
ATOM     78  C2  Z9L D   5       9.004  43.365 -27.0720  0.00  0.00     0.000 C
ATOM     79  C3  Z9L D   5       8.766  44.063 -28.5940  0.00  0.00     0.000 C
ATOM     80  C4  Z9L D   5       7.769  42.955 -29.2970  0.00  0.00     0.000 C
ATOM     81  C5  Z9L D   5       6.452  42.214 -28.7340  0.00  0.00     0.000 C
ATOM     82  O5  Z9L D   5       6.735  41.869 -27.3700  0.00  0.00     0.000 O
ATOM     83   C  Z9L D   5       5.453  43.595 -25.7140  0.00  0.00     0.000 C
ATOM     84   C  Z9L D   5       5.453  43.595 -25.7140  0.00  0.00     0.000 C
BRANCH 78 85
ATOM     85   O  Z9L D   5       9.410  44.350 -26.1770  0.00  0.00     0.000 O
ATOM     86   O  Z9L D   5      10.875  44.183 -24.9370  0.00  0.00     0.000 OA
ATOM     87   S  Z9L D   5      10.533  43.224 -25.9440  0.00  0.00     0.000 S
ATOM     88   O  Z9L D   5      11.616  43.278 -26.8940  0.00  0.00     0.000 OA
ATOM     89   O  Z9L D   5      10.127  42.062 -25.2310  0.00  0.00     0.000 OA
ENDBRANCH 78 85
BRANCH 79 90
ATOM     90   O  Z9L D   5       9.914  43.976 -29.3770  0.00  0.00     0.000 O
ATOM     91   S  Z9L D   5       9.690  45.553 -29.4050  0.00  0.00     0.000 S
ATOM     92   O  Z9L D   5       9.599  46.340 -28.2030  0.00  0.00     0.000 OA
ATOM     93   O  Z9L D   5       8.935  45.907 -30.5810  0.00  0.00     0.000 O
ATOM     94   O  Z9L D   5      11.065  45.514 -29.7820  0.00  0.00     0.000 OA
ENDBRANCH 79 90
BRANCH 81 95
ATOM     95   C  Z9L D   5       5.740  41.058 -29.7190  0.00  0.00     0.000 C
ATOM     96   S  Z9L D   5       5.746  39.135 -30.2360  0.00  0.00     0.000 S
ATOM     97   O  Z9L D   5       6.839  40.195 -29.8330  0.00  0.00     0.000 O
ATOM     98   O  Z9L D   5       5.300  39.482 -31.5610  0.00  0.00     0.000 OA
ATOM     99   O  Z9L D   5       4.822  38.779 -29.2130  0.00  0.00     0.000 OA
ATOM    100   O  Z9L D   5       6.915  38.299 -30.3540  0.00  0.00     0.000 O
ENDBRANCH 81 95
ENDBRANCH 76 80
ENDBRANCH 60 76
ENDBRANCH 59 63
ENDBRANCH 37 59
ENDBRANCH 36 40
ENDBRANCH 23 36
ENDBRANCH 22 26
ENDBRANCH 1 22
TORSDOF 19
ENDMDL
MODEL 80
REMARK VINA RESULT:      -6.7     26.018     32.537
ROOT
ATOM      1  C1  Z9H D   1      16.987  43.820 -33.2980  0.00  0.00     0.000 C
ATOM      2  C2  Z9H D   1      17.869  45.051 -32.9800  0.00  0.00     0.000 C
ATOM      3  C3  Z9H D   1      18.876  44.914 -34.1630  0.00  0.00     0.000 C
ATOM      4  C4  Z9H D   1      19.524  43.478 -34.3400  0.00  0.00     0.000 C
ATOM      5  C5  Z9H D   1      18.681  42.142 -34.3250  0.00  0.00     0.000 C
ATOM      6  O5  Z9H D   1      17.586  42.502 -33.4450  0.00  0.00     0.000 O
ATOM      7   O  Z9H D   1      19.894  45.915 -34.1060  0.00  0.00     0.000 O
ATOM      8   C  Z9H D   1      19.682  47.057 -34.9520  0.00  0.00     0.000 C
ATOM      9   O  Z9H D   1      20.227  43.521 -35.5860  0.00  0.00     0.000 O
ATOM     10   C  Z9H D   1      21.638  43.742 -35.4920  0.00  0.00     0.000 C
ENDROOT
BRANCH 2 11
ATOM     11   O  Z9H D   1      17.026  46.114 -33.3390  0.00  0.00     0.000 O
ATOM     12   O  Z9H D   1      16.354  47.391 -32.1230  0.00  0.00     0.000 OA
ATOM     13   S  Z9H D   1      17.248  46.336 -31.7820  0.00  0.00     0.000 S
ATOM     14   O  Z9H D   1      18.602  46.766 -31.5760  0.00  0.00     0.000 OA
ATOM     15   O  Z9H D   1      16.566  45.332 -30.9970  0.00  0.00     0.000 O
ENDBRANCH 2 11
BRANCH 5 16
ATOM     16   C  Z9H D   1      19.570  40.745 -34.0800  0.00  0.00     0.000 C
ATOM     17   S  Z9H D   1      21.411  40.030 -33.7070  0.00  0.00     0.000 S
ATOM     18   O  Z9H D   1      20.525  41.278 -33.1950  0.00  0.00     0.000 O
ATOM     19   O  Z9H D   1      21.823  40.106 -35.0790  0.00  0.00     0.000 O
ATOM     20   O  Z9H D   1      20.967  38.828 -33.0920  0.00  0.00     0.000 OA
ATOM     21   O  Z9H D   1      22.361  40.646 -32.8270  0.00  0.00     0.000 OA
ENDBRANCH 5 16
BRANCH 1 22
ATOM     22  O4  GU1 D   2      16.227  43.911 -34.5570  0.00  0.00     0.000 O
BRANCH 22 26
ATOM     23  C1  GU1 D   2      12.563  43.244 -36.3160  0.00  0.00     0.000 C
ATOM     24  C2  GU1 D   2      12.505  43.634 -34.8470  0.00  0.00     0.000 C
ATOM     25  C3  GU1 D   2      13.828  44.212 -34.4340  0.00  0.00     0.000 C
ATOM     26  C4  GU1 D   2      14.968  43.267 -34.7840  0.00  0.00     0.000 C
ATOM     27  C5  GU1 D   2      14.874  42.854 -36.2560  0.00  0.00     0.000 C
ATOM     28  O5  GU1 D   2      13.595  42.290 -36.5350  0.00  0.00     0.000 O
ATOM     29   O  GU1 D   2      11.497  44.604 -34.5930  0.00  0.00     0.000 O
ATOM     30   C  GU1 D   2      10.274  44.054 -34.1240  0.00  0.00     0.000 C
ATOM     31   C  GU1 D   2      13.608  45.753 -32.5990  0.00  0.00     0.000 C
ATOM     32   O  GU1 D   2      13.813  44.406 -33.0160  0.00  0.00     0.000 O
BRANCH 27 33
ATOM     33   C  GU1 D   2      15.921  41.823 -36.6030  0.00  0.00     0.000 C
ATOM     34   O  GU1 D   2      16.721  42.083 -37.4780  0.00  0.00     0.000 OA
ATOM     35   O  GU1 D   2      15.960  40.755 -36.0110  0.00  0.00     0.000 O
ENDBRANCH 27 33
BRANCH 23 36
ATOM     36  O4  GU6 D   3      11.510  42.445 -36.8920  0.00  0.00     0.000 O
BRANCH 36 40
ATOM     37  C1  GU6 D   3       8.231  41.370 -39.0790  0.00  0.00     0.000 C
ATOM     38  C2  GU6 D   3       8.807  40.241 -38.2340  0.00  0.00     0.000 C
ATOM     39  C3  GU6 D   3       9.825  40.799 -37.2730  0.00  0.00     0.000 C
ATOM     40  C4  GU6 D   3      10.237  42.196 -37.4520  0.00  0.00     0.000 C
ATOM     41  C5  GU6 D   3      10.333  42.521 -38.9790  0.00  0.00     0.000 C
ATOM     42  O5  GU6 D   3       9.289  41.983 -39.7990  0.00  0.00     0.000 O
BRANCH 38 43
ATOM     43   O  GU6 D   3       7.781  39.580 -37.5200  0.00  0.00     0.000 O
ATOM     44   S  GU6 D   3       7.047  38.510 -38.3190  0.00  0.00     0.000 S
ATOM     45   O  GU6 D   3       6.031  39.167 -39.1580  0.00  0.00     0.000 OA
ATOM     46   O  GU6 D   3       8.021  37.817 -39.1820  0.00  0.00     0.000 O
ATOM     47   O  GU6 D   3       6.439  37.563 -37.3900  0.00  0.00     0.000 OA
ENDBRANCH 38 43
BRANCH 39 48
ATOM     48   O  GU6 D   3      10.193  40.084 -36.1090  0.00  0.00     0.000 O
ATOM     49   S  GU6 D   3      11.102  38.866 -35.9520  0.00  0.00     0.000 S
ATOM     50   O  GU6 D   3      12.419  39.140 -36.5380  0.00  0.00     0.000 OA
ATOM     51   O  GU6 D   3      11.192  38.703 -34.4950  0.00  0.00     0.000 OA
ATOM     52   O  GU6 D   3      10.477  37.710 -36.6320  0.00  0.00     0.000 O
ENDBRANCH 39 48
BRANCH 41 53
ATOM     53   C  GU6 D   3      11.364  43.337 -39.7110  0.00  0.00     0.000 C
ATOM     54   O  GU6 D   3      12.243  42.291 -40.0320  0.00  0.00     0.000 O
ATOM     55   S  GU6 D   3      13.585  42.584 -40.7170  0.00  0.00     0.000 S
ATOM     56   O  GU6 D   3      14.402  43.347 -39.7460  0.00  0.00     0.000 O
ATOM     57   O  GU6 D   3      14.230  41.305 -41.0480  0.00  0.00     0.000 OA
ATOM     58   O  GU6 D   3      13.295  43.393 -41.9220  0.00  0.00     0.000 OA
ENDBRANCH 41 53
BRANCH 37 59
ATOM     59  O4  Z9K D   4       7.382  42.426 -38.5830  0.00  0.00     0.000 O
BRANCH 59 63
ATOM     60  C1  Z9K D   4       3.573  41.832 -39.3500  0.00  0.00     0.000 C
ATOM     61  C2  Z9K D   4       4.096  42.271 -40.7460  0.00  0.00     0.000 C
ATOM     62  C3  Z9K D   4       5.662  42.331 -40.4750  0.00  0.00     0.000 C
ATOM     63  C4  Z9K D   4       6.189  43.029 -39.1640  0.00  0.00     0.000 C
ATOM     64  C5  Z9K D   4       5.217  43.049 -37.9740  0.00  0.00     0.000 C
ATOM     65  O5  Z9K D   4       4.473  41.814 -38.1450  0.00  0.00     0.000 O
ATOM     66   O  Z9K D   4       6.401  42.949 -41.5450  0.00  0.00     0.000 O
ATOM     67   C  Z9K D   4       6.756  42.067 -42.5970  0.00  0.00     0.000 C
BRANCH 61 68
ATOM     68   O  Z9K D   4       3.889  41.195 -41.6200  0.00  0.00     0.000 O
ATOM     69   O  Z9K D   4       3.659  43.435 -42.8370  0.00  0.00     0.000 OA
ATOM     70   S  Z9K D   4       2.939  42.338 -42.2640  0.00  0.00     0.000 S
ATOM     71   O  Z9K D   4       1.740  42.439 -41.4880  0.00  0.00     0.000 OA
ATOM     72   O  Z9K D   4       2.810  41.268 -43.2000  0.00  0.00     0.000 OA
ENDBRANCH 61 68
BRANCH 64 73
ATOM     73   C  Z9K D   4       5.976  43.280 -36.6500  0.00  0.00     0.000 C
ATOM     74   O  Z9K D   4       6.366  44.435 -36.3100  0.00  0.00     0.000 O
ATOM     75   O  Z9K D   4       6.229  42.338 -35.8590  0.00  0.00     0.000 OA
ENDBRANCH 64 73
BRANCH 60 76
ATOM     76  O4  Z9L D   5       2.428  42.320 -38.6310  0.00  0.00     0.000 O
BRANCH 76 80
ATOM     77  C1  Z9L D   5      -0.547  41.263 -36.1800  0.00  0.00     0.000 C
ATOM     78  C2  Z9L D   5       0.377  42.299 -35.3780  0.00  0.00     0.000 C
ATOM     79  C3  Z9L D   5       1.338  43.084 -36.5270  0.00  0.00     0.000 C
ATOM     80  C4  Z9L D   5       1.763  41.823 -37.4980  0.00  0.00     0.000 C
ATOM     81  C5  Z9L D   5       0.877  40.633 -38.1290  0.00  0.00     0.000 C
ATOM     82  O5  Z9L D   5      -0.031  40.215 -37.0980  0.00  0.00     0.000 O
ATOM     83   C  Z9L D   5      -2.505  41.203 -37.6130  0.00  0.00     0.000 C
ATOM     84   C  Z9L D   5      -2.505  41.203 -37.6130  0.00  0.00     0.000 C
BRANCH 78 85
ATOM     85   O  Z9L D   5      -0.454  43.232 -34.7640  0.00  0.00     0.000 O
ATOM     86   O  Z9L D   5      -0.783  43.343 -32.8690  0.00  0.00     0.000 OA
ATOM     87   S  Z9L D   5       0.164  42.470 -33.4910  0.00  0.00     0.000 S
ATOM     88   O  Z9L D   5       1.455  42.968 -33.0860  0.00  0.00     0.000 OA
ATOM     89   O  Z9L D   5      -0.320  41.155 -33.2440  0.00  0.00     0.000 OA
ENDBRANCH 78 85
BRANCH 79 90
ATOM     90   O  Z9L D   5       2.560  43.474 -35.9860  0.00  0.00     0.000 O
ATOM     91   S  Z9L D   5       2.029  44.888 -36.4940  0.00  0.00     0.000 S
ATOM     92   O  Z9L D   5       0.762  45.430 -36.0780  0.00  0.00     0.000 OA
ATOM     93   O  Z9L D   5       2.551  45.147 -37.8130  0.00  0.00     0.000 O
ATOM     94   O  Z9L D   5       3.009  45.337 -35.5570  0.00  0.00     0.000 OA
ENDBRANCH 79 90
BRANCH 81 95
ATOM     95   C  Z9L D   5       1.685  39.455 -39.0080  0.00  0.00     0.000 C
ATOM     96   S  Z9L D   5       1.468  37.958 -40.3040  0.00  0.00     0.000 S
ATOM     97   O  Z9L D   5       0.641  38.521 -39.0880  0.00  0.00     0.000 O
ATOM     98   O  Z9L D   5       2.625  37.302 -39.7510  0.00  0.00     0.000 OA
ATOM     99   O  Z9L D   5       1.575  38.820 -41.4330  0.00  0.00     0.000 OA
ATOM    100   O  Z9L D   5       0.377  37.016 -40.3270  0.00  0.00     0.000 O
ENDBRANCH 81 95
ENDBRANCH 76 80
ENDBRANCH 60 76
ENDBRANCH 59 63
ENDBRANCH 37 59
ENDBRANCH 36 40
ENDBRANCH 23 36
ENDBRANCH 22 26
ENDBRANCH 1 22
TORSDOF 19
ENDMDL
MODEL 81
REMARK VINA RESULT:      -6.7     30.747     36.714
ROOT
ATOM      1  C1  Z9H D   1      10.977  41.496 -34.6300  0.00  0.00     0.000 C
ATOM      2  C2  Z9H D   1      11.439  41.427 -36.1050  0.00  0.00     0.000 C
ATOM      3  C3  Z9H D   1      10.040  41.546 -36.7820  0.00  0.00     0.000 C
ATOM      4  C4  Z9H D   1       8.933  40.553 -36.2350  0.00  0.00     0.000 C
ATOM      5  C5  Z9H D   1       8.657  40.331 -34.6940  0.00  0.00     0.000 C
ATOM      6  O5  Z9H D   1       9.971  40.571 -34.1300  0.00  0.00     0.000 O
ATOM      7   O  Z9H D   1      10.134  41.450 -38.2050  0.00  0.00     0.000 O
ATOM      8   C  Z9H D   1      10.130  42.703 -38.9090  0.00  0.00     0.000 C
ATOM      9   O  Z9H D   1       7.702  40.977 -36.8280  0.00  0.00     0.000 O
ATOM     10   C  Z9H D   1       7.279  40.232 -37.9740  0.00  0.00     0.000 C
ENDROOT
BRANCH 2 11
ATOM     11   O  Z9H D   1      12.039  42.684 -36.2810  0.00  0.00     0.000 O
ATOM     12   O  Z9H D   1      13.872  42.942 -36.6450  0.00  0.00     0.000 OA
ATOM     13   S  Z9H D   1      13.241  41.672 -36.5110  0.00  0.00     0.000 S
ATOM     14   O  Z9H D   1      13.029  40.995 -37.7590  0.00  0.00     0.000 OA
ATOM     15   O  Z9H D   1      13.647  41.036 -35.2790  0.00  0.00     0.000 O
ENDBRANCH 2 11
BRANCH 5 16
ATOM     16   C  Z9H D   1       7.789  38.949 -34.3210  0.00  0.00     0.000 C
ATOM     17   S  Z9H D   1       7.464  37.562 -32.9040  0.00  0.00     0.000 S
ATOM     18   O  Z9H D   1       7.676  39.162 -32.9350  0.00  0.00     0.000 O
ATOM     19   O  Z9H D   1       8.623  36.794 -33.2550  0.00  0.00     0.000 O
ATOM     20   O  Z9H D   1       6.150  37.233 -33.3360  0.00  0.00     0.000 OA
ATOM     21   O  Z9H D   1       7.406  37.834 -31.4970  0.00  0.00     0.000 OA
ENDBRANCH 5 16
BRANCH 1 22
ATOM     22  O4  GU1 D   2      10.382  42.782 -34.2270  0.00  0.00     0.000 O
BRANCH 22 26
ATOM     23  C1  GU1 D   2      10.140  45.596 -31.2280  0.00  0.00     0.000 C
ATOM     24  C2  GU1 D   2      11.504  44.941 -31.3810  0.00  0.00     0.000 C
ATOM     25  C3  GU1 D   2      11.575  44.245 -32.7100  0.00  0.00     0.000 C
ATOM     26  C4  GU1 D   2      10.402  43.293 -32.8880  0.00  0.00     0.000 C
ATOM     27  C5  GU1 D   2       9.085  44.024 -32.6100  0.00  0.00     0.000 C
ATOM     28  O5  GU1 D   2       9.109  44.620 -31.3160  0.00  0.00     0.000 O
ATOM     29   O  GU1 D   2      12.561  45.891 -31.3200  0.00  0.00     0.000 O
ATOM     30   C  GU1 D   2      13.159  46.004 -30.0370  0.00  0.00     0.000 C
ATOM     31   C  GU1 D   2      13.833  44.085 -33.5280  0.00  0.00     0.000 C
ATOM     32   O  GU1 D   2      12.790  43.490 -32.7610  0.00  0.00     0.000 O
BRANCH 27 33
ATOM     33   C  GU1 D   2       7.911  43.075 -32.6620  0.00  0.00     0.000 C
ATOM     34   O  GU1 D   2       7.859  42.177 -31.8470  0.00  0.00     0.000 OA
ATOM     35   O  GU1 D   2       7.036  43.215 -33.5020  0.00  0.00     0.000 O
ENDBRANCH 27 33
BRANCH 23 36
ATOM     36  O4  GU6 D   3       9.731  46.117 -29.9480  0.00  0.00     0.000 O
BRANCH 36 40
ATOM     37  C1  GU6 D   3       8.154  46.436 -26.1920  0.00  0.00     0.000 C
ATOM     38  C2  GU6 D   3       8.490  47.775 -26.8370  0.00  0.00     0.000 C
ATOM     39  C3  GU6 D   3       8.801  47.567 -28.2970  0.00  0.00     0.000 C
ATOM     40  C4  GU6 D   3       8.949  46.188 -28.7720  0.00  0.00     0.000 C
ATOM     41  C5  GU6 D   3       9.676  45.333 -27.6820  0.00  0.00     0.000 C
ATOM     42  O5  GU6 D   3       9.273  45.574 -26.3290  0.00  0.00     0.000 O
BRANCH 38 43
ATOM     43   O  GU6 D   3       7.412  48.680 -26.6970  0.00  0.00     0.000 O
ATOM     44   S  GU6 D   3       7.471  49.539 -25.4410  0.00  0.00     0.000 S
ATOM     45   O  GU6 D   3       6.948  48.752 -24.3110  0.00  0.00     0.000 OA
ATOM     46   O  GU6 D   3       8.877  49.896 -25.1800  0.00  0.00     0.000 O
ATOM     47   O  GU6 D   3       6.680  50.746 -25.6590  0.00  0.00     0.000 OA
ENDBRANCH 38 43
BRANCH 39 48
ATOM     48   O  GU6 D   3       8.723  48.640 -29.2160  0.00  0.00     0.000 O
ATOM     49   S  GU6 D   3       9.730  49.750 -29.5160  0.00  0.00     0.000 S
ATOM     50   O  GU6 D   3      11.029  49.169 -29.8770  0.00  0.00     0.000 OA
ATOM     51   O  GU6 D   3       9.125  50.448 -30.6580  0.00  0.00     0.000 OA
ATOM     52   O  GU6 D   3       9.873  50.606 -28.3170  0.00  0.00     0.000 O
ENDBRANCH 39 48
BRANCH 41 53
ATOM     53   C  GU6 D   3      10.734  44.278 -27.8560  0.00  0.00     0.000 C
ATOM     54   O  GU6 D   3       9.898  43.240 -28.2980  0.00  0.00     0.000 O
ATOM     55   S  GU6 D   3      10.461  41.832 -28.5310  0.00  0.00     0.000 S
ATOM     56   O  GU6 D   3      10.875  41.313 -27.2070  0.00  0.00     0.000 O
ATOM     57   O  GU6 D   3       9.402  40.993 -29.1100  0.00  0.00     0.000 OA
ATOM     58   O  GU6 D   3      11.624  41.969 -29.4360  0.00  0.00     0.000 OA
ENDBRANCH 41 53
BRANCH 37 59
ATOM     59  O4  Z9K D   4       6.973  45.655 -26.4710  0.00  0.00     0.000 O
BRANCH 59 63
ATOM     60  C1  Z9K D   4       3.343  44.162 -26.6650  0.00  0.00     0.000 C
ATOM     61  C2  Z9K D   4       3.128  45.560 -27.3090  0.00  0.00     0.000 C
ATOM     62  C3  Z9K D   4       4.627  46.084 -27.3970  0.00  0.00     0.000 C
ATOM     63  C4  Z9K D   4       5.575  45.911 -26.1490  0.00  0.00     0.000 C
ATOM     64  C5  Z9K D   4       5.238  44.751 -25.2010  0.00  0.00     0.000 C
ATOM     65  O5  Z9K D   4       4.675  43.756 -26.0970  0.00  0.00     0.000 O
ATOM     66   O  Z9K D   4       4.723  47.478 -27.7430  0.00  0.00     0.000 O
ATOM     67   C  Z9K D   4       4.695  47.738 -29.1370  0.00  0.00     0.000 C
BRANCH 61 68
ATOM     68   O  Z9K D   4       2.709  45.344 -28.6290  0.00  0.00     0.000 O
ATOM     69   O  Z9K D   4       1.672  47.476 -27.6650  0.00  0.00     0.000 OA
ATOM     70   S  Z9K D   4       1.429  46.103 -27.9910  0.00  0.00     0.000 S
ATOM     71   O  Z9K D   4       0.686  45.174 -27.1960  0.00  0.00     0.000 OA
ATOM     72   O  Z9K D   4       1.052  45.964 -29.3600  0.00  0.00     0.000 OA
ENDBRANCH 61 68
BRANCH 64 73
ATOM     73   C  Z9K D   4       6.462  44.369 -24.3430  0.00  0.00     0.000 C
ATOM     74   O  Z9K D   4       6.750  45.008 -23.2900  0.00  0.00     0.000 O
ATOM     75   O  Z9K D   4       7.213  43.411 -24.6520  0.00  0.00     0.000 OA
ENDBRANCH 64 73
BRANCH 60 76
ATOM     76  O4  Z9L D   5       2.578  43.530 -25.6250  0.00  0.00     0.000 O
BRANCH 76 80
ATOM     77  C1  Z9L D   5       0.865  40.131 -24.4060  0.00  0.00     0.000 C
ATOM     78  C2  Z9L D   5       2.105  40.409 -23.4270  0.00  0.00     0.000 C
ATOM     79  C3  Z9L D   5       2.534  42.032 -23.6370  0.00  0.00     0.000 C
ATOM     80  C4  Z9L D   5       2.427  42.178 -25.2740  0.00  0.00     0.000 C
ATOM     81  C5  Z9L D   5       1.284  41.694 -26.3030  0.00  0.00     0.000 C
ATOM     82  O5  Z9L D   5       0.875  40.389 -25.8690  0.00  0.00     0.000 O
ATOM     83   C  Z9L D   5      -1.517  40.562 -24.5990  0.00  0.00     0.000 C
ATOM     84   C  Z9L D   5      -1.517  40.562 -24.5990  0.00  0.00     0.000 C
BRANCH 78 85
ATOM     85   O  Z9L D   5       1.673  40.217 -22.1180  0.00  0.00     0.000 O
ATOM     86   O  Z9L D   5       2.240  38.782 -20.9660  0.00  0.00     0.000 OA
ATOM     87   S  Z9L D   5       2.774  39.056 -22.2650  0.00  0.00     0.000 S
ATOM     88   O  Z9L D   5       4.125  39.502 -22.0280  0.00  0.00     0.000 OA
ATOM     89   O  Z9L D   5       2.411  37.935 -23.0630  0.00  0.00     0.000 OA
ENDBRANCH 78 85
BRANCH 79 90
ATOM     90   O  Z9L D   5       3.892  42.231 -23.4030  0.00  0.00     0.000 O
ATOM     91   S  Z9L D   5       3.285  43.160 -22.2610  0.00  0.00     0.000 S
ATOM     92   O  Z9L D   5       2.369  42.662 -21.2690  0.00  0.00     0.000 OA
ATOM     93   O  Z9L D   5       3.188  44.514 -22.7470  0.00  0.00     0.000 O
ATOM     94   O  Z9L D   5       4.604  42.993 -21.7400  0.00  0.00     0.000 OA
ENDBRANCH 79 90
BRANCH 81 95
ATOM     95   C  Z9L D   5       1.567  41.940 -27.9380  0.00  0.00     0.000 C
ATOM     96   S  Z9L D   5       2.164  41.080 -29.6320  0.00  0.00     0.000 S
ATOM     97   O  Z9L D   5       2.561  40.966 -28.1130  0.00  0.00     0.000 O
ATOM     98   O  Z9L D   5       2.676  42.342 -30.1010  0.00  0.00     0.000 OA
ATOM     99   O  Z9L D   5       0.849  40.644 -29.9640  0.00  0.00     0.000 OA
ATOM    100   O  Z9L D   5       3.208  40.092 -29.7520  0.00  0.00     0.000 O
ENDBRANCH 81 95
ENDBRANCH 76 80
ENDBRANCH 60 76
ENDBRANCH 59 63
ENDBRANCH 37 59
ENDBRANCH 36 40
ENDBRANCH 23 36
ENDBRANCH 22 26
ENDBRANCH 1 22
TORSDOF 19
ENDMDL
MODEL 82
REMARK VINA RESULT:      -6.7      5.799     17.282
ROOT
ATOM      1  C1  Z9H D   1       0.576   7.611 -43.9590  0.00  0.00     0.000 C
ATOM      2  C2  Z9H D   1       1.375   6.286 -43.9720  0.00  0.00     0.000 C
ATOM      3  C3  Z9H D   1       0.228   5.330 -43.5240  0.00  0.00     0.000 C
ATOM      4  C4  Z9H D   1      -0.567   5.782 -42.2300  0.00  0.00     0.000 C
ATOM      5  C5  Z9H D   1      -1.113   7.251 -42.0200  0.00  0.00     0.000 C
ATOM      6  O5  Z9H D   1      -0.140   8.027 -42.7630  0.00  0.00     0.000 O
ATOM      7   O  Z9H D   1       0.690   3.985 -43.3790  0.00  0.00     0.000 O
ATOM      8   C  Z9H D   1       0.426   3.120 -44.4950  0.00  0.00     0.000 C
ATOM      9   O  Z9H D   1      -1.688   4.897 -42.1320  0.00  0.00     0.000 O
ATOM     10   C  Z9H D   1      -1.538   3.811 -41.2130  0.00  0.00     0.000 C
ENDROOT
BRANCH 2 11
ATOM     11   O  Z9H D   1       1.530   6.052 -45.3470  0.00  0.00     0.000 O
ATOM     12   O  Z9H D   1       3.187   6.082 -46.2470  0.00  0.00     0.000 OA
ATOM     13   S  Z9H D   1       3.021   6.270 -44.8450  0.00  0.00     0.000 S
ATOM     14   O  Z9H D   1       3.403   5.133 -44.0580  0.00  0.00     0.000 OA
ATOM     15   O  Z9H D   1       3.268   7.649 -44.4890  0.00  0.00     0.000 O
ENDBRANCH 2 11
BRANCH 5 16
ATOM     16   C  Z9H D   1      -1.517   7.639 -40.4430  0.00  0.00     0.000 C
ATOM     17   S  Z9H D   1      -1.432   7.007 -38.5370  0.00  0.00     0.000 S
ATOM     18   O  Z9H D   1      -0.435   7.002 -39.8060  0.00  0.00     0.000 O
ATOM     19   O  Z9H D   1      -2.579   6.155 -38.6690  0.00  0.00     0.000 O
ATOM     20   O  Z9H D   1      -1.488   8.305 -37.9620  0.00  0.00     0.000 OA
ATOM     21   O  Z9H D   1      -0.317   6.318 -37.9560  0.00  0.00     0.000 OA
ENDBRANCH 5 16
BRANCH 1 22
ATOM     22  O4  GU1 D   2      -0.504   7.692 -44.9590  0.00  0.00     0.000 O
BRANCH 22 26
ATOM     23  C1  GU1 D   2      -2.486  10.090 -47.6590  0.00  0.00     0.000 C
ATOM     24  C2  GU1 D   2      -0.969  10.186 -47.7120  0.00  0.00     0.000 C
ATOM     25  C3  GU1 D   2      -0.371   9.020 -46.9800  0.00  0.00     0.000 C
ATOM     26  C4  GU1 D   2      -0.940   8.911 -45.5730  0.00  0.00     0.000 C
ATOM     27  C5  GU1 D   2      -2.471   8.927 -45.6240  0.00  0.00     0.000 C
ATOM     28  O5  GU1 D   2      -2.935  10.087 -46.3090  0.00  0.00     0.000 O
ATOM     29   O  GU1 D   2      -0.481  10.170 -49.0480  0.00  0.00     0.000 O
ATOM     30   C  GU1 D   2      -0.223  11.461 -49.5820  0.00  0.00     0.000 C
ATOM     31   C  GU1 D   2       1.817   8.457 -47.8090  0.00  0.00     0.000 C
ATOM     32   O  GU1 D   2       1.043   9.221 -46.8880  0.00  0.00     0.000 O
BRANCH 27 33
ATOM     33   C  GU1 D   2      -3.063   8.942 -44.2350  0.00  0.00     0.000 C
ATOM     34   O  GU1 D   2      -3.749   8.002 -43.8890  0.00  0.00     0.000 OA
ATOM     35   O  GU1 D   2      -2.851   9.878 -43.4790  0.00  0.00     0.000 O
ENDBRANCH 27 33
BRANCH 23 36
ATOM     36  O4  GU6 D   3      -3.294  11.210 -48.0720  0.00  0.00     0.000 O
BRANCH 36 40
ATOM     37  C1  GU6 D   3      -4.789  14.342 -50.2290  0.00  0.00     0.000 C
ATOM     38  C2  GU6 D   3      -5.360  14.233 -48.8200  0.00  0.00     0.000 C
ATOM     39  C3  GU6 D   3      -4.559  13.234 -48.0270  0.00  0.00     0.000 C
ATOM     40  C4  GU6 D   3      -3.580  12.416 -48.7520  0.00  0.00     0.000 C
ATOM     41  C5  GU6 D   3      -4.157  12.029 -50.1540  0.00  0.00     0.000 C
ATOM     42  O5  GU6 D   3      -4.862  13.066 -50.8460  0.00  0.00     0.000 O
BRANCH 38 43
ATOM     43   O  GU6 D   3      -5.336  15.492 -48.1750  0.00  0.00     0.000 O
ATOM     44   S  GU6 D   3      -6.613  16.306 -48.3380  0.00  0.00     0.000 S
ATOM     45   O  GU6 D   3      -6.572  16.984 -49.6460  0.00  0.00     0.000 OA
ATOM     46   O  GU6 D   3      -7.765  15.388 -48.2980  0.00  0.00     0.000 O
ATOM     47   O  GU6 D   3      -6.701  17.267 -47.2440  0.00  0.00     0.000 OA
ENDBRANCH 38 43
BRANCH 39 48
ATOM     48   O  GU6 D   3      -4.579  13.245 -46.6120  0.00  0.00     0.000 O
ATOM     49   S  GU6 D   3      -5.632  12.710 -45.6430  0.00  0.00     0.000 S
ATOM     50   O  GU6 D   3      -5.895  11.292 -45.9130  0.00  0.00     0.000 OA
ATOM     51   O  GU6 D   3      -4.998  12.892 -44.3300  0.00  0.00     0.000 OA
ATOM     52   O  GU6 D   3      -6.876  13.495 -45.8040  0.00  0.00     0.000 O
ENDBRANCH 39 48
BRANCH 41 53
ATOM     53   C  GU6 D   3      -4.064  10.719 -50.8880  0.00  0.00     0.000 C
ATOM     54   O  GU6 D   3      -2.865  10.971 -51.5760  0.00  0.00     0.000 O
ATOM     55   S  GU6 D   3      -2.332   9.966 -52.6050  0.00  0.00     0.000 S
ATOM     56   O  GU6 D   3      -3.299   9.949 -53.7270  0.00  0.00     0.000 O
ATOM     57   O  GU6 D   3      -1.012  10.421 -53.0640  0.00  0.00     0.000 OA
ATOM     58   O  GU6 D   3      -2.268   8.646 -51.9370  0.00  0.00     0.000 OA
ENDBRANCH 41 53
BRANCH 37 59
ATOM     59  O4  Z9K D   4      -3.503  14.907 -50.5600  0.00  0.00     0.000 O
BRANCH 59 63
ATOM     60  C1  Z9K D   4      -0.169  16.987 -50.5910  0.00  0.00     0.000 C
ATOM     61  C2  Z9K D   4      -0.562  17.072 -49.0910  0.00  0.00     0.000 C
ATOM     62  C3  Z9K D   4      -1.805  16.081 -49.0480  0.00  0.00     0.000 C
ATOM     63  C4  Z9K D   4      -2.904  16.178 -50.1740  0.00  0.00     0.000 C
ATOM     64  C5  Z9K D   4      -2.438  16.746 -51.5240  0.00  0.00     0.000 C
ATOM     65  O5  Z9K D   4      -1.056  16.308 -51.5980  0.00  0.00     0.000 O
ATOM     66   O  Z9K D   4      -2.537  16.138 -47.8110  0.00  0.00     0.000 O
ATOM     67   C  Z9K D   4      -2.017  15.311 -46.7830  0.00  0.00     0.000 C
BRANCH 61 68
ATOM     68   O  Z9K D   4       0.461  16.452 -48.3610  0.00  0.00     0.000 O
ATOM     69   O  Z9K D   4      -0.591  18.370 -47.0330  0.00  0.00     0.000 OA
ATOM     70   S  Z9K D   4       0.540  17.976 -47.8190  0.00  0.00     0.000 S
ATOM     71   O  Z9K D   4       1.201  18.785 -48.7970  0.00  0.00     0.000 OA
ATOM     72   O  Z9K D   4       1.513  17.313 -47.0130  0.00  0.00     0.000 OA
ENDBRANCH 61 68
BRANCH 64 73
ATOM     73   C  Z9K D   4      -3.407  16.338 -52.6540  0.00  0.00     0.000 C
ATOM     74   O  Z9K D   4      -4.554  16.864 -52.7560  0.00  0.00     0.000 O
ATOM     75   O  Z9K D   4      -3.095  15.480 -53.5160  0.00  0.00     0.000 OA
ENDBRANCH 64 73
BRANCH 60 76
ATOM     76  O4  Z9L D   5       0.213  18.053 -51.4770  0.00  0.00     0.000 O
BRANCH 76 80
ATOM     77  C1  Z9L D   5       3.193  19.077 -53.9360  0.00  0.00     0.000 C
ATOM     78  C2  Z9L D   5       1.825  19.268 -54.7510  0.00  0.00     0.000 C
ATOM     79  C3  Z9L D   5       0.578  19.287 -53.6080  0.00  0.00     0.000 C
ATOM     80  C4  Z9L D   5       1.049  18.067 -52.6060  0.00  0.00     0.000 C
ATOM     81  C5  Z9L D   5       2.487  17.730 -51.9590  0.00  0.00     0.000 C
ATOM     82  O5  Z9L D   5       3.458  17.963 -52.9900  0.00  0.00     0.000 O
ATOM     83   C  Z9L D   5       4.733  20.312 -52.5230  0.00  0.00     0.000 C
ATOM     84   C  Z9L D   5       4.733  20.312 -52.5230  0.00  0.00     0.000 C
BRANCH 78 85
ATOM     85   O  Z9L D   5       1.874  20.502 -55.3930  0.00  0.00     0.000 O
ATOM     86   O  Z9L D   5       2.097  20.753 -57.2900  0.00  0.00     0.000 OA
ATOM     87   S  Z9L D   5       1.921  19.490 -56.6410  0.00  0.00     0.000 S
ATOM     88   O  Z9L D   5       0.621  19.030 -57.0650  0.00  0.00     0.000 OA
ATOM     89   O  Z9L D   5       3.143  18.790 -56.8440  0.00  0.00     0.000 OA
ENDBRANCH 78 85
BRANCH 79 90
ATOM     90   O  Z9L D   5      -0.609  18.797 -54.1450  0.00  0.00     0.000 O
ATOM     91   S  Z9L D   5      -1.111  20.223 -53.6460  0.00  0.00     0.000 S
ATOM     92   O  Z9L D   5      -0.490  21.450 -54.0700  0.00  0.00     0.000 OA
ATOM     93   O  Z9L D   5      -1.676  20.096 -52.3260  0.00  0.00     0.000 O
ATOM     94   O  Z9L D   5      -2.151  19.931 -54.5790  0.00  0.00     0.000 OA
ENDBRANCH 79 90
BRANCH 81 95
ATOM     95   C  Z9L D   5       2.610  16.329 -51.0460  0.00  0.00     0.000 C
ATOM     96   S  Z9L D   5       3.151  14.412 -51.0740  0.00  0.00     0.000 S
ATOM     97   O  Z9L D   5       2.468  15.403 -52.0900  0.00  0.00     0.000 O
ATOM     98   O  Z9L D   5       2.169  14.113 -50.0640  0.00  0.00     0.000 OA
ATOM     99   O  Z9L D   5       4.500  14.709 -50.7310  0.00  0.00     0.000 OA
ATOM    100   O  Z9L D   5       2.963  13.501 -52.1760  0.00  0.00     0.000 O
ENDBRANCH 81 95
ENDBRANCH 76 80
ENDBRANCH 60 76
ENDBRANCH 59 63
ENDBRANCH 37 59
ENDBRANCH 36 40
ENDBRANCH 23 36
ENDBRANCH 22 26
ENDBRANCH 1 22
TORSDOF 19
ENDMDL
MODEL 83
REMARK VINA RESULT:      -6.7      3.456     15.183
ROOT
ATOM      1  C1  Z9H D   1       1.447   9.418 -48.4700  0.00  0.00     0.000 C
ATOM      2  C2  Z9H D   1       1.676   7.929 -48.8250  0.00  0.00     0.000 C
ATOM      3  C3  Z9H D   1       0.195   7.541 -49.1200  0.00  0.00     0.000 C
ATOM      4  C4  Z9H D   1      -0.852   7.956 -48.0050  0.00  0.00     0.000 C
ATOM      5  C5  Z9H D   1      -0.897   9.396 -47.3550  0.00  0.00     0.000 C
ATOM      6  O5  Z9H D   1       0.496   9.791 -47.4350  0.00  0.00     0.000 O
ATOM      7   O  Z9H D   1       0.066   6.153 -49.4310  0.00  0.00     0.000 O
ATOM      8   C  Z9H D   1       0.003   5.838 -50.8320  0.00  0.00     0.000 C
ATOM      9   O  Z9H D   1      -2.143   7.707 -48.5710  0.00  0.00     0.000 O
ATOM     10   C  Z9H D   1      -2.763   6.480 -48.1770  0.00  0.00     0.000 C
ENDROOT
BRANCH 2 11
ATOM     11   O  Z9H D   1       2.289   8.020 -50.0840  0.00  0.00     0.000 O
ATOM     12   O  Z9H D   1       4.056   7.469 -50.4450  0.00  0.00     0.000 OA
ATOM     13   S  Z9H D   1       3.406   7.339 -49.1840  0.00  0.00     0.000 S
ATOM     14   O  Z9H D   1       2.989   5.999 -48.8830  0.00  0.00     0.000 OA
ATOM     15   O  Z9H D   1       3.965   8.270 -48.2310  0.00  0.00     0.000 O
ENDBRANCH 2 11
BRANCH 5 16
ATOM     16   C  Z9H D   1      -1.749   9.499 -45.9180  0.00  0.00     0.000 C
ATOM     17   S  Z9H D   1      -2.233   8.510 -44.2360  0.00  0.00     0.000 S
ATOM     18   O  Z9H D   1      -0.905   8.689 -45.1360  0.00  0.00     0.000 O
ATOM     19   O  Z9H D   1      -3.290   7.768 -44.8630  0.00  0.00     0.000 O
ATOM     20   O  Z9H D   1      -2.457   9.676 -43.4540  0.00  0.00     0.000 OA
ATOM     21   O  Z9H D   1      -1.340   7.659 -43.5060  0.00  0.00     0.000 OA
ENDBRANCH 5 16
BRANCH 1 22
ATOM     22  O4  GU1 D   2       0.971  10.254 -49.5860  0.00  0.00     0.000 O
BRANCH 22 26
ATOM     23  C1  GU1 D   2       1.321  13.898 -51.4760  0.00  0.00     0.000 C
ATOM     24  C2  GU1 D   2       2.627  13.321 -50.9510  0.00  0.00     0.000 C
ATOM     25  C3  GU1 D   2       2.439  11.864 -50.6420  0.00  0.00     0.000 C
ATOM     26  C4  GU1 D   2       1.249  11.653 -49.7180  0.00  0.00     0.000 C
ATOM     27  C5  GU1 D   2       0.013  12.359 -50.2850  0.00  0.00     0.000 C
ATOM     28  O5  GU1 D   2       0.287  13.739 -50.5120  0.00  0.00     0.000 O
ATOM     29   O  GU1 D   2       3.682  13.442 -51.8980  0.00  0.00     0.000 O
ATOM     30   C  GU1 D   2       4.514  14.574 -51.6900  0.00  0.00     0.000 C
ATOM     31   C  GU1 D   2       4.498  10.629 -50.8140  0.00  0.00     0.000 C
ATOM     32   O  GU1 D   2       3.618  11.385 -49.9860  0.00  0.00     0.000 O
BRANCH 27 33
ATOM     33   C  GU1 D   2      -1.154  12.269 -49.3310  0.00  0.00     0.000 C
ATOM     34   O  GU1 D   2      -1.045  12.782 -48.2360  0.00  0.00     0.000 OA
ATOM     35   O  GU1 D   2      -2.182  11.697 -49.6590  0.00  0.00     0.000 O
ENDBRANCH 27 33
BRANCH 23 36
ATOM     36  O4  GU6 D   3       1.167  15.324 -51.6130  0.00  0.00     0.000 O
BRANCH 36 40
ATOM     37  C1  GU6 D   3       0.900  19.083 -53.1930  0.00  0.00     0.000 C
ATOM     38  C2  GU6 D   3       1.050  19.058 -51.6770  0.00  0.00     0.000 C
ATOM     39  C3  GU6 D   3       1.411  17.666 -51.2280  0.00  0.00     0.000 C
ATOM     40  C4  GU6 D   3       1.335  16.589 -52.2210  0.00  0.00     0.000 C
ATOM     41  C5  GU6 D   3       0.099  16.822 -53.1520  0.00  0.00     0.000 C
ATOM     42  O5  GU6 D   3      -0.128  18.175 -53.5600  0.00  0.00     0.000 O
BRANCH 38 43
ATOM     43   O  GU6 D   3       2.046  19.973 -51.2610  0.00  0.00     0.000 O
ATOM     44   S  GU6 D   3       1.504  21.297 -50.7370  0.00  0.00     0.000 S
ATOM     45   O  GU6 D   3       1.197  22.165 -51.8870  0.00  0.00     0.000 OA
ATOM     46   O  GU6 D   3       0.268  21.033 -49.9790  0.00  0.00     0.000 O
ATOM     47   O  GU6 D   3       2.506  21.903 -49.8660  0.00  0.00     0.000 OA
ENDBRANCH 38 43
BRANCH 39 48
ATOM     48   O  GU6 D   3       2.020  17.444 -49.9710  0.00  0.00     0.000 O
ATOM     49   S  GU6 D   3       1.390  17.312 -48.5850  0.00  0.00     0.000 S
ATOM     50   O  GU6 D   3       0.372  16.255 -48.5910  0.00  0.00     0.000 OA
ATOM     51   O  GU6 D   3       2.531  16.946 -47.7340  0.00  0.00     0.000 OA
ATOM     52   O  GU6 D   3       0.775  18.605 -48.2120  0.00  0.00     0.000 O
ENDBRANCH 39 48
BRANCH 41 53
ATOM     53   C  GU6 D   3      -0.881  15.817 -53.6940  0.00  0.00     0.000 C
ATOM     54   O  GU6 D   3      -1.837  15.911 -52.6700  0.00  0.00     0.000 O
ATOM     55   S  GU6 D   3      -3.056  14.979 -52.6550  0.00  0.00     0.000 S
ATOM     56   O  GU6 D   3      -2.543  13.607 -52.4350  0.00  0.00     0.000 O
ATOM     57   O  GU6 D   3      -3.943  15.386 -51.5560  0.00  0.00     0.000 OA
ATOM     58   O  GU6 D   3      -3.713  15.096 -53.9770  0.00  0.00     0.000 OA
ENDBRANCH 41 53
BRANCH 37 59
ATOM     59  O4  Z9K D   4       1.979  18.913 -54.1360  0.00  0.00     0.000 O
BRANCH 59 63
ATOM     60  C1  Z9K D   4       1.054  21.775 -56.6660  0.00  0.00     0.000 C
ATOM     61  C2  Z9K D   4       0.527  20.523 -57.4210  0.00  0.00     0.000 C
ATOM     62  C3  Z9K D   4       0.735  19.396 -56.3180  0.00  0.00     0.000 C
ATOM     63  C4  Z9K D   4       2.095  19.341 -55.5240  0.00  0.00     0.000 C
ATOM     64  C5  Z9K D   4       2.856  20.670 -55.3960  0.00  0.00     0.000 C
ATOM     65  O5  Z9K D   4       1.787  21.651 -55.3580  0.00  0.00     0.000 O
ATOM     66   O  Z9K D   4       0.549  18.063 -56.8260  0.00  0.00     0.000 O
ATOM     67   C  Z9K D   4      -0.798  17.619 -56.8280  0.00  0.00     0.000 C
BRANCH 61 68
ATOM     68   O  Z9K D   4      -0.858  20.683 -57.5640  0.00  0.00     0.000 O
ATOM     69   O  Z9K D   4       0.125  19.341 -59.5080  0.00  0.00     0.000 OA
ATOM     70   S  Z9K D   4      -0.367  20.624 -59.1060  0.00  0.00     0.000 S
ATOM     71   O  Z9K D   4       0.204  21.887 -59.4620  0.00  0.00     0.000 OA
ATOM     72   O  Z9K D   4      -1.786  20.690 -59.2380  0.00  0.00     0.000 OA
ENDBRANCH 61 68
BRANCH 64 73
ATOM     73   C  Z9K D   4       3.857  20.618 -54.2230  0.00  0.00     0.000 C
ATOM     74   O  Z9K D   4       4.636  19.632 -54.0680  0.00  0.00     0.000 O
ATOM     75   O  Z9K D   4       3.943  21.548 -53.3840  0.00  0.00     0.000 OA
ENDBRANCH 64 73
BRANCH 60 76
ATOM     76  O4  Z9L D   5       1.890  22.833 -57.1640  0.00  0.00     0.000 O
BRANCH 76 80
ATOM     77  C1  Z9L D   5       2.213  26.805 -57.4690  0.00  0.00     0.000 C
ATOM     78  C2  Z9L D   5       3.462  26.298 -56.6000  0.00  0.00     0.000 C
ATOM     79  C3  Z9L D   5       3.585  24.630 -56.8560  0.00  0.00     0.000 C
ATOM     80  C4  Z9L D   5       2.001  24.182 -56.7900  0.00  0.00     0.000 C
ATOM     81  C5  Z9L D   5       0.694  24.828 -57.4790  0.00  0.00     0.000 C
ATOM     82  O5  Z9L D   5       0.839  26.251 -57.3670  0.00  0.00     0.000 O
ATOM     83   C  Z9L D   5       1.584  27.280 -59.7650  0.00  0.00     0.000 C
ATOM     84   C  Z9L D   5       1.584  27.280 -59.7650  0.00  0.00     0.000 C
BRANCH 78 85
ATOM     85   O  Z9L D   5       4.608  26.919 -57.0870  0.00  0.00     0.000 O
ATOM     86   O  Z9L D   5       5.530  28.374 -56.2240  0.00  0.00     0.000 OA
ATOM     87   S  Z9L D   5       4.428  27.650 -55.6670  0.00  0.00     0.000 S
ATOM     88   O  Z9L D   5       4.986  26.913 -54.5600  0.00  0.00     0.000 OA
ATOM     89   O  Z9L D   5       3.369  28.595 -55.5710  0.00  0.00     0.000 OA
ENDBRANCH 78 85
BRANCH 79 90
ATOM     90   O  Z9L D   5       4.128  23.986 -55.7470  0.00  0.00     0.000 O
ATOM     91   S  Z9L D   5       5.180  23.541 -56.8560  0.00  0.00     0.000 S
ATOM     92   O  Z9L D   5       5.902  24.492 -57.6600  0.00  0.00     0.000 OA
ATOM     93   O  Z9L D   5       4.796  22.258 -57.3910  0.00  0.00     0.000 O
ATOM     94   O  Z9L D   5       5.964  23.293 -55.6890  0.00  0.00     0.000 OA
ENDBRANCH 79 90
BRANCH 81 95
ATOM     95   C  Z9L D   5      -0.791  24.143 -57.1030  0.00  0.00     0.000 C
ATOM     96   S  Z9L D   5      -2.425  24.321 -55.9800  0.00  0.00     0.000 S
ATOM     97   O  Z9L D   5      -0.889  24.604 -55.7820  0.00  0.00     0.000 O
ATOM     98   O  Z9L D   5      -2.587  22.890 -55.9760  0.00  0.00     0.000 OA
ATOM     99   O  Z9L D   5      -3.088  25.139 -56.9390  0.00  0.00     0.000 OA
ATOM    100   O  Z9L D   5      -2.463  24.787 -54.6150  0.00  0.00     0.000 O
ENDBRANCH 81 95
ENDBRANCH 76 80
ENDBRANCH 60 76
ENDBRANCH 59 63
ENDBRANCH 37 59
ENDBRANCH 36 40
ENDBRANCH 23 36
ENDBRANCH 22 26
ENDBRANCH 1 22
TORSDOF 19
ENDMDL
MODEL 84
REMARK VINA RESULT:      -6.7     32.010     38.449
ROOT
ATOM      1  C1  Z9H D   1      -6.113  37.311 -25.0350  0.00  0.00     0.000 C
ATOM      2  C2  Z9H D   1      -7.660  37.283 -25.0780  0.00  0.00     0.000 C
ATOM      3  C3  Z9H D   1      -7.927  37.429 -23.5490  0.00  0.00     0.000 C
ATOM      4  C4  Z9H D   1      -7.126  36.426 -22.6200  0.00  0.00     0.000 C
ATOM      5  C5  Z9H D   1      -5.575  36.162 -22.7700  0.00  0.00     0.000 C
ATOM      6  O5  Z9H D   1      -5.383  36.378 -24.1910  0.00  0.00     0.000 O
ATOM      7   O  Z9H D   1      -9.324  37.374 -23.2510  0.00  0.00     0.000 O
ATOM      8   C  Z9H D   1      -9.967  38.647 -23.0730  0.00  0.00     0.000 C
ATOM      9   O  Z9H D   1      -7.350  36.875 -21.2790  0.00  0.00     0.000 O
ATOM     10   C  Z9H D   1      -8.357  36.165 -20.5510  0.00  0.00     0.000 C
ENDROOT
BRANCH 2 11
ATOM     11   O  Z9H D   1      -7.960  38.541 -25.6240  0.00  0.00     0.000 O
ATOM     12   O  Z9H D   1      -8.729  38.802 -27.3260  0.00  0.00     0.000 OA
ATOM     13   S  Z9H D   1      -8.463  37.531 -26.7410  0.00  0.00     0.000 S
ATOM     14   O  Z9H D   1      -9.635  36.862 -26.2500  0.00  0.00     0.000 OA
ATOM     15   O  Z9H D   1      -7.360  36.886 -27.4150  0.00  0.00     0.000 O
ENDBRANCH 2 11
BRANCH 5 16
ATOM     16   C  Z9H D   1      -5.016  34.775 -22.0180  0.00  0.00     0.000 C
ATOM     17   S  Z9H D   1      -5.540  32.939 -21.3870  0.00  0.00     0.000 S
ATOM     18   O  Z9H D   1      -5.839  33.849 -22.6870  0.00  0.00     0.000 O
ATOM     19   O  Z9H D   1      -6.123  33.421 -20.1680  0.00  0.00     0.000 O
ATOM     20   O  Z9H D   1      -4.230  32.393 -21.4620  0.00  0.00     0.000 OA
ATOM     21   O  Z9H D   1      -6.423  32.057 -22.0920  0.00  0.00     0.000 OA
ENDBRANCH 5 16
BRANCH 1 22
ATOM     22  O4  GU1 D   2      -5.530  38.589 -24.5890  0.00  0.00     0.000 O
BRANCH 22 26
ATOM     23  C1  GU1 D   2      -2.329  41.149 -25.0060  0.00  0.00     0.000 C
ATOM     24  C2  GU1 D   2      -2.715  40.396 -26.2700  0.00  0.00     0.000 C
ATOM     25  C3  GU1 D   2      -4.088  39.812 -26.1020  0.00  0.00     0.000 C
ATOM     26  C4  GU1 D   2      -4.173  38.980 -24.8300  0.00  0.00     0.000 C
ATOM     27  C5  GU1 D   2      -3.665  39.794 -23.6360  0.00  0.00     0.000 C
ATOM     28  O5  GU1 D   2      -2.346  40.274 -23.8840  0.00  0.00     0.000 O
ATOM     29   O  GU1 D   2      -2.730  41.245 -27.4110  0.00  0.00     0.000 O
ATOM     30   C  GU1 D   2      -1.535  41.198 -28.1780  0.00  0.00     0.000 C
ATOM     31   C  GU1 D   2      -5.216  39.532 -28.2090  0.00  0.00     0.000 C
ATOM     32   O  GU1 D   2      -4.358  38.964 -27.2220  0.00  0.00     0.000 O
BRANCH 27 33
ATOM     33   C  GU1 D   2      -3.625  38.956 -22.3810  0.00  0.00     0.000 C
ATOM     34   O  GU1 D   2      -2.811  38.057 -22.3130  0.00  0.00     0.000 OA
ATOM     35   O  GU1 D   2      -4.391  39.182 -21.4580  0.00  0.00     0.000 O
ENDBRANCH 27 33
BRANCH 23 36
ATOM     36  O4  GU6 D   3      -0.970  41.591 -24.8160  0.00  0.00     0.000 O
BRANCH 36 40
ATOM     37  C1  GU6 D   3       2.332  43.996 -24.9150  0.00  0.00     0.000 C
ATOM     38  C2  GU6 D   3       2.555  42.666 -24.2050  0.00  0.00     0.000 C
ATOM     39  C3  GU6 D   3       1.383  41.755 -24.4580  0.00  0.00     0.000 C
ATOM     40  C4  GU6 D   3       0.199  42.332 -25.1030  0.00  0.00     0.000 C
ATOM     41  C5  GU6 D   3      -0.032  43.784 -24.5690  0.00  0.00     0.000 C
ATOM     42  O5  GU6 D   3       1.144  44.585 -24.4080  0.00  0.00     0.000 O
BRANCH 38 43
ATOM     43   O  GU6 D   3       3.749  42.055 -24.6570  0.00  0.00     0.000 O
ATOM     44   S  GU6 D   3       4.948  42.263 -23.7410  0.00  0.00     0.000 S
ATOM     45   O  GU6 D   3       5.528  43.588 -24.0230  0.00  0.00     0.000 OA
ATOM     46   O  GU6 D   3       4.486  42.219 -22.3420  0.00  0.00     0.000 O
ATOM     47   O  GU6 D   3       5.915  41.197 -23.9830  0.00  0.00     0.000 OA
ENDBRANCH 38 43
BRANCH 39 48
ATOM     48   O  GU6 D   3       1.503  40.355 -24.2970  0.00  0.00     0.000 O
ATOM     49   S  GU6 D   3       1.473  39.508 -23.0250  0.00  0.00     0.000 S
ATOM     50   O  GU6 D   3       0.240  39.769 -22.2730  0.00  0.00     0.000 OA
ATOM     51   O  GU6 D   3       1.499  38.132 -23.5410  0.00  0.00     0.000 OA
ATOM     52   O  GU6 D   3       2.652  39.843 -22.1970  0.00  0.00     0.000 O
ENDBRANCH 39 48
BRANCH 41 53
ATOM     53   C  GU6 D   3      -1.325  44.468 -24.2130  0.00  0.00     0.000 C
ATOM     54   O  GU6 D   3      -1.392  44.061 -22.8710  0.00  0.00     0.000 O
ATOM     55   S  GU6 D   3      -2.621  44.399 -22.0160  0.00  0.00     0.000 S
ATOM     56   O  GU6 D   3      -3.762  43.650 -22.5920  0.00  0.00     0.000 O
ATOM     57   O  GU6 D   3      -2.362  43.969 -20.6340  0.00  0.00     0.000 OA
ATOM     58   O  GU6 D   3      -2.838  45.859 -22.1170  0.00  0.00     0.000 OA
ENDBRANCH 41 53
BRANCH 37 59
ATOM     59  O4  Z9K D   4       2.326  44.180 -26.3460  0.00  0.00     0.000 O
BRANCH 59 63
ATOM     60  C1  Z9K D   4       6.089  44.115 -27.4790  0.00  0.00     0.000 C
ATOM     61  C2  Z9K D   4       5.913  45.612 -27.1030  0.00  0.00     0.000 C
ATOM     62  C3  Z9K D   4       4.453  45.596 -26.4740  0.00  0.00     0.000 C
ATOM     63  C4  Z9K D   4       3.304  44.815 -27.2200  0.00  0.00     0.000 C
ATOM     64  C5  Z9K D   4       3.752  43.649 -28.1140  0.00  0.00     0.000 C
ATOM     65  O5  Z9K D   4       4.933  43.153 -27.4310  0.00  0.00     0.000 O
ATOM     66   O  Z9K D   4       3.917  46.912 -26.2460  0.00  0.00     0.000 O
ATOM     67   C  Z9K D   4       4.295  47.492 -25.0090  0.00  0.00     0.000 C
BRANCH 61 68
ATOM     68   O  Z9K D   4       6.794  45.877 -26.0460  0.00  0.00     0.000 O
ATOM     69   O  Z9K D   4       6.530  47.920 -27.5650  0.00  0.00     0.000 OA
ATOM     70   S  Z9K D   4       7.385  46.824 -27.2200  0.00  0.00     0.000 S
ATOM     71   O  Z9K D   4       8.124  46.017 -28.1420  0.00  0.00     0.000 OA
ATOM     72   O  Z9K D   4       8.216  47.157 -26.1080  0.00  0.00     0.000 OA
ENDBRANCH 61 68
BRANCH 64 73
ATOM     73   C  Z9K D   4       2.582  42.676 -28.3750  0.00  0.00     0.000 C
ATOM     74   O  Z9K D   4       2.552  41.530 -27.8410  0.00  0.00     0.000 O
ATOM     75   O  Z9K D   4       1.618  42.985 -29.1170  0.00  0.00     0.000 OA
ENDBRANCH 64 73
BRANCH 60 76
ATOM     76  O4  Z9L D   5       6.653  43.554 -28.6770  0.00  0.00     0.000 O
BRANCH 76 80
ATOM     77  C1  Z9L D   5       8.821  40.547 -30.1690  0.00  0.00     0.000 C
ATOM     78  C2  Z9L D   5       7.335  40.387 -30.7500  0.00  0.00     0.000 C
ATOM     79  C3  Z9L D   5       6.557  41.870 -30.5080  0.00  0.00     0.000 C
ATOM     80  C4  Z9L D   5       7.062  42.246 -28.9850  0.00  0.00     0.000 C
ATOM     81  C5  Z9L D   5       8.529  42.190 -28.3170  0.00  0.00     0.000 C
ATOM     82  O5  Z9L D   5       9.140  40.979 -28.7850  0.00  0.00     0.000 O
ATOM     83   C  Z9L D   5      10.957  41.565 -30.7130  0.00  0.00     0.000 C
ATOM     84   C  Z9L D   5      10.957  41.565 -30.7130  0.00  0.00     0.000 C
BRANCH 78 85
ATOM     85   O  Z9L D   5       7.429  40.139 -32.1160  0.00  0.00     0.000 O
ATOM     86   O  Z9L D   5       6.947  38.485 -32.9770  0.00  0.00     0.000 OA
ATOM     87   S  Z9L D   5       6.735  38.787 -31.5940  0.00  0.00     0.000 S
ATOM     88   O  Z9L D   5       5.304  38.887 -31.4480  0.00  0.00     0.000 OA
ATOM     89   O  Z9L D   5       7.568  37.882 -30.8810  0.00  0.00     0.000 OA
ENDBRANCH 78 85
BRANCH 79 90
ATOM     90   O  Z9L D   5       5.186  41.701 -30.3380  0.00  0.00     0.000 O
ATOM     91   S  Z9L D   5       5.181  42.690 -31.5870  0.00  0.00     0.000 S
ATOM     92   O  Z9L D   5       5.878  42.390 -32.8100  0.00  0.00     0.000 OA
ATOM     93   O  Z9L D   5       5.055  44.048 -31.1190  0.00  0.00     0.000 O
ATOM     94   O  Z9L D   5       3.861  42.163 -31.7120  0.00  0.00     0.000 OA
ENDBRANCH 79 90
BRANCH 81 95
ATOM     95   C  Z9L D   5       8.646  42.567 -26.6870  0.00  0.00     0.000 C
ATOM     96   S  Z9L D   5       9.905  42.986 -25.2010  0.00  0.00     0.000 S
ATOM     97   O  Z9L D   5       9.922  42.033 -26.4550  0.00  0.00     0.000 O
ATOM     98   O  Z9L D   5       8.989  42.407 -24.2520  0.00  0.00     0.000 OA
ATOM     99   O  Z9L D   5       9.893  44.382 -25.4840  0.00  0.00     0.000 OA
ATOM    100   O  Z9L D   5      11.203  42.390 -25.0040  0.00  0.00     0.000 O
ENDBRANCH 81 95
ENDBRANCH 76 80
ENDBRANCH 60 76
ENDBRANCH 59 63
ENDBRANCH 37 59
ENDBRANCH 36 40
ENDBRANCH 23 36
ENDBRANCH 22 26
ENDBRANCH 1 22
TORSDOF 19
ENDMDL
MODEL 85
REMARK VINA RESULT:      -6.7     38.503     45.302
ROOT
ATOM      1  C1  Z9H D   1       6.461  10.191 -16.8960  0.00  0.00     0.000 C
ATOM      2  C2  Z9H D   1       7.117   9.036 -17.6880  0.00  0.00     0.000 C
ATOM      3  C3  Z9H D   1       7.050   7.940 -16.5810  0.00  0.00     0.000 C
ATOM      4  C4  Z9H D   1       7.613   8.371 -15.1640  0.00  0.00     0.000 C
ATOM      5  C5  Z9H D   1       7.227   9.732 -14.4580  0.00  0.00     0.000 C
ATOM      6  O5  Z9H D   1       6.991  10.591 -15.6020  0.00  0.00     0.000 O
ATOM      7   O  Z9H D   1       7.661   6.721 -17.0080  0.00  0.00     0.000 O
ATOM      8   C  Z9H D   1       6.755   5.714 -17.4910  0.00  0.00     0.000 C
ATOM      9   O  Z9H D   1       7.257   7.314 -14.2660  0.00  0.00     0.000 O
ATOM     10   C  Z9H D   1       8.294   6.370 -13.9820  0.00  0.00     0.000 C
ENDROOT
BRANCH 2 11
ATOM     11   O  Z9H D   1       6.107   8.696 -18.6010  0.00  0.00     0.000 O
ATOM     12   O  Z9H D   1       6.235   8.946 -20.4660  0.00  0.00     0.000 OA
ATOM     13   S  Z9H D   1       7.271   9.241 -19.5340  0.00  0.00     0.000 S
ATOM     14   O  Z9H D   1       8.339   8.282 -19.5300  0.00  0.00     0.000 OA
ATOM     15   O  Z9H D   1       7.437  10.670 -19.4010  0.00  0.00     0.000 O
ENDBRANCH 2 11
BRANCH 5 16
ATOM     16   C  Z9H D   1       8.244  10.198 -13.2140  0.00  0.00     0.000 C
ATOM     17   S  Z9H D   1       8.972  11.780 -12.2100  0.00  0.00     0.000 S
ATOM     18   O  Z9H D   1       7.537  11.345 -12.8070  0.00  0.00     0.000 O
ATOM     19   O  Z9H D   1       9.974  12.066 -13.1970  0.00  0.00     0.000 O
ATOM     20   O  Z9H D   1       9.241  11.067 -11.0110  0.00  0.00     0.000 OA
ATOM     21   O  Z9H D   1       8.212  12.946 -11.8650  0.00  0.00     0.000 OA
ENDBRANCH 5 16
BRANCH 1 22
ATOM     22  O4  GU1 D   2       5.044   9.978 -16.5500  0.00  0.00     0.000 O
BRANCH 22 26
ATOM     23  C1  GU1 D   2       1.498  11.938 -15.8080  0.00  0.00     0.000 C
ATOM     24  C2  GU1 D   2       2.487  12.709 -16.6700  0.00  0.00     0.000 C
ATOM     25  C3  GU1 D   2       3.541  11.769 -17.1790  0.00  0.00     0.000 C
ATOM     26  C4  GU1 D   2       4.180  10.997 -16.0340  0.00  0.00     0.000 C
ATOM     27  C5  GU1 D   2       3.096  10.347 -15.1700  0.00  0.00     0.000 C
ATOM     28  O5  GU1 D   2       2.168  11.326 -14.7120  0.00  0.00     0.000 O
ATOM     29   O  GU1 D   2       1.855  13.318 -17.7900  0.00  0.00     0.000 O
ATOM     30   C  GU1 D   2       1.517  14.683 -17.5880  0.00  0.00     0.000 C
ATOM     31   C  GU1 D   2       4.493  12.518 -19.2590  0.00  0.00     0.000 C
ATOM     32   O  GU1 D   2       4.554  12.538 -17.8350  0.00  0.00     0.000 O
BRANCH 27 33
ATOM     33   C  GU1 D   2       3.695   9.674 -13.9570  0.00  0.00     0.000 C
ATOM     34   O  GU1 D   2       3.741   8.461 -13.9330  0.00  0.00     0.000 OA
ATOM     35   O  GU1 D   2       4.124  10.339 -13.0270  0.00  0.00     0.000 O
ENDBRANCH 27 33
BRANCH 23 36
ATOM     36  O4  GU6 D   3       0.535  12.649 -15.0040  0.00  0.00     0.000 O
BRANCH 36 40
ATOM     37  C1  GU6 D   3      -1.627  12.602 -11.5380  0.00  0.00     0.000 C
ATOM     38  C2  GU6 D   3      -0.142  12.880 -11.3370  0.00  0.00     0.000 C
ATOM     39  C3  GU6 D   3       0.507  13.145 -12.6700  0.00  0.00     0.000 C
ATOM     40  C4  GU6 D   3      -0.285  12.883 -13.8770  0.00  0.00     0.000 C
ATOM     41  C5  GU6 D   3      -1.153  11.599 -13.6650  0.00  0.00     0.000 C
ATOM     42  O5  GU6 D   3      -1.765  11.466 -12.3770  0.00  0.00     0.000 O
BRANCH 38 43
ATOM     43   O  GU6 D   3       0.045  13.989 -10.4800  0.00  0.00     0.000 O
ATOM     44   S  GU6 D   3       0.532  13.629  -9.0820  0.00  0.00     0.000 S
ATOM     45   O  GU6 D   3      -0.627  13.210  -8.2750  0.00  0.00     0.000 OA
ATOM     46   O  GU6 D   3       1.484  12.509  -9.1900  0.00  0.00     0.000 O
ATOM     47   O  GU6 D   3       1.193  14.793  -8.5000  0.00  0.00     0.000 OA
ENDBRANCH 38 43
BRANCH 39 48
ATOM     48   O  GU6 D   3       1.738  13.837 -12.7540  0.00  0.00     0.000 O
ATOM     49   S  GU6 D   3       2.015  15.321 -12.9900  0.00  0.00     0.000 S
ATOM     50   O  GU6 D   3       1.308  16.132 -11.9920  0.00  0.00     0.000 OA
ATOM     51   O  GU6 D   3       3.471  15.419 -12.8190  0.00  0.00     0.000 OA
ATOM     52   O  GU6 D   3       1.560  15.683 -14.3510  0.00  0.00     0.000 O
ENDBRANCH 39 48
BRANCH 41 53
ATOM     53   C  GU6 D   3      -1.451  10.485 -14.6320  0.00  0.00     0.000 C
ATOM     54   O  GU6 D   3      -0.531   9.549 -14.1340  0.00  0.00     0.000 O
ATOM     55   S  GU6 D   3      -0.322   8.207 -14.8490  0.00  0.00     0.000 S
ATOM     56   O  GU6 D   3       0.277   8.514 -16.1680  0.00  0.00     0.000 O
ATOM     57   O  GU6 D   3       0.591   7.384 -14.0420  0.00  0.00     0.000 OA
ATOM     58   O  GU6 D   3      -1.654   7.580 -15.0020  0.00  0.00     0.000 OA
ENDBRANCH 41 53
BRANCH 37 59
ATOM     59  O4  Z9K D   4      -2.601  13.576 -11.9700  0.00  0.00     0.000 O
BRANCH 59 63
ATOM     60  C1  Z9K D   4      -3.087  16.317  -9.1960  0.00  0.00     0.000 C
ATOM     61  C2  Z9K D   4      -3.967  15.165  -8.6380  0.00  0.00     0.000 C
ATOM     62  C3  Z9K D   4      -3.622  13.999  -9.6620  0.00  0.00     0.000 C
ATOM     63  C4  Z9K D   4      -3.598  14.315 -11.2060  0.00  0.00     0.000 C
ATOM     64  C5  Z9K D   4      -3.293  15.771 -11.5920  0.00  0.00     0.000 C
ATOM     65  O5  Z9K D   4      -2.402  16.206 -10.5310  0.00  0.00     0.000 O
ATOM     66   O  Z9K D   4      -4.485  12.855  -9.5330  0.00  0.00     0.000 O
ATOM     67   C  Z9K D   4      -4.077  11.922  -8.5460  0.00  0.00     0.000 C
BRANCH 61 68
ATOM     68   O  Z9K D   4      -3.414  14.784  -7.4080  0.00  0.00     0.000 O
ATOM     69   O  Z9K D   4      -5.956  14.493  -7.4100  0.00  0.00     0.000 OA
ATOM     70   S  Z9K D   4      -4.877  15.322  -6.9650  0.00  0.00     0.000 S
ATOM     71   O  Z9K D   4      -4.867  16.752  -6.9640  0.00  0.00     0.000 OA
ATOM     72   O  Z9K D   4      -4.340  14.842  -5.7330  0.00  0.00     0.000 OA
ENDBRANCH 61 68
BRANCH 64 73
ATOM     73   C  Z9K D   4      -2.806  15.862 -13.0530  0.00  0.00     0.000 C
ATOM     74   O  Z9K D   4      -3.589  15.633 -14.0210  0.00  0.00     0.000 O
ATOM     75   O  Z9K D   4      -1.623  16.170 -13.3380  0.00  0.00     0.000 OA
ENDBRANCH 64 73
BRANCH 60 76
ATOM     76  O4  Z9L D   5      -3.428  17.705  -9.3590  0.00  0.00     0.000 O
BRANCH 76 80
ATOM     77  C1  Z9L D   5      -2.153  21.453  -8.8120  0.00  0.00     0.000 C
ATOM     78  C2  Z9L D   5      -2.280  21.226 -10.3940  0.00  0.00     0.000 C
ATOM     79  C3  Z9L D   5      -3.235  19.847 -10.6120  0.00  0.00     0.000 C
ATOM     80  C4  Z9L D   5      -2.624  18.853  -9.4480  0.00  0.00     0.000 C
ATOM     81  C5  Z9L D   5      -2.273  19.135  -7.9000  0.00  0.00     0.000 C
ATOM     82  O5  Z9L D   5      -1.658  20.431  -7.8540  0.00  0.00     0.000 O
ATOM     83   C  Z9L D   5      -3.441  22.248  -6.9130  0.00  0.00     0.000 C
ATOM     84   C  Z9L D   5      -3.441  22.248  -6.9130  0.00  0.00     0.000 C
BRANCH 78 85
ATOM     85   O  Z9L D   5      -2.938  22.326 -10.9370  0.00  0.00     0.000 O
ATOM     86   O  Z9L D   5      -2.114  23.677 -12.0350  0.00  0.00     0.000 OA
ATOM     87   S  Z9L D   5      -1.474  22.481 -11.5800  0.00  0.00     0.000 S
ATOM     88   O  Z9L D   5      -1.274  21.689 -12.7680  0.00  0.00     0.000 OA
ATOM     89   O  Z9L D   5      -0.441  22.919 -10.7060  0.00  0.00     0.000 OA
ENDBRANCH 78 85
BRANCH 79 90
ATOM     90   O  Z9L D   5      -2.900  19.179 -11.7860  0.00  0.00     0.000 O
ATOM     91   S  Z9L D   5      -4.435  19.483 -12.0810  0.00  0.00     0.000 S
ATOM     92   O  Z9L D   5      -4.977  20.816 -12.0480  0.00  0.00     0.000 OA
ATOM     93   O  Z9L D   5      -5.231  18.348 -11.6830  0.00  0.00     0.000 O
ATOM     94   O  Z9L D   5      -3.992  19.240 -13.4160  0.00  0.00     0.000 OA
ENDBRANCH 79 90
BRANCH 81 95
ATOM     95   C  Z9L D   5      -1.569  17.885  -7.0310  0.00  0.00     0.000 C
ATOM     96   S  Z9L D   5      -0.738  17.379  -5.2930  0.00  0.00     0.000 S
ATOM     97   O  Z9L D   5      -0.743  18.662  -6.2060  0.00  0.00     0.000 O
ATOM     98   O  Z9L D   5       0.079  16.398  -5.9610  0.00  0.00     0.000 OA
ATOM     99   O  Z9L D   5      -1.989  17.028  -4.7110  0.00  0.00     0.000 OA
ATOM    100   O  Z9L D   5       0.120  18.219  -4.4940  0.00  0.00     0.000 O
ENDBRANCH 81 95
ENDBRANCH 76 80
ENDBRANCH 60 76
ENDBRANCH 59 63
ENDBRANCH 37 59
ENDBRANCH 36 40
ENDBRANCH 23 36
ENDBRANCH 22 26
ENDBRANCH 1 22
TORSDOF 19
ENDMDL
MODEL 86
REMARK VINA RESULT:      -6.7      6.206     17.346
ROOT
ATOM      1  C1  Z9H D   1       2.868   7.344 -43.8870  0.00  0.00     0.000 C
ATOM      2  C2  Z9H D   1       3.803   6.140 -43.6210  0.00  0.00     0.000 C
ATOM      3  C3  Z9H D   1       2.731   5.009 -43.6790  0.00  0.00     0.000 C
ATOM      4  C4  Z9H D   1       1.445   5.246 -42.7850  0.00  0.00     0.000 C
ATOM      5  C5  Z9H D   1       0.644   6.609 -42.7680  0.00  0.00     0.000 C
ATOM      6  O5  Z9H D   1       1.696   7.564 -43.0530  0.00  0.00     0.000 O
ATOM      7   O  Z9H D   1       3.301   3.729 -43.3990  0.00  0.00     0.000 O
ATOM      8   C  Z9H D   1       3.618   2.931 -44.5520  0.00  0.00     0.000 C
ATOM      9   O  Z9H D   1       0.520   4.217 -43.1540  0.00  0.00     0.000 O
ATOM     10   C  Z9H D   1       0.471   3.088 -42.2760  0.00  0.00     0.000 C
ENDROOT
BRANCH 2 11
ATOM     11   O  Z9H D   1       4.504   6.042 -44.8330  0.00  0.00     0.000 O
ATOM     12   O  Z9H D   1       6.353   6.367 -45.0170  0.00  0.00     0.000 OA
ATOM     13   S  Z9H D   1       5.639   6.416 -43.7860  0.00  0.00     0.000 S
ATOM     14   O  Z9H D   1       5.864   5.280 -42.9390  0.00  0.00     0.000 OA
ATOM     15   O  Z9H D   1       5.514   7.782 -43.3300  0.00  0.00     0.000 O
ENDBRANCH 2 11
BRANCH 5 16
ATOM     16   C  Z9H D   1      -0.384   6.810 -41.4620  0.00  0.00     0.000 C
ATOM     17   S  Z9H D   1      -0.899   6.073 -39.6650  0.00  0.00     0.000 S
ATOM     18   O  Z9H D   1       0.481   6.331 -40.4610  0.00  0.00     0.000 O
ATOM     19   O  Z9H D   1      -1.731   5.044 -40.2190  0.00  0.00     0.000 O
ATOM     20   O  Z9H D   1      -1.409   7.299 -39.1570  0.00  0.00     0.000 OA
ATOM     21   O  Z9H D   1       0.027   5.553 -38.7020  0.00  0.00     0.000 OA
ENDBRANCH 5 16
BRANCH 1 22
ATOM     22  O4  GU1 D   2       2.253   7.366 -45.2250  0.00  0.00     0.000 O
BRANCH 22 26
ATOM     23  C1  GU1 D   2       1.140   9.723 -48.4150  0.00  0.00     0.000 C
ATOM     24  C2  GU1 D   2       2.483  10.078 -47.7950  0.00  0.00     0.000 C
ATOM     25  C3  GU1 D   2       2.945   8.945 -46.9260  0.00  0.00     0.000 C
ATOM     26  C4  GU1 D   2       1.873   8.562 -45.9160  0.00  0.00     0.000 C
ATOM     27  C5  GU1 D   2       0.539   8.328 -46.6300  0.00  0.00     0.000 C
ATOM     28  O5  GU1 D   2       0.177   9.472 -47.3990  0.00  0.00     0.000 O
ATOM     29   O  GU1 D   2       3.479  10.315 -48.7830  0.00  0.00     0.000 O
ATOM     30   C  GU1 D   2       3.665  11.689 -49.0940  0.00  0.00     0.000 C
ATOM     31   C  GU1 D   2       5.343   8.868 -46.7370  0.00  0.00     0.000 C
ATOM     32   O  GU1 D   2       4.114   9.366 -46.2160  0.00  0.00     0.000 O
BRANCH 27 33
ATOM     33   C  GU1 D   2      -0.572   8.065 -45.6410  0.00  0.00     0.000 C
ATOM     34   O  GU1 D   2      -0.846   8.931 -44.8360  0.00  0.00     0.000 OA
ATOM     35   O  GU1 D   2      -1.180   7.006 -45.6570  0.00  0.00     0.000 O
ENDBRANCH 27 33
BRANCH 23 36
ATOM     36  O4  GU6 D   3       0.368  10.735 -49.0920  0.00  0.00     0.000 O
BRANCH 36 40
ATOM     37  C1  GU6 D   3      -1.228  12.764 -52.2590  0.00  0.00     0.000 C
ATOM     38  C2  GU6 D   3      -1.923  13.042 -50.9320  0.00  0.00     0.000 C
ATOM     39  C3  GU6 D   3      -1.104  12.473 -49.8030  0.00  0.00     0.000 C
ATOM     40  C4  GU6 D   3       0.025  11.604 -50.1520  0.00  0.00     0.000 C
ATOM     41  C5  GU6 D   3      -0.362  10.709 -51.3760  0.00  0.00     0.000 C
ATOM     42  O5  GU6 D   3      -1.100  11.359 -52.4160  0.00  0.00     0.000 O
BRANCH 38 43
ATOM     43   O  GU6 D   3      -2.101  14.433 -50.7460  0.00  0.00     0.000 O
ATOM     44   S  GU6 D   3      -3.491  14.943 -51.1040  0.00  0.00     0.000 S
ATOM     45   O  GU6 D   3      -3.557  15.138 -52.5620  0.00  0.00     0.000 OA
ATOM     46   O  GU6 D   3      -4.483  13.931 -50.6990  0.00  0.00     0.000 O
ATOM     47   O  GU6 D   3      -3.732  16.193 -50.3890  0.00  0.00     0.000 OA
ENDBRANCH 38 43
BRANCH 39 48
ATOM     48   O  GU6 D   3      -1.269  12.940 -48.4780  0.00  0.00     0.000 O
ATOM     49   S  GU6 D   3      -2.348  12.607 -47.4480  0.00  0.00     0.000 S
ATOM     50   O  GU6 D   3      -2.420  11.156 -47.2420  0.00  0.00     0.000 OA
ATOM     51   O  GU6 D   3      -1.875  13.293 -46.2380  0.00  0.00     0.000 OA
ATOM     52   O  GU6 D   3      -3.650  13.115 -47.9360  0.00  0.00     0.000 O
ENDBRANCH 39 48
BRANCH 41 53
ATOM     53   C  GU6 D   3      -0.054   9.257 -51.6220  0.00  0.00     0.000 C
ATOM     54   O  GU6 D   3       1.344   9.368 -51.6950  0.00  0.00     0.000 O
ATOM     55   S  GU6 D   3       2.204   8.149 -52.0570  0.00  0.00     0.000 S
ATOM     56   O  GU6 D   3       1.878   7.797 -53.4580  0.00  0.00     0.000 O
ATOM     57   O  GU6 D   3       3.620   8.522 -51.9300  0.00  0.00     0.000 OA
ATOM     58   O  GU6 D   3       1.828   7.057 -51.1320  0.00  0.00     0.000 OA
ENDBRANCH 41 53
BRANCH 37 59
ATOM     59  O4  Z9K D   4       0.016  13.359 -52.6830  0.00  0.00     0.000 O
BRANCH 59 63
ATOM     60  C1  Z9K D   4      -0.750  17.049 -53.7980  0.00  0.00     0.000 C
ATOM     61  C2  Z9K D   4      -1.100  16.265 -55.0920  0.00  0.00     0.000 C
ATOM     62  C3  Z9K D   4      -0.966  14.765 -54.5820  0.00  0.00     0.000 C
ATOM     63  C4  Z9K D   4       0.282  14.359 -53.7090  0.00  0.00     0.000 C
ATOM     64  C5  Z9K D   4       0.938  15.491 -52.9030  0.00  0.00     0.000 C
ATOM     65  O5  Z9K D   4      -0.185  16.355 -52.5890  0.00  0.00     0.000 O
ATOM     66   O  Z9K D   4      -1.004  13.796 -55.6450  0.00  0.00     0.000 O
ATOM     67   C  Z9K D   4      -2.311  13.403 -56.0330  0.00  0.00     0.000 C
BRANCH 61 68
ATOM     68   O  Z9K D   4      -2.462  16.474 -55.3450  0.00  0.00     0.000 O
ATOM     69   O  Z9K D   4      -1.154  16.167 -57.5230  0.00  0.00     0.000 OA
ATOM     70   S  Z9K D   4      -1.774  17.126 -56.6580  0.00  0.00     0.000 S
ATOM     71   O  Z9K D   4      -1.245  18.411 -56.3180  0.00  0.00     0.000 OA
ATOM     72   O  Z9K D   4      -3.166  17.248 -56.9490  0.00  0.00     0.000 OA
ENDBRANCH 61 68
BRANCH 64 73
ATOM     73   C  Z9K D   4       1.783  14.921 -51.7440  0.00  0.00     0.000 C
ATOM     74   O  Z9K D   4       1.421  15.058 -50.5400  0.00  0.00     0.000 O
ATOM     75   O  Z9K D   4       2.853  14.296 -51.9500  0.00  0.00     0.000 OA
ENDBRANCH 64 73
BRANCH 60 76
ATOM     76  O4  Z9L D   5       0.076  18.217 -53.6550  0.00  0.00     0.000 O
BRANCH 76 80
ATOM     77  C1  Z9L D   5       0.325  21.865 -52.0430  0.00  0.00     0.000 C
ATOM     78  C2  Z9L D   5       1.428  20.955 -51.3170  0.00  0.00     0.000 C
ATOM     79  C3  Z9L D   5       1.642  19.586 -52.2870  0.00  0.00     0.000 C
ATOM     80  C4  Z9L D   5       0.083  19.237 -52.6900  0.00  0.00     0.000 C
ATOM     81  C5  Z9L D   5      -1.112  20.190 -53.2050  0.00  0.00     0.000 C
ATOM     82  O5  Z9L D   5      -1.030  21.395 -52.4290  0.00  0.00     0.000 O
ATOM     83   C  Z9L D   5       0.069  23.370 -53.9300  0.00  0.00     0.000 C
ATOM     84   C  Z9L D   5       0.069  23.370 -53.9300  0.00  0.00     0.000 C
BRANCH 78 85
ATOM     85   O  Z9L D   5       2.619  21.673 -51.2720  0.00  0.00     0.000 O
ATOM     86   O  Z9L D   5       3.375  22.465 -49.6880  0.00  0.00     0.000 OA
ATOM     87   S  Z9L D   5       2.219  21.622 -49.7170  0.00  0.00     0.000 S
ATOM     88   O  Z9L D   5       2.625  20.408 -49.0520  0.00  0.00     0.000 OA
ATOM     89   O  Z9L D   5       1.138  22.453 -49.3130  0.00  0.00     0.000 OA
ENDBRANCH 78 85
BRANCH 79 90
ATOM     90   O  Z9L D   5       2.013  18.480 -51.5280  0.00  0.00     0.000 O
ATOM     91   S  Z9L D   5       3.274  18.575 -52.4960  0.00  0.00     0.000 S
ATOM     92   O  Z9L D   5       4.070  19.769 -52.6100  0.00  0.00     0.000 OA
ATOM     93   O  Z9L D   5       3.072  17.708 -53.6300  0.00  0.00     0.000 O
ATOM     94   O  Z9L D   5       3.847  17.782 -51.4560  0.00  0.00     0.000 OA
ENDBRANCH 79 90
BRANCH 81 95
ATOM     95   C  Z9L D   5      -2.616  19.484 -53.4300  0.00  0.00     0.000 C
ATOM     96   S  Z9L D   5      -4.456  19.306 -52.6880  0.00  0.00     0.000 S
ATOM     97   O  Z9L D   5      -3.007  19.424 -52.0840  0.00  0.00     0.000 O
ATOM     98   O  Z9L D   5      -4.564  17.985 -53.2530  0.00  0.00     0.000 OA
ATOM     99   O  Z9L D   5      -4.931  20.452 -53.3880  0.00  0.00     0.000 OA
ATOM    100   O  Z9L D   5      -4.796  19.232 -51.2880  0.00  0.00     0.000 O
ENDBRANCH 81 95
ENDBRANCH 76 80
ENDBRANCH 60 76
ENDBRANCH 59 63
ENDBRANCH 37 59
ENDBRANCH 36 40
ENDBRANCH 23 36
ENDBRANCH 22 26
ENDBRANCH 1 22
TORSDOF 19
ENDMDL
MODEL 87
REMARK VINA RESULT:      -6.7     40.720     46.981
ROOT
ATOM      1  C1  Z9H D   1       1.464  40.164 -23.3850  0.00  0.00     0.000 C
ATOM      2  C2  Z9H D   1       1.634  39.762 -24.8690  0.00  0.00     0.000 C
ATOM      3  C3  Z9H D   1       0.444  40.578 -25.4590  0.00  0.00     0.000 C
ATOM      4  C4  Z9H D   1      -0.946  40.382 -24.7220  0.00  0.00     0.000 C
ATOM      5  C5  Z9H D   1      -1.107  40.444 -23.1510  0.00  0.00     0.000 C
ATOM      6  O5  Z9H D   1       0.190  39.968 -22.7100  0.00  0.00     0.000 O
ATOM      7   O  Z9H D   1       0.297  40.356 -26.8630  0.00  0.00     0.000 O
ATOM      8   C  Z9H D   1       0.878  41.363 -27.7090  0.00  0.00     0.000 C
ATOM      9   O  Z9H D   1      -1.822  41.368 -25.2760  0.00  0.00     0.000 O
ATOM     10   C  Z9H D   1      -2.713  40.901 -26.2940  0.00  0.00     0.000 C
ENDROOT
BRANCH 2 11
ATOM     11   O  Z9H D   1       2.785  40.478 -25.2350  0.00  0.00     0.000 O
ATOM     12   O  Z9H D   1       4.425  39.676 -25.7090  0.00  0.00     0.000 OA
ATOM     13   S  Z9H D   1       3.237  38.962 -25.3820  0.00  0.00     0.000 S
ATOM     14   O  Z9H D   1       2.567  38.400 -26.5200  0.00  0.00     0.000 OA
ATOM     15   O  Z9H D   1       3.374  38.318 -24.0960  0.00  0.00     0.000 O
ENDBRANCH 2 11
BRANCH 5 16
ATOM     16   C  Z9H D   1      -2.525  39.782 -22.5580  0.00  0.00     0.000 C
ATOM     17   S  Z9H D   1      -4.176  38.751 -23.0570  0.00  0.00     0.000 S
ATOM     18   O  Z9H D   1      -2.608  38.687 -23.4370  0.00  0.00     0.000 O
ATOM     19   O  Z9H D   1      -4.868  39.909 -23.5460  0.00  0.00     0.000 O
ATOM     20   O  Z9H D   1      -4.390  38.203 -21.7630  0.00  0.00     0.000 OA
ATOM     21   O  Z9H D   1      -4.207  37.671 -24.0000  0.00  0.00     0.000 OA
ENDBRANCH 5 16
BRANCH 1 22
ATOM     22  O4  GU1 D   2       1.701  41.590 -23.0980  0.00  0.00     0.000 O
BRANCH 22 26
ATOM     23  C1  GU1 D   2       3.272  44.344 -20.4680  0.00  0.00     0.000 C
ATOM     24  C2  GU1 D   2       4.208  43.202 -20.8330  0.00  0.00     0.000 C
ATOM     25  C3  GU1 D   2       3.687  42.503 -22.0550  0.00  0.00     0.000 C
ATOM     26  C4  GU1 D   2       2.236  42.084 -21.8650  0.00  0.00     0.000 C
ATOM     27  C5  GU1 D   2       1.401  43.280 -21.3990  0.00  0.00     0.000 C
ATOM     28  O5  GU1 D   2       1.961  43.849 -20.2180  0.00  0.00     0.000 O
ATOM     29   O  GU1 D   2       5.525  43.662 -21.1120  0.00  0.00     0.000 O
ATOM     30   C  GU1 D   2       6.414  43.563 -20.0090  0.00  0.00     0.000 C
ATOM     31   C  GU1 D   2       5.447  41.449 -23.3140  0.00  0.00     0.000 C
ATOM     32   O  GU1 D   2       4.477  41.330 -22.2760  0.00  0.00     0.000 O
BRANCH 27 33
ATOM     33   C  GU1 D   2      -0.017  42.868 -21.0860  0.00  0.00     0.000 C
ATOM     34   O  GU1 D   2      -0.200  42.041 -20.2160  0.00  0.00     0.000 OA
ATOM     35   O  GU1 D   2      -0.955  43.360 -21.6930  0.00  0.00     0.000 O
ENDBRANCH 27 33
BRANCH 23 36
ATOM     36  O4  GU6 D   3       3.412  45.015 -19.2000  0.00  0.00     0.000 O
BRANCH 36 40
ATOM     37  C1  GU6 D   3       3.014  48.567 -17.2210  0.00  0.00     0.000 C
ATOM     38  C2  GU6 D   3       1.689  47.899 -17.5660  0.00  0.00     0.000 C
ATOM     39  C3  GU6 D   3       1.941  46.492 -18.0390  0.00  0.00     0.000 C
ATOM     40  C4  GU6 D   3       3.331  46.097 -18.2960  0.00  0.00     0.000 C
ATOM     41  C5  GU6 D   3       4.104  47.296 -18.9390  0.00  0.00     0.000 C
ATOM     42  O5  GU6 D   3       3.827  48.587 -18.3850  0.00  0.00     0.000 O
BRANCH 38 43
ATOM     43   O  GU6 D   3       0.832  47.885 -16.4410  0.00  0.00     0.000 O
ATOM     44   S  GU6 D   3      -0.346  48.846 -16.5350  0.00  0.00     0.000 S
ATOM     45   O  GU6 D   3       0.117  50.192 -16.1550  0.00  0.00     0.000 OA
ATOM     46   O  GU6 D   3      -0.826  48.868 -17.9280  0.00  0.00     0.000 O
ATOM     47   O  GU6 D   3      -1.406  48.379 -15.6470  0.00  0.00     0.000 OA
ENDBRANCH 38 43
BRANCH 39 48
ATOM     48   O  GU6 D   3       0.912  45.521 -18.0130  0.00  0.00     0.000 O
ATOM     49   S  GU6 D   3       0.602  44.448 -16.9700  0.00  0.00     0.000 S
ATOM     50   O  GU6 D   3       0.440  45.061 -15.6460  0.00  0.00     0.000 OA
ATOM     51   O  GU6 D   3      -0.663  43.874 -17.4480  0.00  0.00     0.000 OA
ATOM     52   O  GU6 D   3       1.713  43.471 -16.9430  0.00  0.00     0.000 O
ENDBRANCH 39 48
BRANCH 41 53
ATOM     53   C  GU6 D   3       5.114  47.282 -20.0540  0.00  0.00     0.000 C
ATOM     54   O  GU6 D   3       4.260  47.694 -21.0900  0.00  0.00     0.000 O
ATOM     55   S  GU6 D   3       4.764  47.747 -22.5390  0.00  0.00     0.000 S
ATOM     56   O  GU6 D   3       5.044  46.351 -22.9460  0.00  0.00     0.000 O
ATOM     57   O  GU6 D   3       3.709  48.333 -23.3800  0.00  0.00     0.000 OA
ATOM     58   O  GU6 D   3       6.000  48.561 -22.5440  0.00  0.00     0.000 OA
ENDBRANCH 41 53
BRANCH 37 59
ATOM     59  O4  Z9K D   4       3.862  48.202 -16.1110  0.00  0.00     0.000 O
BRANCH 59 63
ATOM     60  C1  Z9K D   4       2.589  49.492 -12.6240  0.00  0.00     0.000 C
ATOM     61  C2  Z9K D   4       3.123  50.807 -13.2540  0.00  0.00     0.000 C
ATOM     62  C3  Z9K D   4       3.466  50.318 -14.7280  0.00  0.00     0.000 C
ATOM     63  C4  Z9K D   4       4.241  48.960 -14.9250  0.00  0.00     0.000 C
ATOM     64  C5  Z9K D   4       4.077  47.921 -13.8060  0.00  0.00     0.000 C
ATOM     65  O5  Z9K D   4       2.729  48.170 -13.3290  0.00  0.00     0.000 O
ATOM     66   O  Z9K D   4       4.213  51.284 -15.4890  0.00  0.00     0.000 O
ATOM     67   C  Z9K D   4       3.416  52.257 -16.1450  0.00  0.00     0.000 C
BRANCH 61 68
ATOM     68   O  Z9K D   4       2.032  51.679 -13.3720  0.00  0.00     0.000 O
ATOM     69   O  Z9K D   4       4.206  52.966 -12.9630  0.00  0.00     0.000 OA
ATOM     70   S  Z9K D   4       3.000  52.489 -12.3570  0.00  0.00     0.000 S
ATOM     71   O  Z9K D   4       2.891  51.913 -11.0510  0.00  0.00     0.000 OA
ATOM     72   O  Z9K D   4       1.929  53.410 -12.5600  0.00  0.00     0.000 OA
ENDBRANCH 61 68
BRANCH 64 73
ATOM     73   C  Z9K D   4       4.436  46.507 -14.3120  0.00  0.00     0.000 C
ATOM     74   O  Z9K D   4       3.535  45.665 -14.5970  0.00  0.00     0.000 O
ATOM     75   O  Z9K D   4       5.627  46.142 -14.4660  0.00  0.00     0.000 OA
ENDBRANCH 64 73
BRANCH 60 76
ATOM     76  O4  Z9L D   5       2.857  48.953 -11.3180  0.00  0.00     0.000 O
BRANCH 76 80
ATOM     77  C1  Z9L D   5       1.140  47.370  -8.0750  0.00  0.00     0.000 C
ATOM     78  C2  Z9L D   5       2.117  46.252  -8.6820  0.00  0.00     0.000 C
ATOM     79  C3  Z9L D   5       3.165  47.048  -9.7440  0.00  0.00     0.000 C
ATOM     80  C4  Z9L D   5       2.123  48.069 -10.5100  0.00  0.00     0.000 C
ATOM     81  C5  Z9L D   5       0.971  49.034  -9.9240  0.00  0.00     0.000 C
ATOM     82  O5  Z9L D   5       0.308  48.291  -8.8910  0.00  0.00     0.000 O
ATOM     83   C  Z9L D   5       1.125  49.185  -6.4630  0.00  0.00     0.000 C
ATOM     84   C  Z9L D   5       1.125  49.185  -6.4630  0.00  0.00     0.000 C
BRANCH 78 85
ATOM     85   O  Z9L D   5       2.855  45.709  -7.6340  0.00  0.00     0.000 O
ATOM     86   O  Z9L D   5       2.625  43.934  -6.9220  0.00  0.00     0.000 OA
ATOM     87   S  Z9L D   5       1.957  44.452  -8.0770  0.00  0.00     0.000 S
ATOM     88   O  Z9L D   5       2.503  43.711  -9.1880  0.00  0.00     0.000 OA
ATOM     89   O  Z9L D   5       0.580  44.500  -7.7240  0.00  0.00     0.000 OA
ENDBRANCH 78 85
BRANCH 79 90
ATOM     90   O  Z9L D   5       3.577  46.208 -10.7740  0.00  0.00     0.000 O
ATOM     91   S  Z9L D   5       4.993  46.568 -10.1410  0.00  0.00     0.000 S
ATOM     92   O  Z9L D   5       5.297  46.338  -8.7530  0.00  0.00     0.000 OA
ATOM     93   O  Z9L D   5       5.562  47.687 -10.8490  0.00  0.00     0.000 O
ATOM     94   O  Z9L D   5       5.358  45.387 -10.8550  0.00  0.00     0.000 OA
ENDBRANCH 79 90
BRANCH 81 95
ATOM     95   C  Z9L D   5       0.033  49.872 -11.0340  0.00  0.00     0.000 C
ATOM     96   S  Z9L D   5      -1.723  49.917 -11.9740  0.00  0.00     0.000 S
ATOM     97   O  Z9L D   5      -0.728  48.791 -11.5020  0.00  0.00     0.000 O
ATOM     98   O  Z9L D   5      -1.109  50.566 -13.1040  0.00  0.00     0.000 OA
ATOM     99   O  Z9L D   5      -2.345  50.668 -10.9360  0.00  0.00     0.000 OA
ATOM    100   O  Z9L D   5      -2.452  48.768 -12.4490  0.00  0.00     0.000 O
ENDBRANCH 81 95
ENDBRANCH 76 80
ENDBRANCH 60 76
ENDBRANCH 59 63
ENDBRANCH 37 59
ENDBRANCH 36 40
ENDBRANCH 23 36
ENDBRANCH 22 26
ENDBRANCH 1 22
TORSDOF 19
ENDMDL
MODEL 88
REMARK VINA RESULT:      -6.7     32.448     38.614
ROOT
ATOM      1  C1  Z9H D   1      21.202  48.660 -27.2910  0.00  0.00     0.000 C
ATOM      2  C2  Z9H D   1      21.485  50.022 -26.6150  0.00  0.00     0.000 C
ATOM      3  C3  Z9H D   1      22.643  50.496 -27.5460  0.00  0.00     0.000 C
ATOM      4  C4  Z9H D   1      23.809  49.446 -27.7680  0.00  0.00     0.000 C
ATOM      5  C5  Z9H D   1      23.548  47.929 -28.1290  0.00  0.00     0.000 C
ATOM      6  O5  Z9H D   1      22.274  47.694 -27.4790  0.00  0.00     0.000 O
ATOM      7   O  Z9H D   1      23.179  51.751 -27.1230  0.00  0.00     0.000 O
ATOM      8   C  Z9H D   1      22.685  52.901 -27.8290  0.00  0.00     0.000 C
ATOM      9   O  Z9H D   1      24.631  49.991 -28.8050  0.00  0.00     0.000 O
ATOM     10   C  Z9H D   1      25.817  50.661 -28.3640  0.00  0.00     0.000 C
ENDROOT
BRANCH 2 11
ATOM     11   O  Z9H D   1      20.369  50.779 -27.0050  0.00  0.00     0.000 O
ATOM     12   O  Z9H D   1      19.057  51.424 -25.8140  0.00  0.00     0.000 OA
ATOM     13   S  Z9H D   1      20.218  50.697 -25.4260  0.00  0.00     0.000 S
ATOM     14   O  Z9H D   1      21.241  51.510 -24.8330  0.00  0.00     0.000 OA
ATOM     15   O  Z9H D   1      19.858  49.366 -24.9930  0.00  0.00     0.000 O
ENDBRANCH 2 11
BRANCH 5 16
ATOM     16   C  Z9H D   1      24.852  46.908 -27.8840  0.00  0.00     0.000 C
ATOM     17   S  Z9H D   1      26.603  46.704 -26.9190  0.00  0.00     0.000 S
ATOM     18   O  Z9H D   1      25.138  47.277 -26.5570  0.00  0.00     0.000 O
ATOM     19   O  Z9H D   1      27.332  47.479 -27.8810  0.00  0.00     0.000 O
ATOM     20   O  Z9H D   1      26.588  45.283 -26.9130  0.00  0.00     0.000 OA
ATOM     21   O  Z9H D   1      26.849  47.144 -25.5770  0.00  0.00     0.000 OA
ENDBRANCH 5 16
BRANCH 1 22
ATOM     22  O4  GU1 D   2      20.677  48.747 -28.6650  0.00  0.00     0.000 O
BRANCH 22 26
ATOM     23  C1  GU1 D   2      18.028  47.118 -31.3670  0.00  0.00     0.000 C
ATOM     24  C2  GU1 D   2      17.554  47.108 -29.9210  0.00  0.00     0.000 C
ATOM     25  C3  GU1 D   2      18.402  48.048 -29.1140  0.00  0.00     0.000 C
ATOM     26  C4  GU1 D   2      19.880  47.732 -29.2870  0.00  0.00     0.000 C
ATOM     27  C5  GU1 D   2      20.230  47.662 -30.7770  0.00  0.00     0.000 C
ATOM     28  O5  GU1 D   2      19.392  46.722 -31.4430  0.00  0.00     0.000 O
ATOM     29   O  GU1 D   2      16.197  47.521 -29.8030  0.00  0.00     0.000 O
ATOM     30   C  GU1 D   2      15.273  46.444 -29.7360  0.00  0.00     0.000 C
ATOM     31   C  GU1 D   2      17.222  48.918 -27.2040  0.00  0.00     0.000 C
ATOM     32   O  GU1 D   2      18.060  47.892 -27.7330  0.00  0.00     0.000 O
BRANCH 27 33
ATOM     33   C  GU1 D   2      21.663  47.232 -30.9820  0.00  0.00     0.000 C
ATOM     34   O  GU1 D   2      22.473  48.067 -31.3300  0.00  0.00     0.000 OA
ATOM     35   O  GU1 D   2      21.995  46.071 -30.7980  0.00  0.00     0.000 O
ENDBRANCH 27 33
BRANCH 23 36
ATOM     36  O4  GU6 D   3      17.542  46.124 -32.2910  0.00  0.00     0.000 O
BRANCH 36 40
ATOM     37  C1  GU6 D   3      16.350  44.751 -35.9500  0.00  0.00     0.000 C
ATOM     38  C2  GU6 D   3      16.964  43.679 -35.0570  0.00  0.00     0.000 C
ATOM     39  C3  GU6 D   3      17.115  44.215 -33.6570  0.00  0.00     0.000 C
ATOM     40  C4  GU6 D   3      16.883  45.648 -33.4470  0.00  0.00     0.000 C
ATOM     41  C5  GU6 D   3      17.446  46.453 -34.6640  0.00  0.00     0.000 C
ATOM     42  O5  GU6 D   3      17.208  45.881 -35.9550  0.00  0.00     0.000 O
BRANCH 38 43
ATOM     43   O  GU6 D   3      16.157  42.518 -35.0450  0.00  0.00     0.000 O
ATOM     44   S  GU6 D   3      16.607  41.429 -36.0090  0.00  0.00     0.000 S
ATOM     45   O  GU6 D   3      16.105  41.756 -37.3550  0.00  0.00     0.000 OA
ATOM     46   O  GU6 D   3      18.081  41.399 -36.0310  0.00  0.00     0.000 O
ATOM     47   O  GU6 D   3      16.088  40.146 -35.5450  0.00  0.00     0.000 OA
ENDBRANCH 38 43
BRANCH 39 48
ATOM     48   O  GU6 D   3      17.245  43.338 -32.5540  0.00  0.00     0.000 O
ATOM     49   S  GU6 D   3      18.477  42.608 -32.0210  0.00  0.00     0.000 S
ATOM     50   O  GU6 D   3      19.551  43.567 -31.7410  0.00  0.00     0.000 OA
ATOM     51   O  GU6 D   3      17.985  41.985 -30.7850  0.00  0.00     0.000 OA
ATOM     52   O  GU6 D   3      18.926  41.624 -33.0320  0.00  0.00     0.000 O
ENDBRANCH 39 48
BRANCH 41 53
ATOM     53   C  GU6 D   3      18.195  47.759 -34.6710  0.00  0.00     0.000 C
ATOM     54   O  GU6 D   3      19.312  47.334 -35.4090  0.00  0.00     0.000 O
ATOM     55   S  GU6 D   3      20.502  48.277 -35.6320  0.00  0.00     0.000 S
ATOM     56   O  GU6 D   3      21.116  48.512 -34.3040  0.00  0.00     0.000 O
ATOM     57   O  GU6 D   3      21.456  47.621 -36.5370  0.00  0.00     0.000 OA
ATOM     58   O  GU6 D   3      19.965  49.534 -36.2000  0.00  0.00     0.000 OA
ENDBRANCH 41 53
BRANCH 37 59
ATOM     59  O4  Z9K D   4      14.996  45.239 -35.8460  0.00  0.00     0.000 O
BRANCH 59 63
ATOM     60  C1  Z9K D   4      12.700  42.696 -37.7710  0.00  0.00     0.000 C
ATOM     61  C2  Z9K D   4      13.177  43.610 -38.9340  0.00  0.00     0.000 C
ATOM     62  C3  Z9K D   4      14.245  44.519 -38.1830  0.00  0.00     0.000 C
ATOM     63  C4  Z9K D   4      13.880  45.131 -36.7770  0.00  0.00     0.000 C
ATOM     64  C5  Z9K D   4      12.839  44.357 -35.9540  0.00  0.00     0.000 C
ATOM     65  O5  Z9K D   4      13.080  42.979 -36.3440  0.00  0.00     0.000 O
ATOM     66   O  Z9K D   4      14.692  45.638 -38.9690  0.00  0.00     0.000 O
ATOM     67   C  Z9K D   4      15.763  45.345 -39.8510  0.00  0.00     0.000 C
BRANCH 61 68
ATOM     68   O  Z9K D   4      13.901  42.803 -39.8210  0.00  0.00     0.000 O
ATOM     69   O  Z9K D   4      12.678  44.678 -41.0620  0.00  0.00     0.000 OA
ATOM     70   S  Z9K D   4      12.657  43.283 -40.7420  0.00  0.00     0.000 S
ATOM     71   O  Z9K D   4      11.497  42.522 -40.3910  0.00  0.00     0.000 OA
ATOM     72   O  Z9K D   4      13.453  42.537 -41.6640  0.00  0.00     0.000 OA
ENDBRANCH 61 68
BRANCH 64 73
ATOM     73   C  Z9K D   4      12.931  44.733 -34.4600  0.00  0.00     0.000 C
ATOM     74   O  Z9K D   4      13.429  43.935 -33.6130  0.00  0.00     0.000 O
ATOM     75   O  Z9K D   4      12.524  45.840 -34.0300  0.00  0.00     0.000 OA
ENDBRANCH 64 73
BRANCH 60 76
ATOM     76  O4  Z9L D   5      11.361  42.280 -37.4530  0.00  0.00     0.000 O
BRANCH 76 80
ATOM     77  C1  Z9L D   5       9.175  39.043 -36.6090  0.00  0.00     0.000 C
ATOM     78  C2  Z9L D   5       8.993  40.064 -35.3860  0.00  0.00     0.000 C
ATOM     79  C3  Z9L D   5       9.520  41.575 -35.9330  0.00  0.00     0.000 C
ATOM     80  C4  Z9L D   5      10.878  41.155 -36.7650  0.00  0.00     0.000 C
ATOM     81  C5  Z9L D   5      11.136  39.976 -37.8350  0.00  0.00     0.000 C
ATOM     82  O5  Z9L D   5      10.452  38.818 -37.3330  0.00  0.00     0.000 O
ATOM     83   C  Z9L D   5       8.155  38.444 -38.7290  0.00  0.00     0.000 C
ATOM     84   C  Z9L D   5       8.155  38.444 -38.7290  0.00  0.00     0.000 C
BRANCH 78 85
ATOM     85   O  Z9L D   5       7.638  40.136 -35.0800  0.00  0.00     0.000 O
ATOM     86   O  Z9L D   5       6.820  39.408 -33.4960  0.00  0.00     0.000 OA
ATOM     87   S  Z9L D   5       8.227  39.447 -33.7530  0.00  0.00     0.000 S
ATOM     88   O  Z9L D   5       8.757  40.388 -32.7970  0.00  0.00     0.000 OA
ATOM     89   O  Z9L D   5       8.624  38.086 -33.8690  0.00  0.00     0.000 OA
ENDBRANCH 78 85
BRANCH 79 90
ATOM     90   O  Z9L D   5      10.030  42.342 -34.8890  0.00  0.00     0.000 O
ATOM     91   S  Z9L D   5       8.897  43.330 -35.4170  0.00  0.00     0.000 S
ATOM     92   O  Z9L D   5       7.517  42.935 -35.5170  0.00  0.00     0.000 OA
ATOM     93   O  Z9L D   5       9.473  44.258 -36.3580  0.00  0.00     0.000 O
ATOM     94   O  Z9L D   5       9.087  43.879 -34.1130  0.00  0.00     0.000 OA
ENDBRANCH 79 90
BRANCH 81 95
ATOM     95   C  Z9L D   5      12.698  39.792 -38.4150  0.00  0.00     0.000 C
ATOM     96   S  Z9L D   5      13.878  38.704 -39.5950  0.00  0.00     0.000 S
ATOM     97   O  Z9L D   5      12.662  38.408 -38.6390  0.00  0.00     0.000 O
ATOM     98   O  Z9L D   5      15.007  39.000 -38.7510  0.00  0.00     0.000 OA
ATOM     99   O  Z9L D   5      13.584  39.493 -40.7440  0.00  0.00     0.000 OA
ATOM    100   O  Z9L D   5      13.803  37.275 -39.7720  0.00  0.00     0.000 O
ENDBRANCH 81 95
ENDBRANCH 76 80
ENDBRANCH 60 76
ENDBRANCH 59 63
ENDBRANCH 37 59
ENDBRANCH 36 40
ENDBRANCH 23 36
ENDBRANCH 22 26
ENDBRANCH 1 22
TORSDOF 19
ENDMDL
MODEL 89
REMARK VINA RESULT:      -6.6     28.610     37.219
ROOT
ATOM      1  C1  Z9H D   1      28.288   7.770 -25.8680  0.00  0.00     0.000 C
ATOM      2  C2  Z9H D   1      29.292   6.956 -25.0160  0.00  0.00     0.000 C
ATOM      3  C3  Z9H D   1      28.831   7.440 -23.6070  0.00  0.00     0.000 C
ATOM      4  C4  Z9H D   1      28.710   9.011 -23.4340  0.00  0.00     0.000 C
ATOM      5  C5  Z9H D   1      27.976   9.942 -24.4790  0.00  0.00     0.000 C
ATOM      6  O5  Z9H D   1      28.192   9.214 -25.7140  0.00  0.00     0.000 O
ATOM      7   O  Z9H D   1      29.642   6.886 -22.5700  0.00  0.00     0.000 O
ATOM      8   C  Z9H D   1      29.093   5.735 -21.9070  0.00  0.00     0.000 C
ATOM      9   O  Z9H D   1      28.076   9.214 -22.1670  0.00  0.00     0.000 O
ATOM     10   C  Z9H D   1      28.953   9.531 -21.0810  0.00  0.00     0.000 C
ENDROOT
BRANCH 2 11
ATOM     11   O  Z9H D   1      28.787   5.652 -25.1380  0.00  0.00     0.000 O
ATOM     12   O  Z9H D   1      29.706   4.235 -25.9790  0.00  0.00     0.000 OA
ATOM     13   S  Z9H D   1      30.225   5.550 -25.8060  0.00  0.00     0.000 S
ATOM     14   O  Z9H D   1      31.212   5.652 -24.7690  0.00  0.00     0.000 OA
ATOM     15   O  Z9H D   1      30.276   6.243 -27.0730  0.00  0.00     0.000 O
ENDBRANCH 2 11
BRANCH 5 16
ATOM     16   C  Z9H D   1      28.337  11.571 -24.3530  0.00  0.00     0.000 C
ATOM     17   S  Z9H D   1      28.684  13.249 -25.4040  0.00  0.00     0.000 S
ATOM     18   O  Z9H D   1      27.656  12.007 -25.5050  0.00  0.00     0.000 O
ATOM     19   O  Z9H D   1      30.056  12.918 -25.6610  0.00  0.00     0.000 O
ATOM     20   O  Z9H D   1      28.276  14.140 -24.3740  0.00  0.00     0.000 OA
ATOM     21   O  Z9H D   1      27.988  13.618 -26.6020  0.00  0.00     0.000 OA
ENDBRANCH 5 16
BRANCH 1 22
ATOM     22  O4  GU1 D   2      26.876   7.389 -25.6930  0.00  0.00     0.000 O
BRANCH 22 26
ATOM     23  C1  GU1 D   2      23.323   6.735 -27.6740  0.00  0.00     0.000 C
ATOM     24  C2  GU1 D   2      24.573   6.439 -28.4880  0.00  0.00     0.000 C
ATOM     25  C3  GU1 D   2      25.755   6.342 -27.5670  0.00  0.00     0.000 C
ATOM     26  C4  GU1 D   2      25.863   7.579 -26.6880  0.00  0.00     0.000 C
ATOM     27  C5  GU1 D   2      24.523   7.848 -25.9950  0.00  0.00     0.000 C
ATOM     28  O5  GU1 D   2      23.477   7.955 -26.9570  0.00  0.00     0.000 O
ATOM     29   O  GU1 D   2      24.465   5.214 -29.2030  0.00  0.00     0.000 O
ATOM     30   C  GU1 D   2      24.057   5.371 -30.5550  0.00  0.00     0.000 C
ATOM     31   C  GU1 D   2      27.485   4.928 -28.4620  0.00  0.00     0.000 C
ATOM     32   O  GU1 D   2      26.941   6.241 -28.3630  0.00  0.00     0.000 O
BRANCH 27 33
ATOM     33   C  GU1 D   2      24.563   9.137 -25.2100  0.00  0.00     0.000 C
ATOM     34   O  GU1 D   2      24.506   9.078 -23.9990  0.00  0.00     0.000 OA
ATOM     35   O  GU1 D   2      24.655  10.211 -25.7840  0.00  0.00     0.000 O
ENDBRANCH 27 33
BRANCH 23 36
ATOM     36  O4  GU6 D   3      22.103   7.118 -28.3390  0.00  0.00     0.000 O
BRANCH 36 40
ATOM     37  C1  GU6 D   3      18.571   7.257 -30.3890  0.00  0.00     0.000 C
ATOM     38  C2  GU6 D   3      19.664   8.140 -30.9790  0.00  0.00     0.000 C
ATOM     39  C3  GU6 D   3      20.983   7.814 -30.3280  0.00  0.00     0.000 C
ATOM     40  C4  GU6 D   3      20.964   6.932 -29.1550  0.00  0.00     0.000 C
ATOM     41  C5  GU6 D   3      19.710   7.256 -28.2780  0.00  0.00     0.000 C
ATOM     42  O5  GU6 D   3      18.495   7.504 -28.9930  0.00  0.00     0.000 O
BRANCH 38 43
ATOM     43   O  GU6 D   3      19.756   7.950 -32.3780  0.00  0.00     0.000 O
ATOM     44   S  GU6 D   3      19.031   9.004 -33.2050  0.00  0.00     0.000 S
ATOM     45   O  GU6 D   3      17.601   8.655 -33.2590  0.00  0.00     0.000 OA
ATOM     46   O  GU6 D   3      19.192  10.312 -32.5450  0.00  0.00     0.000 O
ATOM     47   O  GU6 D   3      19.620   9.041 -34.5400  0.00  0.00     0.000 OA
ENDBRANCH 38 43
BRANCH 39 48
ATOM     48   O  GU6 D   3      22.205   8.150 -30.9550  0.00  0.00     0.000 O
ATOM     49   S  GU6 D   3      23.021   9.440 -30.8860  0.00  0.00     0.000 S
ATOM     50   O  GU6 D   3      23.326   9.770 -29.4890  0.00  0.00     0.000 OA
ATOM     51   O  GU6 D   3      24.242   9.102 -31.6300  0.00  0.00     0.000 OA
ATOM     52   O  GU6 D   3      22.243  10.535 -31.5070  0.00  0.00     0.000 O
ENDBRANCH 39 48
BRANCH 41 53
ATOM     53   C  GU6 D   3      19.596   7.328 -26.7790  0.00  0.00     0.000 C
ATOM     54   O  GU6 D   3      18.853   6.152 -26.5870  0.00  0.00     0.000 O
ATOM     55   S  GU6 D   3      18.339   5.775 -25.1910  0.00  0.00     0.000 S
ATOM     56   O  GU6 D   3      17.340   6.801 -24.8130  0.00  0.00     0.000 O
ATOM     57   O  GU6 D   3      17.716   4.445 -25.2650  0.00  0.00     0.000 OA
ATOM     58   O  GU6 D   3      19.501   5.799 -24.2740  0.00  0.00     0.000 OA
ENDBRANCH 41 53
BRANCH 37 59
ATOM     59  O4  Z9K D   4      18.466   5.830 -30.5790  0.00  0.00     0.000 O
BRANCH 59 63
ATOM     60  C1  Z9K D   4      15.761   5.341 -33.3890  0.00  0.00     0.000 C
ATOM     61  C2  Z9K D   4      14.870   5.384 -32.1170  0.00  0.00     0.000 C
ATOM     62  C3  Z9K D   4      15.944   5.766 -31.0090  0.00  0.00     0.000 C
ATOM     63  C4  Z9K D   4      17.330   5.016 -30.9920  0.00  0.00     0.000 C
ATOM     64  C5  Z9K D   4      17.806   4.448 -32.3380  0.00  0.00     0.000 C
ATOM     65  O5  Z9K D   4      17.262   5.393 -33.2970  0.00  0.00     0.000 O
ATOM     66   O  Z9K D   4      15.443   5.645 -29.6650  0.00  0.00     0.000 O
ATOM     67   C  Z9K D   4      14.751   6.789 -29.1930  0.00  0.00     0.000 C
BRANCH 61 68
ATOM     68   O  Z9K D   4      14.025   6.495 -32.2450  0.00  0.00     0.000 O
ATOM     69   O  Z9K D   4      12.876   4.601 -30.9640  0.00  0.00     0.000 OA
ATOM     70   S  Z9K D   4      12.966   5.269 -32.2280  0.00  0.00     0.000 S
ATOM     71   O  Z9K D   4      12.965   4.636 -33.5110  0.00  0.00     0.000 OA
ATOM     72   O  Z9K D   4      12.112   6.413 -32.2610  0.00  0.00     0.000 OA
ENDBRANCH 61 68
BRANCH 64 73
ATOM     73   C  Z9K D   4      19.329   4.201 -32.3220  0.00  0.00     0.000 C
ATOM     74   O  Z9K D   4      20.114   4.898 -33.0290  0.00  0.00     0.000 O
ATOM     75   O  Z9K D   4      19.847   3.309 -31.6070  0.00  0.00     0.000 OA
ENDBRANCH 64 73
BRANCH 60 76
ATOM     76  O4  Z9L D   5      15.747   4.381 -34.4590  0.00  0.00     0.000 O
BRANCH 76 80
ATOM     77  C1  Z9L D   5      15.888   3.924 -38.4270  0.00  0.00     0.000 C
ATOM     78  C2  Z9L D   5      17.222   3.263 -37.8300  0.00  0.00     0.000 C
ATOM     79  C3  Z9L D   5      16.955   3.042 -36.1750  0.00  0.00     0.000 C
ATOM     80  C4  Z9L D   5      16.211   4.458 -35.7820  0.00  0.00     0.000 C
ATOM     81  C5  Z9L D   5      15.014   5.257 -36.5090  0.00  0.00     0.000 C
ATOM     82  O5  Z9L D   5      15.272   5.176 -37.9180  0.00  0.00     0.000 O
ATOM     83   C  Z9L D   5      13.612   3.347 -39.0410  0.00  0.00     0.000 C
ATOM     84   C  Z9L D   5      13.612   3.347 -39.0410  0.00  0.00     0.000 C
BRANCH 78 85
ATOM     85   O  Z9L D   5      17.396   2.022 -38.4350  0.00  0.00     0.000 O
ATOM     86   O  Z9L D   5      18.780   1.593 -39.7040  0.00  0.00     0.000 OA
ATOM     87   S  Z9L D   5      18.672   2.827 -38.9870  0.00  0.00     0.000 S
ATOM     88   O  Z9L D   5      19.794   2.832 -38.0810  0.00  0.00     0.000 OA
ATOM     89   O  Z9L D   5      18.416   3.815 -39.9790  0.00  0.00     0.000 OA
ENDBRANCH 78 85
BRANCH 79 90
ATOM     90   O  Z9L D   5      18.145   3.115 -35.4550  0.00  0.00     0.000 O
ATOM     91   S  Z9L D   5      17.681   1.645 -35.0550  0.00  0.00     0.000 S
ATOM     92   O  Z9L D   5      17.403   0.630 -36.0370  0.00  0.00     0.000 OA
ATOM     93   O  Z9L D   5      16.947   1.698 -33.8140  0.00  0.00     0.000 O
ATOM     94   O  Z9L D   5      19.065   1.544 -34.7220  0.00  0.00     0.000 OA
ENDBRANCH 79 90
BRANCH 81 95
ATOM     95   C  Z9L D   5      14.574   6.740 -35.8600  0.00  0.00     0.000 C
ATOM     96   S  Z9L D   5      14.880   8.706 -35.9430  0.00  0.00     0.000 S
ATOM     97   O  Z9L D   5      15.776   7.421 -36.0960  0.00  0.00     0.000 O
ATOM     98   O  Z9L D   5      14.558   8.822 -34.5430  0.00  0.00     0.000 OA
ATOM     99   O  Z9L D   5      13.890   8.894 -36.9490  0.00  0.00     0.000 OA
ATOM    100   O  Z9L D   5      16.149   9.351 -36.1730  0.00  0.00     0.000 O
ENDBRANCH 81 95
ENDBRANCH 76 80
ENDBRANCH 60 76
ENDBRANCH 59 63
ENDBRANCH 37 59
ENDBRANCH 36 40
ENDBRANCH 23 36
ENDBRANCH 22 26
ENDBRANCH 1 22
TORSDOF 19
ENDMDL
MODEL 90
REMARK VINA RESULT:      -6.6     20.211     25.974
ROOT
ATOM      1  C1  Z9H D   1      28.009  25.550 -62.1400  0.00  0.00     0.000 C
ATOM      2  C2  Z9H D   1      29.182  25.298 -63.1170  0.00  0.00     0.000 C
ATOM      3  C3  Z9H D   1      28.690  26.200 -64.2910  0.00  0.00     0.000 C
ATOM      4  C4  Z9H D   1      27.191  25.964 -64.7470  0.00  0.00     0.000 C
ATOM      5  C5  Z9H D   1      25.983  25.869 -63.7320  0.00  0.00     0.000 C
ATOM      6  O5  Z9H D   1      26.636  25.318 -62.5600  0.00  0.00     0.000 O
ATOM      7   O  Z9H D   1      29.569  26.127 -65.4150  0.00  0.00     0.000 O
ATOM      8   C  Z9H D   1      30.519  27.200 -65.5250  0.00  0.00     0.000 C
ATOM      9   O  Z9H D   1      26.892  27.024 -65.6610  0.00  0.00     0.000 O
ATOM     10   C  Z9H D   1      26.980  26.686 -67.0490  0.00  0.00     0.000 C
ENDROOT
BRANCH 2 11
ATOM     11   O  Z9H D   1      30.225  26.018 -62.5150  0.00  0.00     0.000 O
ATOM     12   O  Z9H D   1      31.754  25.225 -61.7460  0.00  0.00     0.000 OA
ATOM     13   S  Z9H D   1      30.712  24.510 -62.4030  0.00  0.00     0.000 S
ATOM     14   O  Z9H D   1      31.062  24.051 -63.7170  0.00  0.00     0.000 OA
ATOM     15   O  Z9H D   1      29.929  23.766 -61.4430  0.00  0.00     0.000 O
ENDBRANCH 2 11
BRANCH 5 16
ATOM     16   C  Z9H D   1      24.588  25.186 -64.3530  0.00  0.00     0.000 C
ATOM     17   S  Z9H D   1      22.667  25.546 -64.8230  0.00  0.00     0.000 S
ATOM     18   O  Z9H D   1      24.065  26.340 -64.9650  0.00  0.00     0.000 O
ATOM     19   O  Z9H D   1      22.205  25.374 -63.4750  0.00  0.00     0.000 O
ATOM     20   O  Z9H D   1      22.577  24.530 -65.8120  0.00  0.00     0.000 OA
ATOM     21   O  Z9H D   1      22.185  26.765 -65.4030  0.00  0.00     0.000 OA
ENDBRANCH 5 16
BRANCH 1 22
ATOM     22  O4  GU1 D   2      27.906  26.933 -61.6400  0.00  0.00     0.000 O
BRANCH 22 26
ATOM     23  C1  GU1 D   2      26.890  29.338 -58.4540  0.00  0.00     0.000 C
ATOM     24  C2  GU1 D   2      27.694  28.100 -58.0890  0.00  0.00     0.000 C
ATOM     25  C3  GU1 D   2      28.319  27.529 -59.3300  0.00  0.00     0.000 C
ATOM     26  C4  GU1 D   2      27.271  27.297 -60.4090  0.00  0.00     0.000 C
ATOM     27  C5  GU1 D   2      26.450  28.572 -60.6260  0.00  0.00     0.000 C
ATOM     28  O5  GU1 D   2      25.877  29.010 -59.3970  0.00  0.00     0.000 O
ATOM     29   O  GU1 D   2      28.733  28.393 -57.1630  0.00  0.00     0.000 O
ATOM     30   C  GU1 D   2      28.389  28.129 -55.8100  0.00  0.00     0.000 C
ATOM     31   C  GU1 D   2      30.336  26.308 -58.8470  0.00  0.00     0.000 C
ATOM     32   O  GU1 D   2      28.919  26.273 -58.9970  0.00  0.00     0.000 O
BRANCH 27 33
ATOM     33   C  GU1 D   2      25.325  28.337 -61.6050  0.00  0.00     0.000 C
ATOM     34   O  GU1 D   2      25.362  28.909 -62.6750  0.00  0.00     0.000 OA
ATOM     35   O  GU1 D   2      24.404  27.587 -61.3230  0.00  0.00     0.000 O
ENDBRANCH 27 33
BRANCH 23 36
ATOM     36  O4  GU6 D   3      25.997  29.929 -57.4890  0.00  0.00     0.000 O
BRANCH 36 40
ATOM     37  C1  GU6 D   3      22.627  30.739 -55.3260  0.00  0.00     0.000 C
ATOM     38  C2  GU6 D   3      23.808  31.643 -54.9930  0.00  0.00     0.000 C
ATOM     39  C3  GU6 D   3      24.895  31.450 -56.0170  0.00  0.00     0.000 C
ATOM     40  C4  GU6 D   3      24.751  30.338 -56.9640  0.00  0.00     0.000 C
ATOM     41  C5  GU6 D   3      24.131  29.104 -56.2290  0.00  0.00     0.000 C
ATOM     42  O5  GU6 D   3      23.071  29.391 -55.3110  0.00  0.00     0.000 O
BRANCH 38 43
ATOM     43   O  GU6 D   3      23.405  32.999 -54.9660  0.00  0.00     0.000 O
ATOM     44   S  GU6 D   3      23.632  33.696 -53.6320  0.00  0.00     0.000 S
ATOM     45   O  GU6 D   3      22.519  33.355 -52.7290  0.00  0.00     0.000 OA
ATOM     46   O  GU6 D   3      24.898  33.208 -53.0550  0.00  0.00     0.000 O
ATOM     47   O  GU6 D   3      23.709  35.136 -53.8610  0.00  0.00     0.000 OA
ENDBRANCH 38 43
BRANCH 39 48
ATOM     48   O  GU6 D   3      25.894  32.434 -56.2110  0.00  0.00     0.000 O
ATOM     49   S  GU6 D   3      26.006  33.519 -57.2810  0.00  0.00     0.000 S
ATOM     50   O  GU6 D   3      24.795  34.347 -57.2900  0.00  0.00     0.000 OA
ATOM     51   O  GU6 D   3      27.176  34.295 -56.8460  0.00  0.00     0.000 OA
ATOM     52   O  GU6 D   3      26.190  32.875 -58.6000  0.00  0.00     0.000 O
ENDBRANCH 39 48
BRANCH 41 53
ATOM     53   C  GU6 D   3      24.484  27.647 -56.3630  0.00  0.00     0.000 C
ATOM     54   O  GU6 D   3      24.661  27.367 -54.9990  0.00  0.00     0.000 O
ATOM     55   S  GU6 D   3      25.159  25.988 -54.5450  0.00  0.00     0.000 S
ATOM     56   O  GU6 D   3      26.548  25.851 -55.0420  0.00  0.00     0.000 O
ATOM     57   O  GU6 D   3      25.125  25.938 -53.0760  0.00  0.00     0.000 OA
ATOM     58   O  GU6 D   3      24.271  24.977 -55.1600  0.00  0.00     0.000 OA
ENDBRANCH 41 53
BRANCH 37 59
ATOM     59  O4  Z9K D   4      21.762  30.894 -56.4710  0.00  0.00     0.000 O
BRANCH 59 63
ATOM     60  C1  Z9K D   4      18.745  32.021 -58.7230  0.00  0.00     0.000 C
ATOM     61  C2  Z9K D   4      18.377  32.691 -57.3700  0.00  0.00     0.000 C
ATOM     62  C3  Z9K D   4      19.686  32.388 -56.5190  0.00  0.00     0.000 C
ATOM     63  C4  Z9K D   4      20.308  30.940 -56.5560  0.00  0.00     0.000 C
ATOM     64  C5  Z9K D   4      20.026  30.117 -57.8210  0.00  0.00     0.000 C
ATOM     65  O5  Z9K D   4      19.951  31.133 -58.8560  0.00  0.00     0.000 O
ATOM     66   O  Z9K D   4      19.537  32.691 -55.1200  0.00  0.00     0.000 O
ATOM     67   C  Z9K D   4      19.797  34.044 -54.7820  0.00  0.00     0.000 C
BRANCH 61 68
ATOM     68   O  Z9K D   4      18.361  34.075 -57.5870  0.00  0.00     0.000 O
ATOM     69   O  Z9K D   4      16.633  33.394 -55.8270  0.00  0.00     0.000 OA
ATOM     70   S  Z9K D   4      16.818  33.780 -57.1940  0.00  0.00     0.000 S
ATOM     71   O  Z9K D   4      16.151  33.206 -58.3220  0.00  0.00     0.000 OA
ATOM     72   O  Z9K D   4      16.835  35.201 -57.3240  0.00  0.00     0.000 OA
ENDBRANCH 61 68
BRANCH 64 73
ATOM     73   C  Z9K D   4      21.053  28.976 -57.9750  0.00  0.00     0.000 C
ATOM     74   O  Z9K D   4      21.000  27.943 -57.2460  0.00  0.00     0.000 O
ATOM     75   O  Z9K D   4      21.973  29.024 -58.8280  0.00  0.00     0.000 OA
ENDBRANCH 64 73
BRANCH 60 76
ATOM     76  O4  Z9L D   5      17.914  31.215 -59.5760  0.00  0.00     0.000 O
BRANCH 76 80
ATOM     77  C1  Z9L D   5      16.907  30.357 -63.3470  0.00  0.00     0.000 C
ATOM     78  C2  Z9L D   5      17.720  29.096 -62.7790  0.00  0.00     0.000 C
ATOM     79  C3  Z9L D   5      17.741  29.251 -61.0950  0.00  0.00     0.000 C
ATOM     80  C4  Z9L D   5      18.041  30.862 -60.9290  0.00  0.00     0.000 C
ATOM     81  C5  Z9L D   5      17.386  32.137 -61.6680  0.00  0.00     0.000 C
ATOM     82  O5  Z9L D   5      17.240  31.773 -63.0490  0.00  0.00     0.000 O
ATOM     83   C  Z9L D   5      14.639  31.193 -63.5630  0.00  0.00     0.000 C
ATOM     84   C  Z9L D   5      14.639  31.193 -63.5630  0.00  0.00     0.000 C
BRANCH 78 85
ATOM     85   O  Z9L D   5      17.022  27.942 -63.1230  0.00  0.00     0.000 O
ATOM     86   O  Z9L D   5      17.624  26.620 -64.3880  0.00  0.00     0.000 OA
ATOM     87   S  Z9L D   5      18.392  27.741 -63.9380  0.00  0.00     0.000 S
ATOM     88   O  Z9L D   5      19.459  27.172 -63.1520  0.00  0.00     0.000 OA
ATOM     89   O  Z9L D   5      18.570  28.558 -65.0890  0.00  0.00     0.000 OA
ENDBRANCH 78 85
BRANCH 79 90
ATOM     90   O  Z9L D   5      18.883  28.673 -60.5470  0.00  0.00     0.000 O
ATOM     91   S  Z9L D   5      17.768  27.787 -59.8340  0.00  0.00     0.000 S
ATOM     92   O  Z9L D   5      16.778  27.051 -60.5760  0.00  0.00     0.000 OA
ATOM     93   O  Z9L D   5      17.458  28.356 -58.5460  0.00  0.00     0.000 O
ATOM     94   O  Z9L D   5      18.891  26.924 -59.6550  0.00  0.00     0.000 OA
ENDBRANCH 79 90
BRANCH 81 95
ATOM     95   C  Z9L D   5      18.019  33.647 -61.3030  0.00  0.00     0.000 C
ATOM     96   S  Z9L D   5      19.389  35.001 -61.8080  0.00  0.00     0.000 S
ATOM     97   O  Z9L D   5      19.324  33.429 -61.7680  0.00  0.00     0.000 O
ATOM     98   O  Z9L D   5      19.462  35.449 -60.4410  0.00  0.00     0.000 OA
ATOM     99   O  Z9L D   5      18.527  35.633 -62.7500  0.00  0.00     0.000 OA
ATOM    100   O  Z9L D   5      20.727  34.716 -62.2660  0.00  0.00     0.000 O
ENDBRANCH 81 95
ENDBRANCH 76 80
ENDBRANCH 60 76
ENDBRANCH 59 63
ENDBRANCH 37 59
ENDBRANCH 36 40
ENDBRANCH 23 36
ENDBRANCH 22 26
ENDBRANCH 1 22
TORSDOF 19
ENDMDL
MODEL 91
REMARK VINA RESULT:      -6.6     30.169     37.444
ROOT
ATOM      1  C1  Z9H D   1       1.964  43.193 -21.1190  0.00  0.00     0.000 C
ATOM      2  C2  Z9H D   1       0.645  43.806 -20.5910  0.00  0.00     0.000 C
ATOM      3  C3  Z9H D   1       1.116  45.288 -20.4820  0.00  0.00     0.000 C
ATOM      4  C4  Z9H D   1       2.479  45.512 -19.7050  0.00  0.00     0.000 C
ATOM      5  C5  Z9H D   1       3.780  44.657 -19.9790  0.00  0.00     0.000 C
ATOM      6  O5  Z9H D   1       3.210  43.391 -20.3930  0.00  0.00     0.000 O
ATOM      7   O  Z9H D   1       0.093  46.127 -19.9420  0.00  0.00     0.000 O
ATOM      8   C  Z9H D   1      -0.671  46.867 -20.9100  0.00  0.00     0.000 C
ATOM      9   O  Z9H D   1       2.825  46.886 -19.9130  0.00  0.00     0.000 O
ATOM     10   C  Z9H D   1       2.494  47.775 -18.8420  0.00  0.00     0.000 C
ENDROOT
BRANCH 2 11
ATOM     11   O  Z9H D   1      -0.172  43.765 -21.7320  0.00  0.00     0.000 O
ATOM     12   O  Z9H D   1      -1.733  42.716 -21.8800  0.00  0.00     0.000 OA
ATOM     13   S  Z9H D   1      -0.922  42.804 -20.7130  0.00  0.00     0.000 S
ATOM     14   O  Z9H D   1      -1.491  43.608 -19.6700  0.00  0.00     0.000 OA
ATOM     15   O  Z9H D   1      -0.196  41.571 -20.5100  0.00  0.00     0.000 O
ENDBRANCH 2 11
BRANCH 5 16
ATOM     16   C  Z9H D   1       4.946  44.737 -18.7800  0.00  0.00     0.000 C
ATOM     17   S  Z9H D   1       5.251  45.086 -16.8240  0.00  0.00     0.000 S
ATOM     18   O  Z9H D   1       4.146  44.306 -17.7060  0.00  0.00     0.000 O
ATOM     19   O  Z9H D   1       5.250  46.512 -16.9810  0.00  0.00     0.000 O
ATOM     20   O  Z9H D   1       6.440  44.312 -16.7330  0.00  0.00     0.000 OA
ATOM     21   O  Z9H D   1       4.372  44.661 -15.7750  0.00  0.00     0.000 OA
ENDBRANCH 5 16
BRANCH 1 22
ATOM     22  O4  GU1 D   2       2.363  43.646 -22.4630  0.00  0.00     0.000 O
BRANCH 22 26
ATOM     23  C1  GU1 D   2       4.170  42.195 -25.8690  0.00  0.00     0.000 C
ATOM     24  C2  GU1 D   2       3.819  41.139 -24.8320  0.00  0.00     0.000 C
ATOM     25  C3  GU1 D   2       2.847  41.716 -23.8440  0.00  0.00     0.000 C
ATOM     26  C4  GU1 D   2       3.377  43.016 -23.2560  0.00  0.00     0.000 C
ATOM     27  C5  GU1 D   2       3.798  43.967 -24.3800  0.00  0.00     0.000 C
ATOM     28  O5  GU1 D   2       4.743  43.335 -25.2390  0.00  0.00     0.000 O
ATOM     29   O  GU1 D   2       3.223  39.991 -25.4220  0.00  0.00     0.000 O
ATOM     30   C  GU1 D   2       4.136  38.931 -25.6670  0.00  0.00     0.000 C
ATOM     31   C  GU1 D   2       1.458  40.023 -22.8460  0.00  0.00     0.000 C
ATOM     32   O  GU1 D   2       2.668  40.774 -22.7820  0.00  0.00     0.000 O
BRANCH 27 33
ATOM     33   C  GU1 D   2       4.439  45.217 -23.8270  0.00  0.00     0.000 C
ATOM     34   O  GU1 D   2       3.976  46.293 -24.1440  0.00  0.00     0.000 OA
ATOM     35   O  GU1 D   2       5.399  45.142 -23.0750  0.00  0.00     0.000 O
ENDBRANCH 27 33
BRANCH 23 36
ATOM     36  O4  GU6 D   3       5.265  41.974 -26.7800  0.00  0.00     0.000 O
BRANCH 36 40
ATOM     37  C1  GU6 D   3       7.741  41.605 -30.0090  0.00  0.00     0.000 C
ATOM     38  C2  GU6 D   3       6.933  40.350 -29.7020  0.00  0.00     0.000 C
ATOM     39  C3  GU6 D   3       5.870  40.670 -28.6850  0.00  0.00     0.000 C
ATOM     40  C4  GU6 D   3       5.928  41.981 -28.0280  0.00  0.00     0.000 C
ATOM     41  C5  GU6 D   3       7.420  42.364 -27.7560  0.00  0.00     0.000 C
ATOM     42  O5  GU6 D   3       8.344  42.059 -28.8070  0.00  0.00     0.000 O
BRANCH 38 43
ATOM     43   O  GU6 D   3       6.337  39.842 -30.8810  0.00  0.00     0.000 O
ATOM     44   S  GU6 D   3       7.125  38.725 -31.5530  0.00  0.00     0.000 S
ATOM     45   O  GU6 D   3       8.196  39.330 -32.3640  0.00  0.00     0.000 OA
ATOM     46   O  GU6 D   3       7.723  37.876 -30.5070  0.00  0.00     0.000 O
ATOM     47   O  GU6 D   3       6.214  37.937 -32.3770  0.00  0.00     0.000 OA
ENDBRANCH 38 43
BRANCH 39 48
ATOM     48   O  GU6 D   3       4.731  39.843 -28.5390  0.00  0.00     0.000 O
ATOM     49   S  GU6 D   3       3.349  39.954 -29.1810  0.00  0.00     0.000 S
ATOM     50   O  GU6 D   3       3.472  40.001 -30.6420  0.00  0.00     0.000 OA
ATOM     51   O  GU6 D   3       2.679  38.722 -28.7430  0.00  0.00     0.000 OA
ATOM     52   O  GU6 D   3       2.689  41.184 -28.6880  0.00  0.00     0.000 O
ENDBRANCH 39 48
BRANCH 41 53
ATOM     53   C  GU6 D   3       8.023  43.024 -26.5460  0.00  0.00     0.000 C
ATOM     54   O  GU6 D   3       9.305  42.459 -26.6390  0.00  0.00     0.000 O
ATOM     55   S  GU6 D   3      10.350  42.715 -25.5450  0.00  0.00     0.000 S
ATOM     56   O  GU6 D   3       9.846  42.063 -24.3130  0.00  0.00     0.000 O
ATOM     57   O  GU6 D   3      11.625  42.116 -25.9660  0.00  0.00     0.000 OA
ATOM     58   O  GU6 D   3      10.451  44.180 -25.3680  0.00  0.00     0.000 OA
ENDBRANCH 41 53
BRANCH 37 59
ATOM     59  O4  Z9K D   4       7.238  42.766 -30.7020  0.00  0.00     0.000 O
BRANCH 59 63
ATOM     60  C1  Z9K D   4       8.549  42.161 -34.3580  0.00  0.00     0.000 C
ATOM     61  C2  Z9K D   4       9.675  43.063 -33.7800  0.00  0.00     0.000 C
ATOM     62  C3  Z9K D   4       9.235  43.152 -32.2540  0.00  0.00     0.000 C
ATOM     63  C4  Z9K D   4       7.724  43.431 -31.9050  0.00  0.00     0.000 C
ATOM     64  C5  Z9K D   4       6.696  42.994 -32.9600  0.00  0.00     0.000 C
ATOM     65  O5  Z9K D   4       7.322  41.827 -33.5550  0.00  0.00     0.000 O
ATOM     66   O  Z9K D   4       9.974  44.134 -31.5050  0.00  0.00     0.000 O
ATOM     67   C  Z9K D   4      11.206  43.667 -30.9810  0.00  0.00     0.000 C
BRANCH 61 68
ATOM     68   O  Z9K D   4      10.857  42.312 -33.8050  0.00  0.00     0.000 O
ATOM     69   O  Z9K D   4      11.331  44.800 -34.1770  0.00  0.00     0.000 OA
ATOM     70   S  Z9K D   4      11.209  43.526 -34.8190  0.00  0.00     0.000 S
ATOM     71   O  Z9K D   4      10.572  43.281 -36.0770  0.00  0.00     0.000 OA
ATOM     72   O  Z9K D   4      12.440  42.806 -34.7630  0.00  0.00     0.000 OA
ENDBRANCH 61 68
BRANCH 64 73
ATOM     73   C  Z9K D   4       5.294  42.845 -32.3330  0.00  0.00     0.000 C
ATOM     74   O  Z9K D   4       4.817  43.738 -31.5740  0.00  0.00     0.000 O
ATOM     75   O  Z9K D   4       4.573  41.841 -32.5540  0.00  0.00     0.000 OA
ENDBRANCH 64 73
BRANCH 60 76
ATOM     76  O4  Z9L D   5       7.838  42.304 -35.5990  0.00  0.00     0.000 O
BRANCH 76 80
ATOM     77  C1  Z9L D   5       6.475  40.345 -38.8050  0.00  0.00     0.000 C
ATOM     78  C2  Z9L D   5       5.194  40.892 -38.0080  0.00  0.00     0.000 C
ATOM     79  C3  Z9L D   5       5.755  42.081 -36.9440  0.00  0.00     0.000 C
ATOM     80  C4  Z9L D   5       7.130  41.373 -36.3760  0.00  0.00     0.000 C
ATOM     81  C5  Z9L D   5       8.322  40.611 -37.1500  0.00  0.00     0.000 C
ATOM     82  O5  Z9L D   5       7.697  39.803 -38.1580  0.00  0.00     0.000 O
ATOM     83   C  Z9L D   5       7.999  40.981 -40.5840  0.00  0.00     0.000 C
ATOM     84   C  Z9L D   5       7.999  40.981 -40.5840  0.00  0.00     0.000 C
BRANCH 78 85
ATOM     85   O  Z9L D   5       4.329  41.475 -38.9300  0.00  0.00     0.000 O
ATOM     86   O  Z9L D   5       2.596  40.786 -39.4110  0.00  0.00     0.000 OA
ATOM     87   S  Z9L D   5       3.434  40.261 -38.3760  0.00  0.00     0.000 S
ATOM     88   O  Z9L D   5       2.742  40.563 -37.1470  0.00  0.00     0.000 OA
ATOM     89   O  Z9L D   5       3.796  38.957 -38.8120  0.00  0.00     0.000 OA
ENDBRANCH 78 85
BRANCH 79 90
ATOM     90   O  Z9L D   5       4.960  42.157 -35.8040  0.00  0.00     0.000 O
ATOM     91   S  Z9L D   5       4.804  43.649 -36.3380  0.00  0.00     0.000 S
ATOM     92   O  Z9L D   5       4.330  43.947 -37.6640  0.00  0.00     0.000 OA
ATOM     93   O  Z9L D   5       5.780  44.491 -35.6930  0.00  0.00     0.000 O
ATOM     94   O  Z9L D   5       3.663  43.595 -35.4830  0.00  0.00     0.000 OA
ENDBRANCH 79 90
BRANCH 81 95
ATOM     95   C  Z9L D   5       9.534  39.927 -36.2140  0.00  0.00     0.000 C
ATOM     96   S  Z9L D   5      10.167  38.250 -35.3460  0.00  0.00     0.000 S
ATOM     97   O  Z9L D   5       8.767  38.923 -35.6060  0.00  0.00     0.000 O
ATOM     98   O  Z9L D   5      10.811  39.020 -34.3120  0.00  0.00     0.000 OA
ATOM     99   O  Z9L D   5      10.876  37.828 -36.5060  0.00  0.00     0.000 OA
ATOM    100   O  Z9L D   5       9.328  37.259 -34.7190  0.00  0.00     0.000 O
ENDBRANCH 81 95
ENDBRANCH 76 80
ENDBRANCH 60 76
ENDBRANCH 59 63
ENDBRANCH 37 59
ENDBRANCH 36 40
ENDBRANCH 23 36
ENDBRANCH 22 26
ENDBRANCH 1 22
TORSDOF 19
ENDMDL
MODEL 92
REMARK VINA RESULT:      -6.6     35.610     43.225
ROOT
ATOM      1  C1  Z9H D   1      -3.021  21.757 -22.5160  0.00  0.00     0.000 C
ATOM      2  C2  Z9H D   1      -1.875  21.665 -23.5510  0.00  0.00     0.000 C
ATOM      3  C3  Z9H D   1      -1.611  23.192 -23.7260  0.00  0.00     0.000 C
ATOM      4  C4  Z9H D   1      -2.895  24.075 -24.0160  0.00  0.00     0.000 C
ATOM      5  C5  Z9H D   1      -4.233  23.954 -23.1840  0.00  0.00     0.000 C
ATOM      6  O5  Z9H D   1      -4.204  22.557 -22.7950  0.00  0.00     0.000 O
ATOM      7   O  Z9H D   1      -0.603  23.443 -24.7070  0.00  0.00     0.000 O
ATOM      8   C  Z9H D   1       0.715  23.687 -24.1880  0.00  0.00     0.000 C
ATOM      9   O  Z9H D   1      -2.461  25.436 -23.9220  0.00  0.00     0.000 O
ATOM     10   C  Z9H D   1      -2.185  26.083 -25.1680  0.00  0.00     0.000 C
ENDROOT
BRANCH 2 11
ATOM     11   O  Z9H D   1      -0.810  21.197 -22.7670  0.00  0.00     0.000 O
ATOM     12   O  Z9H D   1       0.055  19.542 -23.0330  0.00  0.00     0.000 OA
ATOM     13   S  Z9H D   1      -0.994  20.050 -23.8500  0.00  0.00     0.000 S
ATOM     14   O  Z9H D   1      -0.550  20.553 -25.1190  0.00  0.00     0.000 OA
ATOM     15   O  Z9H D   1      -2.211  19.301 -23.6320  0.00  0.00     0.000 O
ENDBRANCH 2 11
BRANCH 5 16
ATOM     16   C  Z9H D   1      -5.583  24.627 -23.9100  0.00  0.00     0.000 C
ATOM     17   S  Z9H D   1      -7.203  25.773 -23.5920  0.00  0.00     0.000 S
ATOM     18   O  Z9H D   1      -5.656  25.797 -23.1310  0.00  0.00     0.000 O
ATOM     19   O  Z9H D   1      -7.977  24.695 -23.0480  0.00  0.00     0.000 O
ATOM     20   O  Z9H D   1      -7.320  26.216 -24.9370  0.00  0.00     0.000 OA
ATOM     21   O  Z9H D   1      -7.228  26.931 -22.7470  0.00  0.00     0.000 OA
ENDBRANCH 5 16
BRANCH 1 22
ATOM     22  O4  GU1 D   2      -2.630  22.305 -21.2050  0.00  0.00     0.000 O
BRANCH 22 26
ATOM     23  C1  GU1 D   2      -3.037  22.000 -17.1170  0.00  0.00     0.000 C
ATOM     24  C2  GU1 D   2      -2.829  20.678 -17.8400  0.00  0.00     0.000 C
ATOM     25  C3  GU1 D   2      -2.320  20.944 -19.2270  0.00  0.00     0.000 C
ATOM     26  C4  GU1 D   2      -3.227  21.920 -19.9620  0.00  0.00     0.000 C
ATOM     27  C5  GU1 D   2      -3.455  23.169 -19.1060  0.00  0.00     0.000 C
ATOM     28  O5  GU1 D   2      -3.968  22.810 -17.8260  0.00  0.00     0.000 O
ATOM     29   O  GU1 D   2      -1.886  19.849 -17.1720  0.00  0.00     0.000 O
ATOM     30   C  GU1 D   2      -2.477  18.878 -16.3190  0.00  0.00     0.000 C
ATOM     31   C  GU1 D   2      -1.013  19.110 -20.0780  0.00  0.00     0.000 C
ATOM     32   O  GU1 D   2      -2.301  19.706 -19.9460  0.00  0.00     0.000 O
BRANCH 27 33
ATOM     33   C  GU1 D   2      -4.448  24.103 -19.7560  0.00  0.00     0.000 C
ATOM     34   O  GU1 D   2      -4.077  25.218 -20.0620  0.00  0.00     0.000 OA
ATOM     35   O  GU1 D   2      -5.594  23.740 -19.9710  0.00  0.00     0.000 O
ENDBRANCH 27 33
BRANCH 23 36
ATOM     36  O4  GU6 D   3      -3.748  22.033 -15.8640  0.00  0.00     0.000 O
BRANCH 36 40
ATOM     37  C1  GU6 D   3      -4.315  20.462 -12.1350  0.00  0.00     0.000 C
ATOM     38  C2  GU6 D   3      -2.853  20.541 -12.5570  0.00  0.00     0.000 C
ATOM     39  C3  GU6 D   3      -2.733  21.372 -13.8080  0.00  0.00     0.000 C
ATOM     40  C4  GU6 D   3      -3.972  21.747 -14.4980  0.00  0.00     0.000 C
ATOM     41  C5  GU6 D   3      -4.986  20.557 -14.4360  0.00  0.00     0.000 C
ATOM     42  O5  GU6 D   3      -5.057  19.863 -13.1860  0.00  0.00     0.000 O
BRANCH 38 43
ATOM     43   O  GU6 D   3      -2.067  21.106 -11.5260  0.00  0.00     0.000 O
ATOM     44   S  GU6 D   3      -1.410  20.086 -10.6050  0.00  0.00     0.000 S
ATOM     45   O  GU6 D   3      -2.401  19.653  -9.6040  0.00  0.00     0.000 OA
ATOM     46   O  GU6 D   3      -0.990  18.925 -11.4110  0.00  0.00     0.000 O
ATOM     47   O  GU6 D   3      -0.249  20.702  -9.9720  0.00  0.00     0.000 OA
ENDBRANCH 38 43
BRANCH 39 48
ATOM     48   O  GU6 D   3      -1.500  21.963 -14.1730  0.00  0.00     0.000 O
ATOM     49   S  GU6 D   3      -0.979  23.377 -13.9240  0.00  0.00     0.000 S
ATOM     50   O  GU6 D   3      -1.022  23.688 -12.4910  0.00  0.00     0.000 OA
ATOM     51   O  GU6 D   3       0.406  23.313 -14.4120  0.00  0.00     0.000 OA
ATOM     52   O  GU6 D   3      -1.818  24.337 -14.6760  0.00  0.00     0.000 O
ENDBRANCH 39 48
BRANCH 41 53
ATOM     53   C  GU6 D   3      -5.913  20.046 -15.5050  0.00  0.00     0.000 C
ATOM     54   O  GU6 D   3      -5.804  18.677 -15.2140  0.00  0.00     0.000 O
ATOM     55   S  GU6 D   3      -6.488  17.634 -16.1080  0.00  0.00     0.000 S
ATOM     56   O  GU6 D   3      -5.817  17.694 -17.4270  0.00  0.00     0.000 O
ATOM     57   O  GU6 D   3      -6.316  16.308 -15.4960  0.00  0.00     0.000 OA
ATOM     58   O  GU6 D   3      -7.913  18.018 -16.2180  0.00  0.00     0.000 OA
ENDBRANCH 41 53
BRANCH 37 59
ATOM     59  O4  Z9K D   4      -5.094  21.569 -11.6360  0.00  0.00     0.000 O
BRANCH 59 63
ATOM     60  C1  Z9K D   4      -5.420  21.123  -7.7450  0.00  0.00     0.000 C
ATOM     61  C2  Z9K D   4      -6.581  20.222  -8.2500  0.00  0.00     0.000 C
ATOM     62  C3  Z9K D   4      -6.331  20.259  -9.8190  0.00  0.00     0.000 C
ATOM     63  C4  Z9K D   4      -6.024  21.639 -10.5160  0.00  0.00     0.000 C
ATOM     64  C5  Z9K D   4      -5.385  22.717  -9.6260  0.00  0.00     0.000 C
ATOM     65  O5  Z9K D   4      -4.587  21.936  -8.6980  0.00  0.00     0.000 O
ATOM     66   O  Z9K D   4      -7.412  19.693 -10.5810  0.00  0.00     0.000 O
ATOM     67   C  Z9K D   4      -7.343  18.286 -10.7420  0.00  0.00     0.000 C
BRANCH 61 68
ATOM     68   O  Z9K D   4      -6.296  18.914  -7.8360  0.00  0.00     0.000 O
ATOM     69   O  Z9K D   4      -8.818  19.348  -7.8610  0.00  0.00     0.000 OA
ATOM     70   S  Z9K D   4      -7.661  19.231  -7.0250  0.00  0.00     0.000 S
ATOM     71   O  Z9K D   4      -7.354  20.064  -5.9030  0.00  0.00     0.000 OA
ATOM     72   O  Z9K D   4      -7.413  17.867  -6.6870  0.00  0.00     0.000 OA
ENDBRANCH 61 68
BRANCH 64 73
ATOM     73   C  Z9K D   4      -4.686  23.793 -10.4830  0.00  0.00     0.000 C
ATOM     74   O  Z9K D   4      -5.345  24.540 -11.2630  0.00  0.00     0.000 O
ATOM     75   O  Z9K D   4      -3.444  23.972 -10.4350  0.00  0.00     0.000 OA
ENDBRANCH 64 73
BRANCH 60 76
ATOM     76  O4  Z9L D   5      -5.453  22.138  -6.7270  0.00  0.00     0.000 O
BRANCH 76 80
ATOM     77  C1  Z9L D   5      -3.510  23.602  -3.5560  0.00  0.00     0.000 C
ATOM     78  C2  Z9L D   5      -3.523  24.754  -4.6720  0.00  0.00     0.000 C
ATOM     79  C3  Z9L D   5      -4.710  24.325  -5.7990  0.00  0.00     0.000 C
ATOM     80  C4  Z9L D   5      -4.430  22.708  -5.9520  0.00  0.00     0.000 C
ATOM     81  C5  Z9L D   5      -4.184  21.570  -4.8360  0.00  0.00     0.000 C
ATOM     82  O5  Z9L D   5      -3.328  22.156  -3.8440  0.00  0.00     0.000 O
ATOM     83   C  Z9L D   5      -4.791  22.807  -1.6540  0.00  0.00     0.000 C
ATOM     84   C  Z9L D   5      -4.791  22.807  -1.6540  0.00  0.00     0.000 C
BRANCH 78 85
ATOM     85   O  Z9L D   5      -3.889  25.947  -4.0570  0.00  0.00     0.000 O
ATOM     86   O  Z9L D   5      -2.713  27.442  -3.7540  0.00  0.00     0.000 OA
ATOM     87   S  Z9L D   5      -2.377  26.266  -4.4970  0.00  0.00     0.000 S
ATOM     88   O  Z9L D   5      -2.250  26.709  -5.8630  0.00  0.00     0.000 OA
ATOM     89   O  Z9L D   5      -1.351  25.629  -3.7450  0.00  0.00     0.000 OA
ENDBRANCH 78 85
BRANCH 79 90
ATOM     90   O  Z9L D   5      -4.402  24.807  -7.0680  0.00  0.00     0.000 O
ATOM     91   S  Z9L D   5      -5.811  25.514  -6.8490  0.00  0.00     0.000 S
ATOM     92   O  Z9L D   5      -6.081  26.361  -5.7160  0.00  0.00     0.000 OA
ATOM     93   O  Z9L D   5      -6.850  24.699  -7.4290  0.00  0.00     0.000 O
ATOM     94   O  Z9L D   5      -5.300  26.348  -7.8880  0.00  0.00     0.000 OA
ENDBRANCH 79 90
BRANCH 81 95
ATOM     95   C  Z9L D   5      -3.834  20.023  -5.3800  0.00  0.00     0.000 C
ATOM     96   S  Z9L D   5      -2.372  18.765  -5.8780  0.00  0.00     0.000 S
ATOM     97   O  Z9L D   5      -2.625  20.312  -6.0290  0.00  0.00     0.000 O
ATOM     98   O  Z9L D   5      -3.246  18.109  -6.8160  0.00  0.00     0.000 OA
ATOM     99   O  Z9L D   5      -2.225  18.289  -4.5440  0.00  0.00     0.000 OA
ATOM    100   O  Z9L D   5      -1.153  19.120  -6.5620  0.00  0.00     0.000 O
ENDBRANCH 81 95
ENDBRANCH 76 80
ENDBRANCH 60 76
ENDBRANCH 59 63
ENDBRANCH 37 59
ENDBRANCH 36 40
ENDBRANCH 23 36
ENDBRANCH 22 26
ENDBRANCH 1 22
TORSDOF 19
ENDMDL
MODEL 93
REMARK VINA RESULT:      -6.6      5.343     10.315
ROOT
ATOM      1  C1  Z9H D   1       3.659  34.561 -57.8610  0.00  0.00     0.000 C
ATOM      2  C2  Z9H D   1       3.619  36.001 -58.4260  0.00  0.00     0.000 C
ATOM      3  C3  Z9H D   1       5.064  36.051 -59.0100  0.00  0.00     0.000 C
ATOM      4  C4  Z9H D   1       6.214  35.604 -58.0160  0.00  0.00     0.000 C
ATOM      5  C5  Z9H D   1       6.140  34.288 -57.1430  0.00  0.00     0.000 C
ATOM      6  O5  Z9H D   1       4.710  34.161 -56.9380  0.00  0.00     0.000 O
ATOM      7   O  Z9H D   1       5.361  37.332 -59.5700  0.00  0.00     0.000 O
ATOM      8   C  Z9H D   1       5.217  37.428 -60.9970  0.00  0.00     0.000 C
ATOM      9   O  Z9H D   1       7.402  35.518 -58.8100  0.00  0.00     0.000 O
ATOM     10   C  Z9H D   1       8.279  36.646 -58.7340  0.00  0.00     0.000 C
ENDROOT
BRANCH 2 11
ATOM     11   O  Z9H D   1       2.779  35.854 -59.5410  0.00  0.00     0.000 O
ATOM     12   O  Z9H D   1       1.065  36.628 -59.6850  0.00  0.00     0.000 OA
ATOM     13   S  Z9H D   1       1.946  36.808 -58.5810  0.00  0.00     0.000 S
ATOM     14   O  Z9H D   1       2.588  38.092 -58.5550  0.00  0.00     0.000 OA
ATOM     15   O  Z9H D   1       1.453  36.101 -57.4220  0.00  0.00     0.000 O
ENDBRANCH 2 11
BRANCH 5 16
ATOM     16   C  Z9H D   1       7.213  34.227 -55.8610  0.00  0.00     0.000 C
ATOM     17   S  Z9H D   1       8.613  35.261 -54.8560  0.00  0.00     0.000 S
ATOM     18   O  Z9H D   1       7.175  35.590 -55.5140  0.00  0.00     0.000 O
ATOM     19   O  Z9H D   1       9.651  34.956 -55.7980  0.00  0.00     0.000 O
ATOM     20   O  Z9H D   1       8.443  34.562 -53.6300  0.00  0.00     0.000 OA
ATOM     21   O  Z9H D   1       8.541  36.665 -54.5730  0.00  0.00     0.000 OA
ENDBRANCH 5 16
BRANCH 1 22
ATOM     22  O4  GU1 D   2       3.778  33.501 -58.8770  0.00  0.00     0.000 O
BRANCH 22 26
ATOM     23  C1  GU1 D   2       2.732  29.646 -59.8870  0.00  0.00     0.000 C
ATOM     24  C2  GU1 D   2       1.643  30.441 -59.1840  0.00  0.00     0.000 C
ATOM     25  C3  GU1 D   2       1.992  31.901 -59.2170  0.00  0.00     0.000 C
ATOM     26  C4  GU1 D   2       3.391  32.138 -58.6660  0.00  0.00     0.000 C
ATOM     27  C5  GU1 D   2       4.394  31.216 -59.3670  0.00  0.00     0.000 C
ATOM     28  O5  GU1 D   2       3.987  29.856 -59.2500  0.00  0.00     0.000 O
ATOM     29   O  GU1 D   2       0.375  30.273 -59.8070  0.00  0.00     0.000 O
ATOM     30   C  GU1 D   2      -0.444  29.290 -59.1900  0.00  0.00     0.000 C
ATOM     31   C  GU1 D   2       0.037  33.302 -59.1220  0.00  0.00     0.000 C
ATOM     32   O  GU1 D   2       1.053  32.609 -58.4010  0.00  0.00     0.000 O
BRANCH 27 33
ATOM     33   C  GU1 D   2       5.770  31.342 -58.7590  0.00  0.00     0.000 C
ATOM     34   O  GU1 D   2       6.648  31.861 -59.4180  0.00  0.00     0.000 OA
ATOM     35   O  GU1 D   2       5.989  30.934 -57.6290  0.00  0.00     0.000 O
ENDBRANCH 27 33
BRANCH 23 36
ATOM     36  O4  GU6 D   3       2.759  28.209 -59.7800  0.00  0.00     0.000 O
BRANCH 36 40
ATOM     37  C1  GU6 D   3       1.953  24.274 -59.0300  0.00  0.00     0.000 C
ATOM     38  C2  GU6 D   3       3.372  24.695 -58.6670  0.00  0.00     0.000 C
ATOM     39  C3  GU6 D   3       3.483  26.196 -58.7220  0.00  0.00     0.000 C
ATOM     40  C4  GU6 D   3       2.359  26.942 -59.2980  0.00  0.00     0.000 C
ATOM     41  C5  GU6 D   3       1.775  26.150 -60.5150  0.00  0.00     0.000 C
ATOM     42  O5  GU6 D   3       1.668  24.732 -60.3430  0.00  0.00     0.000 O
BRANCH 38 43
ATOM     43   O  GU6 D   3       3.713  24.232 -57.3750  0.00  0.00     0.000 O
ATOM     44   S  GU6 D   3       4.950  23.344 -57.3310  0.00  0.00     0.000 S
ATOM     45   O  GU6 D   3       4.558  21.976 -57.7100  0.00  0.00     0.000 OA
ATOM     46   O  GU6 D   3       5.934  23.858 -58.3010  0.00  0.00     0.000 O
ATOM     47   O  GU6 D   3       5.509  23.383 -55.9830  0.00  0.00     0.000 OA
ENDBRANCH 38 43
BRANCH 39 48
ATOM     48   O  GU6 D   3       4.518  26.873 -58.0360  0.00  0.00     0.000 O
ATOM     49   S  GU6 D   3       4.542  27.454 -56.6220  0.00  0.00     0.000 S
ATOM     50   O  GU6 D   3       4.193  26.418 -55.6440  0.00  0.00     0.000 OA
ATOM     51   O  GU6 D   3       5.938  27.885 -56.4630  0.00  0.00     0.000 OA
ATOM     52   O  GU6 D   3       3.574  28.570 -56.5460  0.00  0.00     0.000 O
ENDBRANCH 39 48
BRANCH 41 53
ATOM     53   C  GU6 D   3       1.294  26.671 -61.8420  0.00  0.00     0.000 C
ATOM     54   O  GU6 D   3       1.968  25.754 -62.6630  0.00  0.00     0.000 O
ATOM     55   S  GU6 D   3       1.920  25.895 -64.1900  0.00  0.00     0.000 S
ATOM     56   O  GU6 D   3       2.634  27.149 -64.5270  0.00  0.00     0.000 O
ATOM     57   O  GU6 D   3       2.597  24.735 -64.7890  0.00  0.00     0.000 OA
ATOM     58   O  GU6 D   3       0.494  25.974 -64.5790  0.00  0.00     0.000 OA
ENDBRANCH 41 53
BRANCH 37 59
ATOM     59  O4  Z9K D   4       0.783  24.524 -58.2240  0.00  0.00     0.000 O
BRANCH 59 63
ATOM     60  C1  Z9K D   4       0.312  21.546 -55.7020  0.00  0.00     0.000 C
ATOM     61  C2  Z9K D   4      -0.327  20.955 -56.9890  0.00  0.00     0.000 C
ATOM     62  C3  Z9K D   4       0.030  22.085 -58.0490  0.00  0.00     0.000 C
ATOM     63  C4  Z9K D   4      -0.192  23.597 -57.6640  0.00  0.00     0.000 C
ATOM     64  C5  Z9K D   4      -0.136  23.927 -56.1650  0.00  0.00     0.000 C
ATOM     65  O5  Z9K D   4       0.822  22.961 -55.6580  0.00  0.00     0.000 O
ATOM     66   O  Z9K D   4      -0.650  21.920 -59.3070  0.00  0.00     0.000 O
ATOM     67   C  Z9K D   4       0.005  21.052 -60.2180  0.00  0.00     0.000 C
BRANCH 61 68
ATOM     68   O  Z9K D   4       0.429  19.830 -57.3440  0.00  0.00     0.000 O
ATOM     69   O  Z9K D   4      -2.034  19.523 -57.9660  0.00  0.00     0.000 OA
ATOM     70   S  Z9K D   4      -1.016  19.174 -57.0220  0.00  0.00     0.000 S
ATOM     71   O  Z9K D   4      -1.185  19.091 -55.6030  0.00  0.00     0.000 OA
ATOM     72   O  Z9K D   4      -0.263  18.050 -57.4770  0.00  0.00     0.000 OA
ENDBRANCH 61 68
BRANCH 64 73
ATOM     73   C  Z9K D   4       0.137  25.429 -55.9420  0.00  0.00     0.000 C
ATOM     74   O  Z9K D   4      -0.734  26.303 -56.2250  0.00  0.00     0.000 O
ATOM     75   O  Z9K D   4       1.224  25.841 -55.4690  0.00  0.00     0.000 OA
ENDBRANCH 64 73
BRANCH 60 76
ATOM     76  O4  Z9L D   5      -0.228  21.579 -54.3700  0.00  0.00     0.000 O
BRANCH 76 80
ATOM     77  C1  Z9L D   5       0.603  21.607 -50.4610  0.00  0.00     0.000 C
ATOM     78  C2  Z9L D   5       0.077  23.074 -50.8400  0.00  0.00     0.000 C
ATOM     79  C3  Z9L D   5      -0.695  22.940 -52.3390  0.00  0.00     0.000 C
ATOM     80  C4  Z9L D   5       0.348  21.951 -53.1440  0.00  0.00     0.000 C
ATOM     81  C5  Z9L D   5       1.070  20.584 -52.6870  0.00  0.00     0.000 C
ATOM     82  O5  Z9L D   5       1.483  20.781 -51.3260  0.00  0.00     0.000 O
ATOM     83   C  Z9L D   5      -0.208  19.462 -49.6640  0.00  0.00     0.000 C
ATOM     84   C  Z9L D   5      -0.208  19.462 -49.6640  0.00  0.00     0.000 C
BRANCH 78 85
ATOM     85   O  Z9L D   5      -0.854  23.460 -49.8800  0.00  0.00     0.000 O
ATOM     86   O  Z9L D   5      -0.588  24.855 -48.5790  0.00  0.00     0.000 OA
ATOM     87   S  Z9L D   5       0.313  24.540 -49.6450  0.00  0.00     0.000 S
ATOM     88   O  Z9L D   5       0.247  25.670 -50.5380  0.00  0.00     0.000 OA
ATOM     89   O  Z9L D   5       1.494  24.068 -49.0090  0.00  0.00     0.000 OA
ENDBRANCH 78 85
BRANCH 79 90
ATOM     90   O  Z9L D   5      -0.606  24.127 -53.0620  0.00  0.00     0.000 O
ATOM     91   S  Z9L D   5      -2.190  23.995 -52.9580  0.00  0.00     0.000 S
ATOM     92   O  Z9L D   5      -2.872  23.878 -51.6960  0.00  0.00     0.000 OA
ATOM     93   O  Z9L D   5      -2.693  23.335 -54.1360  0.00  0.00     0.000 O
ATOM     94   O  Z9L D   5      -2.098  25.387 -53.2610  0.00  0.00     0.000 OA
ENDBRANCH 79 90
BRANCH 81 95
ATOM     95   C  Z9L D   5       2.157  19.892 -53.7600  0.00  0.00     0.000 C
ATOM     96   S  Z9L D   5       4.083  19.711 -54.2340  0.00  0.00     0.000 S
ATOM     97   O  Z9L D   5       3.168  20.859 -53.6650  0.00  0.00     0.000 O
ATOM     98   O  Z9L D   5       3.735  19.552 -55.6220  0.00  0.00     0.000 OA
ATOM     99   O  Z9L D   5       4.265  18.584 -53.3820  0.00  0.00     0.000 OA
ATOM    100   O  Z9L D   5       5.077  20.751 -54.1290  0.00  0.00     0.000 O
ENDBRANCH 81 95
ENDBRANCH 76 80
ENDBRANCH 60 76
ENDBRANCH 59 63
ENDBRANCH 37 59
ENDBRANCH 36 40
ENDBRANCH 23 36
ENDBRANCH 22 26
ENDBRANCH 1 22
TORSDOF 19
ENDMDL
MODEL 94
REMARK VINA RESULT:      -6.6     42.922     48.986
ROOT
ATOM      1  C1  Z9H D   1       3.310  43.076 -22.1170  0.00  0.00     0.000 C
ATOM      2  C2  Z9H D   1       4.142  42.209 -23.0910  0.00  0.00     0.000 C
ATOM      3  C3  Z9H D   1       5.324  43.200 -23.3160  0.00  0.00     0.000 C
ATOM      4  C4  Z9H D   1       4.907  44.679 -23.7050  0.00  0.00     0.000 C
ATOM      5  C5  Z9H D   1       3.793  45.493 -22.9330  0.00  0.00     0.000 C
ATOM      6  O5  Z9H D   1       2.917  44.428 -22.4850  0.00  0.00     0.000 O
ATOM      7   O  Z9H D   1       6.269  42.687 -24.2580  0.00  0.00     0.000 O
ATOM      8   C  Z9H D   1       7.432  42.065 -23.6860  0.00  0.00     0.000 C
ATOM      9   O  Z9H D   1       6.111  45.451 -23.6470  0.00  0.00     0.000 O
ATOM     10   C  Z9H D   1       6.750  45.694 -24.9040  0.00  0.00     0.000 C
ENDROOT
BRANCH 2 11
ATOM     11   O  Z9H D   1       4.652  41.219 -22.2380  0.00  0.00     0.000 O
ATOM     12   O  Z9H D   1       4.138  39.405 -22.2920  0.00  0.00     0.000 OA
ATOM     13   S  Z9H D   1       3.664  40.410 -23.1830  0.00  0.00     0.000 S
ATOM     14   O  Z9H D   1       4.245  40.345 -24.4930  0.00  0.00     0.000 OA
ATOM     15   O  Z9H D   1       2.281  40.722 -22.9010  0.00  0.00     0.000 O
ENDBRANCH 2 11
BRANCH 5 16
ATOM     16   C  Z9H D   1       3.195  46.826 -23.7510  0.00  0.00     0.000 C
ATOM     17   S  Z9H D   1       2.664  48.754 -23.5540  0.00  0.00     0.000 S
ATOM     18   O  Z9H D   1       3.863  47.820 -23.0110  0.00  0.00     0.000 O
ATOM     19   O  Z9H D   1       1.368  48.442 -23.0230  0.00  0.00     0.000 O
ATOM     20   O  Z9H D   1       2.886  49.094 -24.9160  0.00  0.00     0.000 OA
ATOM     21   O  Z9H D   1       3.359  49.712 -22.7450  0.00  0.00     0.000 OA
ENDBRANCH 5 16
BRANCH 1 22
ATOM     22  O4  GU1 D   2       3.948  43.329 -20.8130  0.00  0.00     0.000 O
BRANCH 22 26
ATOM     23  C1  GU1 D   2       3.211  44.285 -16.8750  0.00  0.00     0.000 C
ATOM     24  C2  GU1 D   2       2.088  43.531 -17.5710  0.00  0.00     0.000 C
ATOM     25  C3  GU1 D   2       2.612  42.916 -18.8360  0.00  0.00     0.000 C
ATOM     26  C4  GU1 D   2       3.294  43.961 -19.7070  0.00  0.00     0.000 C
ATOM     27  C5  GU1 D   2       4.331  44.733 -18.8850  0.00  0.00     0.000 C
ATOM     28  O5  GU1 D   2       3.726  45.302 -17.7270  0.00  0.00     0.000 O
ATOM     29   O  GU1 D   2       1.562  42.490 -16.7560  0.00  0.00     0.000 O
ATOM     30   C  GU1 D   2       0.389  42.856 -16.0430  0.00  0.00     0.000 C
ATOM     31   C  GU1 D   2       1.376  40.949 -19.4660  0.00  0.00     0.000 C
ATOM     32   O  GU1 D   2       1.508  42.365 -19.5620  0.00  0.00     0.000 O
BRANCH 27 33
ATOM     33   C  GU1 D   2       4.939  45.857 -19.6890  0.00  0.00     0.000 C
ATOM     34   O  GU1 D   2       4.330  46.904 -19.7700  0.00  0.00     0.000 OA
ATOM     35   O  GU1 D   2       6.019  45.713 -20.2400  0.00  0.00     0.000 O
ENDBRANCH 27 33
BRANCH 23 36
ATOM     36  O4  GU6 D   3       2.913  45.165 -15.7730  0.00  0.00     0.000 O
BRANCH 36 40
ATOM     37  C1  GU6 D   3       1.192  47.199 -12.6750  0.00  0.00     0.000 C
ATOM     38  C2  GU6 D   3       0.591  47.522 -14.0370  0.00  0.00     0.000 C
ATOM     39  C3  GU6 D   3       1.096  46.537 -15.0590  0.00  0.00     0.000 C
ATOM     40  C4  GU6 D   3       2.184  45.638 -14.6580  0.00  0.00     0.000 C
ATOM     41  C5  GU6 D   3       3.190  46.410 -13.7420  0.00  0.00     0.000 C
ATOM     42  O5  GU6 D   3       2.605  47.286 -12.7720  0.00  0.00     0.000 O
BRANCH 38 43
ATOM     43   O  GU6 D   3      -0.822  47.478 -13.9810  0.00  0.00     0.000 O
ATOM     44   S  GU6 D   3      -1.479  48.799 -13.6030  0.00  0.00     0.000 S
ATOM     45   O  GU6 D   3      -1.432  48.944 -12.1380  0.00  0.00     0.000 OA
ATOM     46   O  GU6 D   3      -0.720  49.897 -14.2290  0.00  0.00     0.000 O
ATOM     47   O  GU6 D   3      -2.853  48.798 -14.0940  0.00  0.00     0.000 OA
ENDBRANCH 38 43
BRANCH 39 48
ATOM     48   O  GU6 D   3       0.398  46.326 -16.2710  0.00  0.00     0.000 O
ATOM     49   S  GU6 D   3       0.275  47.225 -17.5010  0.00  0.00     0.000 S
ATOM     50   O  GU6 D   3       1.607  47.579 -18.0040  0.00  0.00     0.000 OA
ATOM     51   O  GU6 D   3      -0.449  46.380 -18.4600  0.00  0.00     0.000 OA
ATOM     52   O  GU6 D   3      -0.467  48.450 -17.1270  0.00  0.00     0.000 O
ENDBRANCH 39 48
BRANCH 41 53
ATOM     53   C  GU6 D   3       4.693  46.351 -13.7260  0.00  0.00     0.000 C
ATOM     54   O  GU6 D   3       4.857  46.023 -12.3710  0.00  0.00     0.000 O
ATOM     55   S  GU6 D   3       6.259  45.943 -11.7530  0.00  0.00     0.000 S
ATOM     56   O  GU6 D   3       6.817  47.315 -11.7780  0.00  0.00     0.000 O
ATOM     57   O  GU6 D   3       6.135  45.457 -10.3710  0.00  0.00     0.000 OA
ATOM     58   O  GU6 D   3       7.060  45.028 -12.5980  0.00  0.00     0.000 OA
ENDBRANCH 41 53
BRANCH 37 59
ATOM     59  O4  Z9K D   4       0.887  46.026 -11.8920  0.00  0.00     0.000 O
BRANCH 59 63
ATOM     60  C1  Z9K D   4       0.373  45.317  -8.0600  0.00  0.00     0.000 C
ATOM     61  C2  Z9K D   4       1.702  46.121  -8.0420  0.00  0.00     0.000 C
ATOM     62  C3  Z9K D   4       1.809  46.562  -9.5660  0.00  0.00     0.000 C
ATOM     63  C4  Z9K D   4       1.529  45.498 -10.6950  0.00  0.00     0.000 C
ATOM     64  C5  Z9K D   4       0.602  44.335 -10.3110  0.00  0.00     0.000 C
ATOM     65  O5  Z9K D   4      -0.302  44.946  -9.3530  0.00  0.00     0.000 O
ATOM     66   O  Z9K D   4       3.086  47.133  -9.9050  0.00  0.00     0.000 O
ATOM     67   C  Z9K D   4       3.196  48.521  -9.6380  0.00  0.00     0.000 C
BRANCH 61 68
ATOM     68   O  Z9K D   4       1.465  47.291  -7.3090  0.00  0.00     0.000 O
ATOM     69   O  Z9K D   4       3.897  46.529  -7.0740  0.00  0.00     0.000 OA
ATOM     70   S  Z9K D   4       2.619  46.573  -6.4290  0.00  0.00     0.000 S
ATOM     71   O  Z9K D   4       2.032  45.516  -5.6640  0.00  0.00     0.000 OA
ATOM     72   O  Z9K D   4       2.437  47.812  -5.7440  0.00  0.00     0.000 OA
ENDBRANCH 61 68
BRANCH 64 73
ATOM     73   C  Z9K D   4       0.008  43.667 -11.5690  0.00  0.00     0.000 C
ATOM     74   O  Z9K D   4      -1.243  43.588 -11.7410  0.00  0.00     0.000 O
ATOM     75   O  Z9K D   4       0.739  43.185 -12.4690  0.00  0.00     0.000 OA
ENDBRANCH 64 73
BRANCH 60 76
ATOM     76  O4  Z9L D   5       0.074  44.068  -7.4130  0.00  0.00     0.000 O
BRANCH 76 80
ATOM     77  C1  Z9L D   5      -2.574  42.132  -5.1300  0.00  0.00     0.000 C
ATOM     78  C2  Z9L D   5      -2.579  41.415  -6.5650  0.00  0.00     0.000 C
ATOM     79  C3  Z9L D   5      -1.171  41.913  -7.3610  0.00  0.00     0.000 C
ATOM     80  C4  Z9L D   5      -1.143  43.515  -6.9800  0.00  0.00     0.000 C
ATOM     81  C5  Z9L D   5      -1.367  44.269  -5.5720  0.00  0.00     0.000 C
ATOM     82  O5  Z9L D   5      -2.458  43.598  -4.9240  0.00  0.00     0.000 O
ATOM     83   C  Z9L D   5      -1.498  41.992  -2.9590  0.00  0.00     0.000 C
ATOM     84   C  Z9L D   5      -1.498  41.992  -2.9590  0.00  0.00     0.000 C
BRANCH 78 85
ATOM     85   O  Z9L D   5      -2.525  40.040  -6.3620  0.00  0.00     0.000 O
ATOM     86   O  Z9L D   5      -3.961  38.810  -6.7310  0.00  0.00     0.000 OA
ATOM     87   S  Z9L D   5      -3.966  40.204  -7.0550  0.00  0.00     0.000 S
ATOM     88   O  Z9L D   5      -3.915  40.253  -8.4960  0.00  0.00     0.000 OA
ATOM     89   O  Z9L D   5      -4.994  40.772  -6.2530  0.00  0.00     0.000 OA
ENDBRANCH 78 85
BRANCH 79 90
ATOM     90   O  Z9L D   5      -1.349  41.933  -8.7410  0.00  0.00     0.000 O
ATOM     91   S  Z9L D   5      -0.147  40.893  -8.6430  0.00  0.00     0.000 S
ATOM     92   O  Z9L D   5      -0.225  39.698  -7.8450  0.00  0.00     0.000 OA
ATOM     93   O  Z9L D   5       1.103  41.592  -8.8110  0.00  0.00     0.000 O
ATOM     94   O  Z9L D   5      -0.624  40.563  -9.9460  0.00  0.00     0.000 OA
ENDBRANCH 79 90
BRANCH 81 95
ATOM     95   C  Z9L D   5      -1.355  45.946  -5.5860  0.00  0.00     0.000 C
ATOM     96   S  Z9L D   5      -1.698  47.584  -4.5060  0.00  0.00     0.000 S
ATOM     97   O  Z9L D   5      -2.352  46.156  -4.6230  0.00  0.00     0.000 O
ATOM     98   O  Z9L D   5      -2.059  48.304  -5.7000  0.00  0.00     0.000 OA
ATOM     99   O  Z9L D   5      -0.370  47.616  -3.9940  0.00  0.00     0.000 OA
ATOM    100   O  Z9L D   5      -2.755  47.748  -3.5390  0.00  0.00     0.000 O
ENDBRANCH 81 95
ENDBRANCH 76 80
ENDBRANCH 60 76
ENDBRANCH 59 63
ENDBRANCH 37 59
ENDBRANCH 36 40
ENDBRANCH 23 36
ENDBRANCH 22 26
ENDBRANCH 1 22
TORSDOF 19
ENDMDL
MODEL 95
REMARK VINA RESULT:      -6.6      2.544     14.143
ROOT
ATOM      1  C1  Z9H D   1       1.688  16.033 -50.7800  0.00  0.00     0.000 C
ATOM      2  C2  Z9H D   1       2.207  14.591 -50.9940  0.00  0.00     0.000 C
ATOM      3  C3  Z9H D   1       0.964  14.016 -51.7400  0.00  0.00     0.000 C
ATOM      4  C4  Z9H D   1      -0.431  14.277 -51.0370  0.00  0.00     0.000 C
ATOM      5  C5  Z9H D   1      -0.868  15.692 -50.4820  0.00  0.00     0.000 C
ATOM      6  O5  Z9H D   1       0.413  16.266 -50.1210  0.00  0.00     0.000 O
ATOM      7   O  Z9H D   1       1.122  12.626 -52.0310  0.00  0.00     0.000 O
ATOM      8   C  Z9H D   1       1.557  12.322 -53.3670  0.00  0.00     0.000 C
ATOM      9   O  Z9H D   1      -1.426  13.868 -51.9820  0.00  0.00     0.000 O
ATOM     10   C  Z9H D   1      -1.979  12.566 -51.7710  0.00  0.00     0.000 C
ENDROOT
BRANCH 2 11
ATOM     11   O  Z9H D   1       3.179  14.775 -51.9900  0.00  0.00     0.000 O
ATOM     12   O  Z9H D   1       5.026  14.493 -51.7330  0.00  0.00     0.000 OA
ATOM     13   S  Z9H D   1       4.025  14.264 -50.7460  0.00  0.00     0.000 S
ATOM     14   O  Z9H D   1       3.724  12.876 -50.5360  0.00  0.00     0.000 OA
ATOM     15   O  Z9H D   1       4.104  15.264 -49.7070  0.00  0.00     0.000 O
ENDBRANCH 2 11
BRANCH 5 16
ATOM     16   C  Z9H D   1      -2.147  15.666 -49.4030  0.00  0.00     0.000 C
ATOM     17   S  Z9H D   1      -2.650  15.372 -47.4790  0.00  0.00     0.000 S
ATOM     18   O  Z9H D   1      -1.446  16.107 -48.2650  0.00  0.00     0.000 O
ATOM     19   O  Z9H D   1      -2.665  13.943 -47.6020  0.00  0.00     0.000 O
ATOM     20   O  Z9H D   1      -3.824  16.171 -47.5230  0.00  0.00     0.000 OA
ATOM     21   O  Z9H D   1      -1.868  15.806 -46.3580  0.00  0.00     0.000 OA
ENDBRANCH 5 16
BRANCH 1 22
ATOM     22  O4  GU1 D   2       1.497  16.812 -52.0160  0.00  0.00     0.000 O
BRANCH 22 26
ATOM     23  C1  GU1 D   2       1.530  20.705 -53.3630  0.00  0.00     0.000 C
ATOM     24  C2  GU1 D   2       2.106  20.505 -51.9690  0.00  0.00     0.000 C
ATOM     25  C3  GU1 D   2       2.391  19.047 -51.7530  0.00  0.00     0.000 C
ATOM     26  C4  GU1 D   2       1.159  18.203 -52.0450  0.00  0.00     0.000 C
ATOM     27  C5  GU1 D   2       0.598  18.555 -53.4260  0.00  0.00     0.000 C
ATOM     28  O5  GU1 D   2       0.333  19.952 -53.5160  0.00  0.00     0.000 O
ATOM     29   O  GU1 D   2       3.319  21.227 -51.7870  0.00  0.00     0.000 O
ATOM     30   C  GU1 D   2       3.149  22.483 -51.1460  0.00  0.00     0.000 C
ATOM     31   C  GU1 D   2       4.160  18.698 -50.1590  0.00  0.00     0.000 C
ATOM     32   O  GU1 D   2       2.761  18.858 -50.3840  0.00  0.00     0.000 O
BRANCH 27 33
ATOM     33   C  GU1 D   2      -0.695  17.820 -53.6940  0.00  0.00     0.000 C
ATOM     34   O  GU1 D   2      -0.689  16.921 -54.5090  0.00  0.00     0.000 OA
ATOM     35   O  GU1 D   2      -1.717  18.125 -53.0990  0.00  0.00     0.000 O
ENDBRANCH 27 33
BRANCH 23 36
ATOM     36  O4  GU6 D   3       0.947  21.971 -53.7280  0.00  0.00     0.000 O
BRANCH 36 40
ATOM     37  C1  GU6 D   3      -0.496  25.290 -55.6250  0.00  0.00     0.000 C
ATOM     38  C2  GU6 D   3       0.963  25.405 -55.2010  0.00  0.00     0.000 C
ATOM     39  C3  GU6 D   3       1.470  24.055 -54.7660  0.00  0.00     0.000 C
ATOM     40  C4  GU6 D   3       0.488  22.976 -54.6090  0.00  0.00     0.000 C
ATOM     41  C5  GU6 D   3      -0.832  23.555 -54.0020  0.00  0.00     0.000 C
ATOM     42  O5  GU6 D   3      -1.253  24.823 -54.5190  0.00  0.00     0.000 O
BRANCH 38 43
ATOM     43   O  GU6 D   3       1.753  25.898 -56.2650  0.00  0.00     0.000 O
ATOM     44   S  GU6 D   3       2.530  27.166 -55.9380  0.00  0.00     0.000 S
ATOM     45   O  GU6 D   3       1.626  28.320 -56.0840  0.00  0.00     0.000 OA
ATOM     46   O  GU6 D   3       2.998  27.085 -54.5420  0.00  0.00     0.000 O
ATOM     47   O  GU6 D   3       3.671  27.266 -56.8430  0.00  0.00     0.000 OA
ENDBRANCH 38 43
BRANCH 39 48
ATOM     48   O  GU6 D   3       2.857  23.775 -54.7360  0.00  0.00     0.000 O
ATOM     49   S  GU6 D   3       3.751  23.135 -55.7980  0.00  0.00     0.000 S
ATOM     50   O  GU6 D   3       3.643  23.873 -57.0610  0.00  0.00     0.000 OA
ATOM     51   O  GU6 D   3       5.096  23.263 -55.2210  0.00  0.00     0.000 OA
ATOM     52   O  GU6 D   3       3.331  21.730 -55.9950  0.00  0.00     0.000 O
ENDBRANCH 39 48
BRANCH 41 53
ATOM     53   C  GU6 D   3      -1.736  22.958 -52.9580  0.00  0.00     0.000 C
ATOM     54   O  GU6 D   3      -2.619  24.042 -52.8280  0.00  0.00     0.000 O
ATOM     55   S  GU6 D   3      -3.727  24.020 -51.7660  0.00  0.00     0.000 S
ATOM     56   O  GU6 D   3      -3.056  24.046 -50.4460  0.00  0.00     0.000 O
ATOM     57   O  GU6 D   3      -4.570  25.212 -51.9440  0.00  0.00     0.000 OA
ATOM     58   O  GU6 D   3      -4.488  22.764 -51.9520  0.00  0.00     0.000 OA
ENDBRANCH 41 53
BRANCH 37 59
ATOM     59  O4  Z9K D   4      -0.966  24.587 -56.7940  0.00  0.00     0.000 O
BRANCH 59 63
ATOM     60  C1  Z9K D   4      -0.702  26.751 -60.0640  0.00  0.00     0.000 C
ATOM     61  C2  Z9K D   4      -1.951  27.380 -59.3870  0.00  0.00     0.000 C
ATOM     62  C3  Z9K D   4      -1.944  26.629 -57.9850  0.00  0.00     0.000 C
ATOM     63  C4  Z9K D   4      -1.710  25.071 -57.9500  0.00  0.00     0.000 C
ATOM     64  C5  Z9K D   4      -0.914  24.481 -59.1240  0.00  0.00     0.000 C
ATOM     65  O5  Z9K D   4      -0.004  25.558 -59.4690  0.00  0.00     0.000 O
ATOM     66   O  Z9K D   4      -3.144  26.841 -57.2210  0.00  0.00     0.000 O
ATOM     67   C  Z9K D   4      -3.138  28.020 -56.4340  0.00  0.00     0.000 C
BRANCH 61 68
ATOM     68   O  Z9K D   4      -1.641  28.720 -59.1180  0.00  0.00     0.000 O
ATOM     69   O  Z9K D   4      -4.123  28.437 -59.6730  0.00  0.00     0.000 OA
ATOM     70   S  Z9K D   4      -2.854  28.864 -60.1810  0.00  0.00     0.000 S
ATOM     71   O  Z9K D   4      -2.353  28.611 -61.4970  0.00  0.00     0.000 OA
ATOM     72   O  Z9K D   4      -2.594  30.221 -59.8260  0.00  0.00     0.000 OA
ENDBRANCH 61 68
BRANCH 64 73
ATOM     73   C  Z9K D   4      -0.326  23.104 -58.7510  0.00  0.00     0.000 C
ATOM     74   O  Z9K D   4      -1.055  22.071 -58.7030  0.00  0.00     0.000 O
ATOM     75   O  Z9K D   4       0.893  22.954 -58.4900  0.00  0.00     0.000 OA
ENDBRANCH 64 73
BRANCH 60 76
ATOM     76  O4  Z9L D   5      -0.551  26.305 -61.4230  0.00  0.00     0.000 O
BRANCH 76 80
ATOM     77  C1  Z9L D   5       1.900  26.472 -64.5750  0.00  0.00     0.000 C
ATOM     78  C2  Z9L D   5       1.725  24.923 -64.1980  0.00  0.00     0.000 C
ATOM     79  C3  Z9L D   5       0.366  24.817 -63.1960  0.00  0.00     0.000 C
ATOM     80  C4  Z9L D   5       0.592  26.124 -62.2190  0.00  0.00     0.000 C
ATOM     81  C5  Z9L D   5       0.997  27.645 -62.5690  0.00  0.00     0.000 C
ATOM     82  O5  Z9L D   5       2.011  27.570 -63.5830  0.00  0.00     0.000 O
ATOM     83   C  Z9L D   5       0.929  28.185 -65.9940  0.00  0.00     0.000 C
ATOM     84   C  Z9L D   5       0.929  28.185 -65.9940  0.00  0.00     0.000 C
BRANCH 78 85
ATOM     85   O  Z9L D   5       1.482  24.216 -65.3720  0.00  0.00     0.000 O
ATOM     86   O  Z9L D   5       2.705  22.972 -66.1890  0.00  0.00     0.000 OA
ATOM     87   S  Z9L D   5       2.897  23.604 -64.9190  0.00  0.00     0.000 S
ATOM     88   O  Z9L D   5       2.787  22.541 -63.9510  0.00  0.00     0.000 OA
ATOM     89   O  Z9L D   5       4.033  24.444 -65.0870  0.00  0.00     0.000 OA
ENDBRANCH 78 85
BRANCH 79 90
ATOM     90   O  Z9L D   5       0.474  23.752 -62.3060  0.00  0.00     0.000 O
ATOM     91   S  Z9L D   5      -0.886  23.356 -63.0350  0.00  0.00     0.000 S
ATOM     92   O  Z9L D   5      -0.978  23.198 -64.4630  0.00  0.00     0.000 OA
ATOM     93   O  Z9L D   5      -2.001  23.859 -62.2710  0.00  0.00     0.000 O
ATOM     94   O  Z9L D   5      -0.542  22.082 -62.4900  0.00  0.00     0.000 OA
ENDBRANCH 79 90
BRANCH 81 95
ATOM     95   C  Z9L D   5       1.230  28.695 -61.2820  0.00  0.00     0.000 C
ATOM     96   S  Z9L D   5       2.593  29.654 -60.1920  0.00  0.00     0.000 S
ATOM     97   O  Z9L D   5       2.500  28.247 -60.8920  0.00  0.00     0.000 O
ATOM     98   O  Z9L D   5       1.722  29.606 -59.0460  0.00  0.00     0.000 OA
ATOM     99   O  Z9L D   5       2.609  30.780 -61.0640  0.00  0.00     0.000 OA
ATOM    100   O  Z9L D   5       3.881  29.133 -59.8070  0.00  0.00     0.000 O
ENDBRANCH 81 95
ENDBRANCH 76 80
ENDBRANCH 60 76
ENDBRANCH 59 63
ENDBRANCH 37 59
ENDBRANCH 36 40
ENDBRANCH 23 36
ENDBRANCH 22 26
ENDBRANCH 1 22
TORSDOF 19
ENDMDL
MODEL 96
REMARK VINA RESULT:      -6.6     30.350     35.962
ROOT
ATOM      1  C1  Z9H D   1      17.859   6.785 -27.2920  0.00  0.00     0.000 C
ATOM      2  C2  Z9H D   1      17.316   5.834 -26.1990  0.00  0.00     0.000 C
ATOM      3  C3  Z9H D   1      16.343   5.003 -27.0900  0.00  0.00     0.000 C
ATOM      4  C4  Z9H D   1      15.352   5.853 -27.9890  0.00  0.00     0.000 C
ATOM      5  C5  Z9H D   1      15.821   7.076 -28.8730  0.00  0.00     0.000 C
ATOM      6  O5  Z9H D   1      16.945   7.573 -28.1040  0.00  0.00     0.000 O
ATOM      7   O  Z9H D   1      15.617   4.042 -26.3230  0.00  0.00     0.000 O
ATOM      8   C  Z9H D   1      16.142   2.704 -26.3560  0.00  0.00     0.000 C
ATOM      9   O  Z9H D   1      14.721   4.914 -28.8660  0.00  0.00     0.000 O
ATOM     10   C  Z9H D   1      13.413   4.486 -28.4750  0.00  0.00     0.000 C
ENDROOT
BRANCH 2 11
ATOM     11   O  Z9H D   1      18.415   4.991 -25.9730  0.00  0.00     0.000 O
ATOM     12   O  Z9H D   1      19.398   4.939 -24.3630  0.00  0.00     0.000 OA
ATOM     13   S  Z9H D   1      18.252   5.754 -24.5890  0.00  0.00     0.000 S
ATOM     14   O  Z9H D   1      17.062   5.274 -23.9470  0.00  0.00     0.000 OA
ATOM     15   O  Z9H D   1      18.635   7.143 -24.6970  0.00  0.00     0.000 O
ENDBRANCH 2 11
BRANCH 5 16
ATOM     16   C  Z9H D   1      14.594   8.096 -29.3800  0.00  0.00     0.000 C
ATOM     17   S  Z9H D   1      12.673   8.607 -29.0840  0.00  0.00     0.000 S
ATOM     18   O  Z9H D   1      13.930   8.226 -28.1460  0.00  0.00     0.000 O
ATOM     19   O  Z9H D   1      12.164   7.525 -29.8770  0.00  0.00     0.000 O
ATOM     20   O  Z9H D   1      12.809   9.934 -29.5720  0.00  0.00     0.000 OA
ATOM     21   O  Z9H D   1      12.037   8.676 -27.8000  0.00  0.00     0.000 OA
ENDBRANCH 5 16
BRANCH 1 22
ATOM     22  O4  GU1 D   2      18.654   6.128 -28.3450  0.00  0.00     0.000 O
BRANCH 22 26
ATOM     23  C1  GU1 D   2      21.777   6.667 -30.9770  0.00  0.00     0.000 C
ATOM     24  C2  GU1 D   2      21.854   7.509 -29.7120  0.00  0.00     0.000 C
ATOM     25  C3  GU1 D   2      20.903   6.958 -28.6890  0.00  0.00     0.000 C
ATOM     26  C4  GU1 D   2      19.501   6.826 -29.2660  0.00  0.00     0.000 C
ATOM     27  C5  GU1 D   2      19.548   6.054 -30.5880  0.00  0.00     0.000 C
ATOM     28  O5  GU1 D   2      20.452   6.676 -31.4970  0.00  0.00     0.000 O
ATOM     29   O  GU1 D   2      23.161   7.506 -29.1500  0.00  0.00     0.000 O
ATOM     30   C  GU1 D   2      23.946   8.632 -29.5170  0.00  0.00     0.000 C
ATOM     31   C  GU1 D   2      21.608   7.447 -26.4410  0.00  0.00     0.000 C
ATOM     32   O  GU1 D   2      20.858   7.861 -27.5800  0.00  0.00     0.000 O
BRANCH 27 33
ATOM     33   C  GU1 D   2      18.188   6.011 -31.2440  0.00  0.00     0.000 C
ATOM     34   O  GU1 D   2      17.694   7.055 -31.6170  0.00  0.00     0.000 OA
ATOM     35   O  GU1 D   2      17.606   4.948 -31.3980  0.00  0.00     0.000 O
ENDBRANCH 27 33
BRANCH 23 36
ATOM     36  O4  GU6 D   3      22.405   7.129 -32.1890  0.00  0.00     0.000 O
BRANCH 36 40
ATOM     37  C1  GU6 D   3      24.246   6.209 -35.7190  0.00  0.00     0.000 C
ATOM     38  C2  GU6 D   3      22.940   6.976 -35.8840  0.00  0.00     0.000 C
ATOM     39  C3  GU6 D   3      22.489   7.498 -34.5450  0.00  0.00     0.000 C
ATOM     40  C4  GU6 D   3      23.200   7.023 -33.3530  0.00  0.00     0.000 C
ATOM     41  C5  GU6 D   3      23.561   5.511 -33.5290  0.00  0.00     0.000 C
ATOM     42  O5  GU6 D   3      24.026   5.127 -34.8280  0.00  0.00     0.000 O
BRANCH 38 43
ATOM     43   O  GU6 D   3      23.104   8.050 -36.7900  0.00  0.00     0.000 O
ATOM     44   S  GU6 D   3      22.751   7.715 -38.2330  0.00  0.00     0.000 S
ATOM     45   O  GU6 D   3      23.900   7.028 -38.8490  0.00  0.00     0.000 OA
ATOM     46   O  GU6 D   3      21.584   6.814 -38.2350  0.00  0.00     0.000 O
ATOM     47   O  GU6 D   3      22.430   8.951 -38.9390  0.00  0.00     0.000 OA
ENDBRANCH 38 43
BRANCH 39 48
ATOM     48   O  GU6 D   3      21.577   8.576 -34.4550  0.00  0.00     0.000 O
ATOM     49   S  GU6 D   3      20.105   8.652 -34.8590  0.00  0.00     0.000 S
ATOM     50   O  GU6 D   3      19.343   7.588 -34.1960  0.00  0.00     0.000 OA
ATOM     51   O  GU6 D   3      19.695   9.978 -34.3780  0.00  0.00     0.000 OA
ATOM     52   O  GU6 D   3      20.003   8.507 -36.3290  0.00  0.00     0.000 O
ENDBRANCH 39 48
BRANCH 41 53
ATOM     53   C  GU6 D   3      23.504   4.399 -32.5160  0.00  0.00     0.000 C
ATOM     54   O  GU6 D   3      22.349   3.762 -32.9960  0.00  0.00     0.000 O
ATOM     55   S  GU6 D   3      21.742   2.575 -32.2370  0.00  0.00     0.000 S
ATOM     56   O  GU6 D   3      21.254   3.100 -30.9410  0.00  0.00     0.000 O
ATOM     57   O  GU6 D   3      20.630   2.031 -33.0300  0.00  0.00     0.000 OA
ATOM     58   O  GU6 D   3      22.823   1.584 -32.0370  0.00  0.00     0.000 OA
ENDBRANCH 41 53
BRANCH 37 59
ATOM     59  O4  Z9K D   4      25.516   6.801 -35.3700  0.00  0.00     0.000 O
BRANCH 59 63
ATOM     60  C1  Z9K D   4      27.222   8.405 -38.5270  0.00  0.00     0.000 C
ATOM     61  C2  Z9K D   4      27.548   6.901 -38.7400  0.00  0.00     0.000 C
ATOM     62  C3  Z9K D   4      26.703   6.240 -37.5660  0.00  0.00     0.000 C
ATOM     63  C4  Z9K D   4      26.759   6.878 -36.1260  0.00  0.00     0.000 C
ATOM     64  C5  Z9K D   4      27.089   8.377 -36.0650  0.00  0.00     0.000 C
ATOM     65  O5  Z9K D   4      26.507   8.885 -37.2940  0.00  0.00     0.000 O
ATOM     66   O  Z9K D   4      27.001   4.846 -37.3650  0.00  0.00     0.000 O
ATOM     67   C  Z9K D   4      26.272   3.964 -38.2020  0.00  0.00     0.000 C
BRANCH 61 68
ATOM     68   O  Z9K D   4      26.931   6.512 -39.9370  0.00  0.00     0.000 O
ATOM     69   O  Z9K D   4      29.096   5.205 -39.5440  0.00  0.00     0.000 OA
ATOM     70   S  Z9K D   4      28.497   6.280 -40.2770  0.00  0.00     0.000 S
ATOM     71   O  Z9K D   4      29.106   7.545 -40.5530  0.00  0.00     0.000 OA
ATOM     72   O  Z9K D   4      27.852   5.797 -41.4550  0.00  0.00     0.000 OA
ENDBRANCH 61 68
BRANCH 64 73
ATOM     73   C  Z9K D   4      26.634   8.984 -34.7210  0.00  0.00     0.000 C
ATOM     74   O  Z9K D   4      27.436   9.103 -33.7500  0.00  0.00     0.000 O
ATOM     75   O  Z9K D   4      25.459   9.388 -34.5420  0.00  0.00     0.000 OA
ENDBRANCH 64 73
BRANCH 60 76
ATOM     76  O4  Z9L D   5      28.114   9.531 -38.5870  0.00  0.00     0.000 O
BRANCH 76 80
ATOM     77  C1  Z9L D   5      28.572  13.098 -40.3300  0.00  0.00     0.000 C
ATOM     78  C2  Z9L D   5      28.632  13.338 -38.7450  0.00  0.00     0.000 C
ATOM     79  C3  Z9L D   5      28.902  11.827 -38.0350  0.00  0.00     0.000 C
ATOM     80  C4  Z9L D   5      27.890  10.876 -38.9210  0.00  0.00     0.000 C
ATOM     81  C5  Z9L D   5      27.652  10.787 -40.5140  0.00  0.00     0.000 C
ATOM     82  O5  Z9L D   5      27.657  12.138 -40.9990  0.00  0.00     0.000 O
ATOM     83   C  Z9L D   5      30.023  12.653 -42.2250  0.00  0.00     0.000 C
ATOM     84   C  Z9L D   5      30.023  12.653 -42.2250  0.00  0.00     0.000 C
BRANCH 78 85
ATOM     85   O  Z9L D   5      29.716  14.169 -38.4760  0.00  0.00     0.000 O
ATOM     86   O  Z9L D   5      29.591  16.030 -37.9970  0.00  0.00     0.000 OA
ATOM     87   S  Z9L D   5      28.479  15.143 -38.1520  0.00  0.00     0.000 S
ATOM     88   O  Z9L D   5      27.943  14.979 -36.8230  0.00  0.00     0.000 OA
ATOM     89   O  Z9L D   5      27.756  15.641 -39.2700  0.00  0.00     0.000 OA
ENDBRANCH 78 85
BRANCH 79 90
ATOM     90   O  Z9L D   5      28.344  11.758 -36.7620  0.00  0.00     0.000 O
ATOM     91   S  Z9L D   5      29.860  11.425 -36.4070  0.00  0.00     0.000 S
ATOM     92   O  Z9L D   5      30.945  12.304 -36.7570  0.00  0.00     0.000 OA
ATOM     93   O  Z9L D   5      30.042   9.995 -36.3850  0.00  0.00     0.000 O
ATOM     94   O  Z9L D   5      29.404  11.811 -35.1110  0.00  0.00     0.000 OA
ENDBRANCH 79 90
BRANCH 81 95
ATOM     95   C  Z9L D   5      26.452   9.748 -41.0550  0.00  0.00     0.000 C
ATOM     96   S  Z9L D   5      25.300   9.261 -42.6060  0.00  0.00     0.000 S
ATOM     97   O  Z9L D   5      25.869  10.601 -42.0040  0.00  0.00     0.000 O
ATOM     98   O  Z9L D   5      24.270   8.808 -41.7070  0.00  0.00     0.000 OA
ATOM     99   O  Z9L D   5      26.267   8.362 -43.1390  0.00  0.00     0.000 OA
ATOM    100   O  Z9L D   5      24.713  10.188 -43.5420  0.00  0.00     0.000 O
ENDBRANCH 81 95
ENDBRANCH 76 80
ENDBRANCH 60 76
ENDBRANCH 59 63
ENDBRANCH 37 59
ENDBRANCH 36 40
ENDBRANCH 23 36
ENDBRANCH 22 26
ENDBRANCH 1 22
TORSDOF 19
ENDMDL
MODEL 97
REMARK VINA RESULT:      -6.6     32.271     40.166
ROOT
ATOM      1  C1  Z9H D   1      16.457   6.328 -27.1350  0.00  0.00     0.000 C
ATOM      2  C2  Z9H D   1      15.471   5.500 -26.2770  0.00  0.00     0.000 C
ATOM      3  C3  Z9H D   1      14.907   4.586 -27.4070  0.00  0.00     0.000 C
ATOM      4  C4  Z9H D   1      14.408   5.342 -28.7070  0.00  0.00     0.000 C
ATOM      5  C5  Z9H D   1      15.254   6.464 -29.4320  0.00  0.00     0.000 C
ATOM      6  O5  Z9H D   1      15.990   7.032 -28.3200  0.00  0.00     0.000 O
ATOM      7   O  Z9H D   1      13.886   3.714 -26.9170  0.00  0.00     0.000 O
ATOM      8   C  Z9H D   1      14.315   2.377 -26.6080  0.00  0.00     0.000 C
ATOM      9   O  Z9H D   1      14.144   4.320 -29.6740  0.00  0.00     0.000 O
ATOM     10   C  Z9H D   1      12.771   3.942 -29.8140  0.00  0.00     0.000 C
ENDROOT
BRANCH 2 11
ATOM     11   O  Z9H D   1      16.342   4.679 -25.5430  0.00  0.00     0.000 O
ATOM     12   O  Z9H D   1      16.518   4.731 -23.6660  0.00  0.00     0.000 OA
ATOM     13   S  Z9H D   1      15.604   5.524 -24.4180  0.00  0.00     0.000 S
ATOM     14   O  Z9H D   1      14.243   5.076 -24.3370  0.00  0.00     0.000 OA
ATOM     15   O  Z9H D   1      16.025   6.906 -24.4260  0.00  0.00     0.000 O
ENDBRANCH 2 11
BRANCH 5 16
ATOM     16   C  Z9H D   1      14.389   7.431 -30.4890  0.00  0.00     0.000 C
ATOM     17   S  Z9H D   1      12.896   8.770 -30.6230  0.00  0.00     0.000 S
ATOM     18   O  Z9H D   1      14.113   8.487 -29.6010  0.00  0.00     0.000 O
ATOM     19   O  Z9H D   1      11.870   7.768 -30.6290  0.00  0.00     0.000 O
ATOM     20   O  Z9H D   1      13.381   9.396 -31.8030  0.00  0.00     0.000 OA
ATOM     21   O  Z9H D   1      12.635   9.798 -29.6580  0.00  0.00     0.000 OA
ENDBRANCH 5 16
BRANCH 1 22
ATOM     22  O4  GU1 D   2      17.578   5.561 -27.7050  0.00  0.00     0.000 O
BRANCH 22 26
ATOM     23  C1  GU1 D   2      21.629   5.687 -28.4450  0.00  0.00     0.000 C
ATOM     24  C2  GU1 D   2      21.160   6.573 -27.3010  0.00  0.00     0.000 C
ATOM     25  C3  GU1 D   2      19.777   6.159 -26.8860  0.00  0.00     0.000 C
ATOM     26  C4  GU1 D   2      18.836   6.134 -28.0820  0.00  0.00     0.000 C
ATOM     27  C5  GU1 D   2      19.447   5.303 -29.2130  0.00  0.00     0.000 C
ATOM     28  O5  GU1 D   2      20.741   5.796 -29.5510  0.00  0.00     0.000 O
ATOM     29   O  GU1 D   2      22.013   6.473 -26.1670  0.00  0.00     0.000 O
ATOM     30   C  GU1 D   2      22.988   7.502 -26.0890  0.00  0.00     0.000 C
ATOM     31   C  GU1 D   2      19.331   6.680 -24.5790  0.00  0.00     0.000 C
ATOM     32   O  GU1 D   2      19.287   7.111 -25.9370  0.00  0.00     0.000 O
BRANCH 27 33
ATOM     33   C  GU1 D   2      18.591   5.358 -30.4560  0.00  0.00     0.000 C
ATOM     34   O  GU1 D   2      18.049   4.339 -30.8300  0.00  0.00     0.000 OA
ATOM     35   O  GU1 D   2      18.448   6.407 -31.0650  0.00  0.00     0.000 O
ENDBRANCH 27 33
BRANCH 23 36
ATOM     36  O4  GU6 D   3      22.817   6.033 -29.1850  0.00  0.00     0.000 O
BRANCH 36 40
ATOM     37  C1  GU6 D   3      26.704   6.794 -30.1840  0.00  0.00     0.000 C
ATOM     38  C2  GU6 D   3      25.695   7.271 -31.2200  0.00  0.00     0.000 C
ATOM     39  C3  GU6 D   3      24.305   7.194 -30.6440  0.00  0.00     0.000 C
ATOM     40  C4  GU6 D   3      24.137   6.504 -29.3600  0.00  0.00     0.000 C
ATOM     41  C5  GU6 D   3      25.083   5.259 -29.3080  0.00  0.00     0.000 C
ATOM     42  O5  GU6 D   3      26.399   5.452 -29.8390  0.00  0.00     0.000 O
BRANCH 38 43
ATOM     43   O  GU6 D   3      25.979   8.598 -31.6180  0.00  0.00     0.000 O
ATOM     44   S  GU6 D   3      26.432   8.738 -33.0660  0.00  0.00     0.000 S
ATOM     45   O  GU6 D   3      27.867   8.415 -33.1410  0.00  0.00     0.000 OA
ATOM     46   O  GU6 D   3      25.671   7.782 -33.8910  0.00  0.00     0.000 O
ATOM     47   O  GU6 D   3      26.169  10.103 -33.5110  0.00  0.00     0.000 OA
ENDBRANCH 38 43
BRANCH 39 48
ATOM     48   O  GU6 D   3      23.247   7.953 -31.1960  0.00  0.00     0.000 O
ATOM     49   S  GU6 D   3      22.705   9.323 -30.7870  0.00  0.00     0.000 S
ATOM     50   O  GU6 D   3      23.787  10.314 -30.7860  0.00  0.00     0.000 OA
ATOM     51   O  GU6 D   3      21.717   9.616 -31.8350  0.00  0.00     0.000 OA
ATOM     52   O  GU6 D   3      22.111   9.220 -29.4360  0.00  0.00     0.000 O
ENDBRANCH 39 48
BRANCH 41 53
ATOM     53   C  GU6 D   3      24.809   3.884 -28.7620  0.00  0.00     0.000 C
ATOM     54   O  GU6 D   3      26.142   3.467 -28.6180  0.00  0.00     0.000 O
ATOM     55   S  GU6 D   3      26.466   2.032 -28.1810  0.00  0.00     0.000 S
ATOM     56   O  GU6 D   3      26.010   1.140 -29.2720  0.00  0.00     0.000 O
ATOM     57   O  GU6 D   3      27.919   1.917 -27.9890  0.00  0.00     0.000 OA
ATOM     58   O  GU6 D   3      25.714   1.773 -26.9330  0.00  0.00     0.000 OA
ENDBRANCH 41 53
BRANCH 37 59
ATOM     59  O4  Z9K D   4      27.028   7.489 -28.9610  0.00  0.00     0.000 O
BRANCH 59 63
ATOM     60  C1  Z9K D   4      28.561   9.867 -26.2330  0.00  0.00     0.000 C
ATOM     61  C2  Z9K D   4      28.817  10.689 -27.5270  0.00  0.00     0.000 C
ATOM     62  C3  Z9K D   4      28.034   9.813 -28.5990  0.00  0.00     0.000 C
ATOM     63  C4  Z9K D   4      28.216   8.248 -28.5930  0.00  0.00     0.000 C
ATOM     64  C5  Z9K D   4      28.603   7.619 -27.2450  0.00  0.00     0.000 C
ATOM     65  O5  Z9K D   4      27.954   8.492 -26.2840  0.00  0.00     0.000 O
ATOM     66   O  Z9K D   4      28.296  10.210 -29.9570  0.00  0.00     0.000 O
ATOM     67   C  Z9K D   4      27.477  11.269 -30.4270  0.00  0.00     0.000 C
BRANCH 61 68
ATOM     68   O  Z9K D   4      28.103  11.888 -27.4000  0.00  0.00     0.000 O
ATOM     69   O  Z9K D   4      30.267  12.234 -28.7200  0.00  0.00     0.000 OA
ATOM     70   S  Z9K D   4      29.634  12.414 -27.4490  0.00  0.00     0.000 S
ATOM     71   O  Z9K D   4      30.243  12.193 -26.1730  0.00  0.00     0.000 OA
ATOM     72   O  Z9K D   4      28.891  13.632 -27.4170  0.00  0.00     0.000 OA
ENDBRANCH 61 68
BRANCH 64 73
ATOM     73   C  Z9K D   4      28.267   6.113 -27.2260  0.00  0.00     0.000 C
ATOM     74   O  Z9K D   4      28.961   5.278 -27.8760  0.00  0.00     0.000 O
ATOM     75   O  Z9K D   4      27.302   5.659 -26.5630  0.00  0.00     0.000 OA
ENDBRANCH 64 73
BRANCH 60 76
ATOM     76  O4  Z9L D   5      29.487   9.543 -25.1810  0.00  0.00     0.000 O
BRANCH 76 80
ATOM     77  C1  Z9L D   5      29.696   8.656 -21.2900  0.00  0.00     0.000 C
ATOM     78  C2  Z9L D   5      30.347   7.427 -22.0880  0.00  0.00     0.000 C
ATOM     79  C3  Z9L D   5      30.678   7.982 -23.6510  0.00  0.00     0.000 C
ATOM     80  C4  Z9L D   5      29.314   8.847 -23.9740  0.00  0.00     0.000 C
ATOM     81  C5  Z9L D   5      28.513   9.925 -23.0810  0.00  0.00     0.000 C
ATOM     82  O5  Z9L D   5      28.499   9.410 -21.7420  0.00  0.00     0.000 O
ATOM     83   C  Z9L D   5      30.311  10.753 -20.2340  0.00  0.00     0.000 C
ATOM     84   C  Z9L D   5      30.311  10.753 -20.2340  0.00  0.00     0.000 C
BRANCH 78 85
ATOM     85   O  Z9L D   5      31.543   7.090 -21.4610  0.00  0.00     0.000 O
ATOM     86   O  Z9L D   5      31.852   5.472 -20.4620  0.00  0.00     0.000 OA
ATOM     87   S  Z9L D   5      30.669   5.765 -21.2120  0.00  0.00     0.000 S
ATOM     88   O  Z9L D   5      30.688   4.839 -22.3180  0.00  0.00     0.000 OA
ATOM     89   O  Z9L D   5      29.629   5.864 -20.2470  0.00  0.00     0.000 OA
ENDBRANCH 78 85
BRANCH 79 90
ATOM     90   O  Z9L D   5      30.609   6.949 -24.5820  0.00  0.00     0.000 O
ATOM     91   S  Z9L D   5      32.083   7.475 -24.8750  0.00  0.00     0.000 S
ATOM     92   O  Z9L D   5      33.089   7.559 -23.8490  0.00  0.00     0.000 OA
ATOM     93   O  Z9L D   5      32.044   8.428 -25.9560  0.00  0.00     0.000 O
ATOM     94   O  Z9L D   5      32.185   6.177 -25.4610  0.00  0.00     0.000 OA
ENDBRANCH 79 90
BRANCH 81 95
ATOM     95   C  Z9L D   5      27.088  10.542 -23.7150  0.00  0.00     0.000 C
ATOM     96   S  Z9L D   5      25.100  10.434 -23.6540  0.00  0.00     0.000 S
ATOM     97   O  Z9L D   5      26.286   9.405 -23.5360  0.00  0.00     0.000 O
ATOM     98   O  Z9L D   5      25.029  10.827 -25.0380  0.00  0.00     0.000 OA
ATOM     99   O  Z9L D   5      25.004  11.393 -22.6050  0.00  0.00     0.000 OA
ATOM    100   O  Z9L D   5      24.327   9.228 -23.4830  0.00  0.00     0.000 O
ENDBRANCH 81 95
ENDBRANCH 76 80
ENDBRANCH 60 76
ENDBRANCH 59 63
ENDBRANCH 37 59
ENDBRANCH 36 40
ENDBRANCH 23 36
ENDBRANCH 22 26
ENDBRANCH 1 22
TORSDOF 19
ENDMDL
MODEL 98
REMARK VINA RESULT:      -6.5     33.701     42.898
ROOT
ATOM      1  C1  Z9H D   1      -2.662  20.469  -7.1860  0.00  0.00     0.000 C
ATOM      2  C2  Z9H D   1      -2.947  19.826  -5.8070  0.00  0.00     0.000 C
ATOM      3  C3  Z9H D   1      -4.302  20.538  -5.5070  0.00  0.00     0.000 C
ATOM      4  C4  Z9H D   1      -4.295  22.113  -5.6790  0.00  0.00     0.000 C
ATOM      5  C5  Z9H D   1      -3.688  22.841  -6.9450  0.00  0.00     0.000 C
ATOM      6  O5  Z9H D   1      -2.643  21.915  -7.3350  0.00  0.00     0.000 O
ATOM      7   O  Z9H D   1      -4.810  20.182  -4.2200  0.00  0.00     0.000 O
ATOM      8   C  Z9H D   1      -5.814  19.154  -4.2170  0.00  0.00     0.000 C
ATOM      9   O  Z9H D   1      -5.662  22.523  -5.5720  0.00  0.00     0.000 O
ATOM     10   C  Z9H D   1      -6.055  23.033  -4.2940  0.00  0.00     0.000 C
ENDROOT
BRANCH 2 11
ATOM     11   O  Z9H D   1      -3.295  18.514  -6.1630  0.00  0.00     0.000 O
ATOM     12   O  Z9H D   1      -2.270  16.991  -5.7290  0.00  0.00     0.000 OA
ATOM     13   S  Z9H D   1      -1.954  18.323  -5.3330  0.00  0.00     0.000 S
ATOM     14   O  Z9H D   1      -2.234  18.600  -3.9530  0.00  0.00     0.000 OA
ATOM     15   O  Z9H D   1      -0.803  18.805  -6.0610  0.00  0.00     0.000 O
ENDBRANCH 2 11
BRANCH 5 16
ATOM     16   C  Z9H D   1      -3.375  24.473  -6.7410  0.00  0.00     0.000 C
ATOM     17   S  Z9H D   1      -3.148  26.221  -7.7070  0.00  0.00     0.000 S
ATOM     18   O  Z9H D   1      -4.137  24.951  -7.8240  0.00  0.00     0.000 O
ATOM     19   O  Z9H D   1      -1.783  25.957  -8.0620  0.00  0.00     0.000 O
ATOM     20   O  Z9H D   1      -3.523  27.034  -6.6030  0.00  0.00     0.000 OA
ATOM     21   O  Z9H D   1      -3.926  26.633  -8.8380  0.00  0.00     0.000 OA
ENDBRANCH 5 16
BRANCH 1 22
ATOM     22  O4  GU1 D   2      -3.615  20.103  -8.2480  0.00  0.00     0.000 O
BRANCH 22 26
ATOM     23  C1  GU1 D   2      -4.053  19.151 -12.2320  0.00  0.00     0.000 C
ATOM     24  C2  GU1 D   2      -2.819  18.562 -11.5660  0.00  0.00     0.000 C
ATOM     25  C3  GU1 D   2      -2.970  18.650 -10.0750  0.00  0.00     0.000 C
ATOM     26  C4  GU1 D   2      -3.292  20.073  -9.6430  0.00  0.00     0.000 C
ATOM     27  C5  GU1 D   2      -4.481  20.608 -10.4460  0.00  0.00     0.000 C
ATOM     28  O5  GU1 D   2      -4.224  20.510 -11.8440  0.00  0.00     0.000 O
ATOM     29   O  GU1 D   2      -2.628  17.196 -11.9140  0.00  0.00     0.000 O
ATOM     30   C  GU1 D   2      -1.708  16.997 -12.9770  0.00  0.00     0.000 C
ATOM     31   C  GU1 D   2      -1.720  16.936  -8.9370  0.00  0.00     0.000 C
ATOM     32   O  GU1 D   2      -1.733  18.258  -9.4720  0.00  0.00     0.000 O
BRANCH 27 33
ATOM     33   C  GU1 D   2      -4.748  22.060 -10.1260  0.00  0.00     0.000 C
ATOM     34   O  GU1 D   2      -5.806  22.352  -9.6070  0.00  0.00     0.000 OA
ATOM     35   O  GU1 D   2      -3.915  22.915 -10.3820  0.00  0.00     0.000 O
ENDBRANCH 27 33
BRANCH 23 36
ATOM     36  O4  GU6 D   3      -4.052  19.410 -13.6500  0.00  0.00     0.000 O
BRANCH 36 40
ATOM     37  C1  GU6 D   3      -5.685  21.621 -16.6740  0.00  0.00     0.000 C
ATOM     38  C2  GU6 D   3      -4.890  22.443 -15.6660  0.00  0.00     0.000 C
ATOM     39  C3  GU6 D   3      -4.114  21.520 -14.7630  0.00  0.00     0.000 C
ATOM     40  C4  GU6 D   3      -4.407  20.085 -14.8400  0.00  0.00     0.000 C
ATOM     41  C5  GU6 D   3      -5.944  19.876 -15.0490  0.00  0.00     0.000 C
ATOM     42  O5  GU6 D   3      -6.578  20.776 -15.9640  0.00  0.00     0.000 O
BRANCH 38 43
ATOM     43   O  GU6 D   3      -4.006  23.325 -16.3310  0.00  0.00     0.000 O
ATOM     44   S  GU6 D   3      -4.251  24.799 -16.0380  0.00  0.00     0.000 S
ATOM     45   O  GU6 D   3      -5.353  25.270 -16.8950  0.00  0.00     0.000 OA
ATOM     46   O  GU6 D   3      -4.636  24.941 -14.6230  0.00  0.00     0.000 O
ATOM     47   O  GU6 D   3      -3.021  25.541 -16.2990  0.00  0.00     0.000 OA
ENDBRANCH 38 43
BRANCH 39 48
ATOM     48   O  GU6 D   3      -2.989  21.986 -14.0420  0.00  0.00     0.000 O
ATOM     49   S  GU6 D   3      -1.500  21.739 -14.2810  0.00  0.00     0.000 S
ATOM     50   O  GU6 D   3      -1.135  22.129 -15.6480  0.00  0.00     0.000 OA
ATOM     51   O  GU6 D   3      -0.855  22.610 -13.2890  0.00  0.00     0.000 OA
ATOM     52   O  GU6 D   3      -1.213  20.302 -14.0710  0.00  0.00     0.000 O
ENDBRANCH 39 48
BRANCH 41 53
ATOM     53   C  GU6 D   3      -6.852  18.847 -14.4310  0.00  0.00     0.000 C
ATOM     54   O  GU6 D   3      -6.493  17.762 -15.2460  0.00  0.00     0.000 O
ATOM     55   S  GU6 D   3      -7.226  16.419 -15.1220  0.00  0.00     0.000 S
ATOM     56   O  GU6 D   3      -8.621  16.651 -15.5630  0.00  0.00     0.000 O
ATOM     57   O  GU6 D   3      -6.561  15.440 -15.9940  0.00  0.00     0.000 OA
ATOM     58   O  GU6 D   3      -7.178  16.023 -13.6970  0.00  0.00     0.000 OA
ENDBRANCH 41 53
BRANCH 37 59
ATOM     59  O4  Z9K D   4      -5.111  20.839 -17.7420  0.00  0.00     0.000 O
BRANCH 59 63
ATOM     60  C1  Z9K D   4      -5.489  22.537 -21.2660  0.00  0.00     0.000 C
ATOM     61  C2  Z9K D   4      -6.932  22.012 -21.0290  0.00  0.00     0.000 C
ATOM     62  C3  Z9K D   4      -6.821  21.492 -19.5310  0.00  0.00     0.000 C
ATOM     63  C4  Z9K D   4      -5.572  20.628 -19.1080  0.00  0.00     0.000 C
ATOM     64  C5  Z9K D   4      -4.290  20.851 -19.9250  0.00  0.00     0.000 C
ATOM     65  O5  Z9K D   4      -4.380  22.253 -20.2900  0.00  0.00     0.000 O
ATOM     66   O  Z9K D   4      -7.961  20.723 -19.1090  0.00  0.00     0.000 O
ATOM     67   C  Z9K D   4      -9.041  21.498 -18.6150  0.00  0.00     0.000 C
BRANCH 61 68
ATOM     68   O  Z9K D   4      -7.776  23.130 -20.9960  0.00  0.00     0.000 O
ATOM     69   O  Z9K D   4      -8.957  21.109 -22.0280  0.00  0.00     0.000 OA
ATOM     70   S  Z9K D   4      -8.304  22.351 -22.3130  0.00  0.00     0.000 S
ATOM     71   O  Z9K D   4      -7.395  22.589 -23.3920  0.00  0.00     0.000 OA
ATOM     72   O  Z9K D   4      -9.219  23.442 -22.2140  0.00  0.00     0.000 OA
ENDBRANCH 61 68
BRANCH 64 73
ATOM     73   C  Z9K D   4      -3.050  20.365 -19.1450  0.00  0.00     0.000 C
ATOM     74   O  Z9K D   4      -2.792  19.132 -19.0250  0.00  0.00     0.000 O
ATOM     75   O  Z9K D   4      -2.250  21.170 -18.6080  0.00  0.00     0.000 OA
ENDBRANCH 64 73
BRANCH 60 76
ATOM     76  O4  Z9L D   5      -4.659  22.379 -22.4300  0.00  0.00     0.000 O
BRANCH 76 80
ATOM     77  C1  Z9L D   5      -1.820  24.189 -24.5820  0.00  0.00     0.000 C
ATOM     78  C2  Z9L D   5      -1.219  22.781 -24.1010  0.00  0.00     0.000 C
ATOM     79  C3  Z9L D   5      -2.532  21.838 -23.6040  0.00  0.00     0.000 C
ATOM     80  C4  Z9L D   5      -3.421  22.947 -22.7720  0.00  0.00     0.000 C
ATOM     81  C5  Z9L D   5      -3.841  24.458 -23.1470  0.00  0.00     0.000 C
ATOM     82  O5  Z9L D   5      -2.686  25.061 -23.7480  0.00  0.00     0.000 O
ATOM     83   C  Z9L D   5      -3.024  25.188 -26.4370  0.00  0.00     0.000 C
ATOM     84   C  Z9L D   5      -3.024  25.188 -26.4370  0.00  0.00     0.000 C
BRANCH 78 85
ATOM     85   O  Z9L D   5      -0.610  22.175 -25.1960  0.00  0.00     0.000 O
ATOM     86   O  Z9L D   5       1.278  21.833 -25.3620  0.00  0.00     0.000 OA
ATOM     87   S  Z9L D   5       0.633  22.340 -24.1900  0.00  0.00     0.000 S
ATOM     88   O  Z9L D   5       0.738  21.280 -23.2180  0.00  0.00     0.000 OA
ATOM     89   O  Z9L D   5       1.142  23.658 -24.0220  0.00  0.00     0.000 OA
ENDBRANCH 78 85
BRANCH 79 90
ATOM     90   O  Z9L D   5      -2.162  20.938 -22.6090  0.00  0.00     0.000 O
ATOM     91   S  Z9L D   5      -2.743  19.919 -23.6870  0.00  0.00     0.000 S
ATOM     92   O  Z9L D   5      -2.250  19.863 -25.0380  0.00  0.00     0.000 OA
ATOM     93   O  Z9L D   5      -4.128  19.650 -23.3910  0.00  0.00     0.000 O
ATOM     94   O  Z9L D   5      -1.962  19.009 -22.9140  0.00  0.00     0.000 OA
ENDBRANCH 79 90
BRANCH 81 95
ATOM     95   C  Z9L D   5      -4.688  25.330 -21.9910  0.00  0.00     0.000 C
ATOM     96   S  Z9L D   5      -5.273  27.150 -21.4340  0.00  0.00     0.000 S
ATOM     97   O  Z9L D   5      -3.988  26.540 -22.1090  0.00  0.00     0.000 O
ATOM     98   O  Z9L D   5      -5.250  26.743 -20.0530  0.00  0.00     0.000 OA
ATOM     99   O  Z9L D   5      -6.468  27.085 -22.2060  0.00  0.00     0.000 OA
ATOM    100   O  Z9L D   5      -4.500  28.360 -21.5660  0.00  0.00     0.000 O
ENDBRANCH 81 95
ENDBRANCH 76 80
ENDBRANCH 60 76
ENDBRANCH 59 63
ENDBRANCH 37 59
ENDBRANCH 36 40
ENDBRANCH 23 36
ENDBRANCH 22 26
ENDBRANCH 1 22
TORSDOF 19
ENDMDL
MODEL 99
REMARK VINA RESULT:      -6.5     40.163     49.172
ROOT
ATOM      1  C1  Z9H D   1      16.748   4.941  -7.8330  0.00  0.00     0.000 C
ATOM      2  C2  Z9H D   1      17.440   4.002  -6.8160  0.00  0.00     0.000 C
ATOM      3  C3  Z9H D   1      18.071   5.094  -5.8990  0.00  0.00     0.000 C
ATOM      4  C4  Z9H D   1      18.894   6.220  -6.6520  0.00  0.00     0.000 C
ATOM      5  C5  Z9H D   1      18.354   6.978  -7.9290  0.00  0.00     0.000 C
ATOM      6  O5  Z9H D   1      17.512   5.962  -8.5310  0.00  0.00     0.000 O
ATOM      7   O  Z9H D   1      18.858   4.516  -4.8560  0.00  0.00     0.000 O
ATOM      8   C  Z9H D   1      18.203   4.401  -3.5820  0.00  0.00     0.000 C
ATOM      9   O  Z9H D   1      19.188   7.213  -5.6640  0.00  0.00     0.000 O
ATOM     10   C  Z9H D   1      20.499   7.149  -5.0950  0.00  0.00     0.000 C
ENDROOT
BRANCH 2 11
ATOM     11   O  Z9H D   1      16.347   3.502  -6.0900  0.00  0.00     0.000 O
ATOM     12   O  Z9H D   1      15.848   1.683  -6.0460  0.00  0.00     0.000 OA
ATOM     13   S  Z9H D   1      16.981   2.197  -6.7390  0.00  0.00     0.000 S
ATOM     14   O  Z9H D   1      18.231   1.930  -6.0860  0.00  0.00     0.000 OA
ATOM     15   O  Z9H D   1      16.763   2.151  -8.1660  0.00  0.00     0.000 O
ENDBRANCH 2 11
BRANCH 5 16
ATOM     16   C  Z9H D   1      19.519   7.784  -8.8200  0.00  0.00     0.000 C
ATOM     17   S  Z9H D   1      21.246   7.561  -9.8250  0.00  0.00     0.000 S
ATOM     18   O  Z9H D   1      19.873   6.724  -9.6760  0.00  0.00     0.000 O
ATOM     19   O  Z9H D   1      22.052   7.612  -8.6400  0.00  0.00     0.000 O
ATOM     20   O  Z9H D   1      21.048   8.678 -10.6820  0.00  0.00     0.000 OA
ATOM     21   O  Z9H D   1      21.570   6.432 -10.6470  0.00  0.00     0.000 OA
ENDBRANCH 5 16
BRANCH 1 22
ATOM     22  O4  GU1 D   2      15.654   5.757  -7.2770  0.00  0.00     0.000 O
BRANCH 22 26
ATOM     23  C1  GU1 D   2      11.819   7.105  -7.9440  0.00  0.00     0.000 C
ATOM     24  C2  GU1 D   2      12.135   5.747  -8.5530  0.00  0.00     0.000 C
ATOM     25  C3  GU1 D   2      13.390   5.204  -7.9330  0.00  0.00     0.000 C
ATOM     26  C4  GU1 D   2      14.526   6.212  -8.0340  0.00  0.00     0.000 C
ATOM     27  C5  GU1 D   2      14.072   7.570  -7.4910  0.00  0.00     0.000 C
ATOM     28  O5  GU1 D   2      12.896   8.009  -8.1660  0.00  0.00     0.000 O
ATOM     29   O  GU1 D   2      11.088   4.809  -8.3320  0.00  0.00     0.000 O
ATOM     30   C  GU1 D   2      10.186   4.687  -9.4220  0.00  0.00     0.000 C
ATOM     31   C  GU1 D   2      13.451   2.798  -7.9720  0.00  0.00     0.000 C
ATOM     32   O  GU1 D   2      13.766   4.018  -8.6400  0.00  0.00     0.000 O
BRANCH 27 33
ATOM     33   C  GU1 D   2      15.138   8.621  -7.6890  0.00  0.00     0.000 C
ATOM     34   O  GU1 D   2      15.708   9.057  -6.7100  0.00  0.00     0.000 OA
ATOM     35   O  GU1 D   2      15.419   9.018  -8.8090  0.00  0.00     0.000 O
ENDBRANCH 27 33
BRANCH 23 36
ATOM     36  O4  GU6 D   3      10.809   7.944  -8.5380  0.00  0.00     0.000 O
BRANCH 36 40
ATOM     37  C1  GU6 D   3       7.243   9.446  -9.8500  0.00  0.00     0.000 C
ATOM     38  C2  GU6 D   3       8.460  10.063 -10.5270  0.00  0.00     0.000 C
ATOM     39  C3  GU6 D   3       9.689   9.263 -10.1810  0.00  0.00     0.000 C
ATOM     40  C4  GU6 D   3       9.564   8.238  -9.1400  0.00  0.00     0.000 C
ATOM     41  C5  GU6 D   3       8.615   8.754  -8.0090  0.00  0.00     0.000 C
ATOM     42  O5  GU6 D   3       7.449   9.462  -8.4460  0.00  0.00     0.000 O
BRANCH 38 43
ATOM     43   O  GU6 D   3       8.285  10.097 -11.9310  0.00  0.00     0.000 O
ATOM     44   S  GU6 D   3       8.277  11.497 -12.5300  0.00  0.00     0.000 S
ATOM     45   O  GU6 D   3       6.932  12.073 -12.3560  0.00  0.00     0.000 OA
ATOM     46   O  GU6 D   3       9.261  12.324 -11.8090  0.00  0.00     0.000 O
ATOM     47   O  GU6 D   3       8.638  11.406 -13.9410  0.00  0.00     0.000 OA
ENDBRANCH 38 43
BRANCH 39 48
ATOM     48   O  GU6 D   3      10.852   9.334 -10.9850  0.00  0.00     0.000 O
ATOM     49   S  GU6 D   3      11.309   8.431 -12.1290  0.00  0.00     0.000 S
ATOM     50   O  GU6 D   3      10.266   8.351 -13.1580  0.00  0.00     0.000 OA
ATOM     51   O  GU6 D   3      12.504   9.118 -12.6380  0.00  0.00     0.000 OA
ATOM     52   O  GU6 D   3      11.596   7.083 -11.5910  0.00  0.00     0.000 O
ENDBRANCH 39 48
BRANCH 41 53
ATOM     53   C  GU6 D   3       8.746   8.599  -6.5180  0.00  0.00     0.000 C
ATOM     54   O  GU6 D   3       8.071   9.772  -6.1440  0.00  0.00     0.000 O
ATOM     55   S  GU6 D   3       7.999  10.192  -4.6690  0.00  0.00     0.000 S
ATOM     56   O  GU6 D   3       9.381  10.520  -4.2500  0.00  0.00     0.000 O
ATOM     57   O  GU6 D   3       7.129  11.372  -4.5610  0.00  0.00     0.000 OA
ATOM     58   O  GU6 D   3       7.472   9.036  -3.9090  0.00  0.00     0.000 OA
ENDBRANCH 41 53
BRANCH 37 59
ATOM     59  O4  Z9K D   4       6.668   8.165 -10.1850  0.00  0.00     0.000 O
BRANCH 59 63
ATOM     60  C1  Z9K D   4       4.621   8.217 -13.5400  0.00  0.00     0.000 C
ATOM     61  C2  Z9K D   4       3.637   8.935 -12.5750  0.00  0.00     0.000 C
ATOM     62  C3  Z9K D   4       4.539   9.076 -11.2740  0.00  0.00     0.000 C
ATOM     63  C4  Z9K D   4       5.382   7.836 -10.7860  0.00  0.00     0.000 C
ATOM     64  C5  Z9K D   4       5.774   6.819 -11.8680  0.00  0.00     0.000 C
ATOM     65  O5  Z9K D   4       5.924   7.648 -13.0500  0.00  0.00     0.000 O
ATOM     66   O  Z9K D   4       3.802   9.502 -10.1140  0.00  0.00     0.000 O
ATOM     67   C  Z9K D   4       3.655  10.908  -9.9970  0.00  0.00     0.000 C
BRANCH 61 68
ATOM     68   O  Z9K D   4       3.452  10.234 -13.0690  0.00  0.00     0.000 O
ATOM     69   O  Z9K D   4       1.333   9.367 -11.9260  0.00  0.00     0.000 OA
ATOM     70   S  Z9K D   4       1.960   9.614 -13.1890  0.00  0.00     0.000 S
ATOM     71   O  Z9K D   4       1.902   8.757 -14.3330  0.00  0.00     0.000 OA
ATOM     72   O  Z9K D   4       1.765  10.968 -13.5990  0.00  0.00     0.000 OA
ENDBRANCH 61 68
BRANCH 64 73
ATOM     73   C  Z9K D   4       6.971   5.961 -11.4060  0.00  0.00     0.000 C
ATOM     74   O  Z9K D   4       6.826   5.039 -10.5510  0.00  0.00     0.000 O
ATOM     75   O  Z9K D   4       8.127   6.138 -11.8630  0.00  0.00     0.000 OA
ENDBRANCH 64 73
BRANCH 60 76
ATOM     76  O4  Z9L D   5       4.354   7.130 -14.4430  0.00  0.00     0.000 O
BRANCH 76 80
ATOM     77  C1  Z9L D   5       4.991   5.715 -18.1260  0.00  0.00     0.000 C
ATOM     78  C2  Z9L D   5       5.738   4.727 -17.1070  0.00  0.00     0.000 C
ATOM     79  C3  Z9L D   5       5.103   5.041 -15.5720  0.00  0.00     0.000 C
ATOM     80  C4  Z9L D   5       5.035   6.687 -15.5890  0.00  0.00     0.000 C
ATOM     81  C5  Z9L D   5       4.493   7.708 -16.7130  0.00  0.00     0.000 C
ATOM     82  O5  Z9L D   5       4.937   7.191 -17.9760  0.00  0.00     0.000 O
ATOM     83   C  Z9L D   5       2.858   6.000 -19.2500  0.00  0.00     0.000 C
ATOM     84   C  Z9L D   5       2.858   6.000 -19.2500  0.00  0.00     0.000 C
BRANCH 78 85
ATOM     85   O  Z9L D   5       5.430   3.419 -17.4700  0.00  0.00     0.000 O
ATOM     86   O  Z9L D   5       6.675   2.156 -18.2200  0.00  0.00     0.000 OA
ATOM     87   S  Z9L D   5       7.015   3.457 -17.7310  0.00  0.00     0.000 S
ATOM     88   O  Z9L D   5       7.805   3.217 -16.5480  0.00  0.00     0.000 OA
ATOM     89   O  Z9L D   5       7.452   4.184 -18.8730  0.00  0.00     0.000 OA
ENDBRANCH 78 85
BRANCH 79 90
ATOM     90   O  Z9L D   5       6.040   4.787 -14.5740  0.00  0.00     0.000 O
ATOM     91   S  Z9L D   5       4.895   3.775 -14.1280  0.00  0.00     0.000 S
ATOM     92   O  Z9L D   5       4.374   2.764 -15.0100  0.00  0.00     0.000 OA
ATOM     93   O  Z9L D   5       4.050   4.412 -13.1480  0.00  0.00     0.000 O
ATOM     94   O  Z9L D   5       5.993   3.197 -13.4240  0.00  0.00     0.000 OA
ENDBRANCH 79 90
BRANCH 81 95
ATOM     95   C  Z9L D   5       4.673   9.349 -16.4130  0.00  0.00     0.000 C
ATOM     96   S  Z9L D   5       5.772  10.963 -16.8040  0.00  0.00     0.000 S
ATOM     97   O  Z9L D   5       6.061   9.429 -16.5930  0.00  0.00     0.000 O
ATOM     98   O  Z9L D   5       5.449  11.506 -15.5100  0.00  0.00     0.000 OA
ATOM     99   O  Z9L D   5       5.008  11.296 -17.9590  0.00  0.00     0.000 OA
ATOM    100   O  Z9L D   5       7.205  10.986 -16.9640  0.00  0.00     0.000 O
ENDBRANCH 81 95
ENDBRANCH 76 80
ENDBRANCH 60 76
ENDBRANCH 59 63
ENDBRANCH 37 59
ENDBRANCH 36 40
ENDBRANCH 23 36
ENDBRANCH 22 26
ENDBRANCH 1 22
TORSDOF 19
ENDMDL
MODEL 100
REMARK VINA RESULT:      -6.5     37.252     44.302
ROOT
ATOM      1  C1  Z9H D   1      23.967   7.453 -29.9330  0.00  0.00     0.000 C
ATOM      2  C2  Z9H D   1      22.914   7.778 -31.0190  0.00  0.00     0.000 C
ATOM      3  C3  Z9H D   1      21.836   8.426 -30.0970  0.00  0.00     0.000 C
ATOM      4  C4  Z9H D   1      21.442   7.583 -28.8150  0.00  0.00     0.000 C
ATOM      5  C5  Z9H D   1      22.509   6.929 -27.8490  0.00  0.00     0.000 C
ATOM      6  O5  Z9H D   1      23.602   6.666 -28.7650  0.00  0.00     0.000 O
ATOM      7   O  Z9H D   1      20.666   8.791 -30.8310  0.00  0.00     0.000 O
ATOM      8   C  Z9H D   1      20.585  10.174 -31.2150  0.00  0.00     0.000 C
ATOM      9   O  Z9H D   1      20.624   8.446 -28.0180  0.00  0.00     0.000 O
ATOM     10   C  Z9H D   1      19.213   8.240 -28.1340  0.00  0.00     0.000 C
ENDROOT
BRANCH 2 11
ATOM     11   O  Z9H D   1      23.513   8.852 -31.6940  0.00  0.00     0.000 O
ATOM     12   O  Z9H D   1      24.076   8.792 -33.4930  0.00  0.00     0.000 OA
ATOM     13   S  Z9H D   1      23.424   7.726 -32.8100  0.00  0.00     0.000 S
ATOM     14   O  Z9H D   1      22.046   7.560 -33.1750  0.00  0.00     0.000 OA
ATOM     15   O  Z9H D   1      24.352   6.648 -32.5560  0.00  0.00     0.000 O
ENDBRANCH 2 11
BRANCH 5 16
ATOM     16   C  Z9H D   1      21.913   5.735 -26.8390  0.00  0.00     0.000 C
ATOM     17   S  Z9H D   1      20.274   4.676 -26.3580  0.00  0.00     0.000 S
ATOM     18   O  Z9H D   1      20.963   5.192 -27.7240  0.00  0.00     0.000 O
ATOM     19   O  Z9H D   1      19.732   5.712 -25.5270  0.00  0.00     0.000 O
ATOM     20   O  Z9H D   1      20.983   3.556 -25.8440  0.00  0.00     0.000 OA
ATOM     21   O  Z9H D   1      19.313   4.189 -27.3030  0.00  0.00     0.000 OA
ENDBRANCH 5 16
BRANCH 1 22
ATOM     22  O4  GU1 D   2      24.570   8.630 -29.2840  0.00  0.00     0.000 O
BRANCH 22 26
ATOM     23  C1  GU1 D   2      28.065  10.217 -27.7880  0.00  0.00     0.000 C
ATOM     24  C2  GU1 D   2      28.243   9.291 -28.9820  0.00  0.00     0.000 C
ATOM     25  C3  GU1 D   2      26.918   9.093 -29.6590  0.00  0.00     0.000 C
ATOM     26  C4  GU1 D   2      25.862   8.633 -28.6640  0.00  0.00     0.000 C
ATOM     27  C5  GU1 D   2      25.836   9.572 -27.4550  0.00  0.00     0.000 C
ATOM     28  O5  GU1 D   2      27.131   9.665 -26.8680  0.00  0.00     0.000 O
ATOM     29   O  GU1 D   2      29.155   9.821 -29.9360  0.00  0.00     0.000 O
ATOM     30   C  GU1 D   2      30.478   9.320 -29.8060  0.00  0.00     0.000 C
ATOM     31   C  GU1 D   2      27.165   8.579 -31.9970  0.00  0.00     0.000 C
ATOM     32   O  GU1 D   2      27.070   8.085 -30.6630  0.00  0.00     0.000 O
BRANCH 27 33
ATOM     33   C  GU1 D   2      24.882   9.074 -26.3950  0.00  0.00     0.000 C
ATOM     34   O  GU1 D   2      25.122   8.013 -25.8560  0.00  0.00     0.000 OA
ATOM     35   O  GU1 D   2      23.897   9.727 -26.0890  0.00  0.00     0.000 O
ENDBRANCH 27 33
BRANCH 23 36
ATOM     36  O4  GU6 D   3      29.131  10.371 -26.8300  0.00  0.00     0.000 O
BRANCH 36 40
ATOM     37  C1  GU6 D   3      31.509  10.193 -23.5120  0.00  0.00     0.000 C
ATOM     38  C2  GU6 D   3      31.617  11.504 -24.2810  0.00  0.00     0.000 C
ATOM     39  C3  GU6 D   3      30.519  11.578 -25.3100  0.00  0.00     0.000 C
ATOM     40  C4  GU6 D   3      29.726  10.367 -25.5480  0.00  0.00     0.000 C
ATOM     41  C5  GU6 D   3      30.656   9.110 -25.4760  0.00  0.00     0.000 C
ATOM     42  O5  GU6 D   3      31.636   9.118 -24.4310  0.00  0.00     0.000 O
BRANCH 38 43
ATOM     43   O  GU6 D   3      31.527  12.606 -23.3990  0.00  0.00     0.000 O
ATOM     44   S  GU6 D   3      32.781  13.469 -23.3400  0.00  0.00     0.000 S
ATOM     45   O  GU6 D   3      33.747  12.830 -22.4310  0.00  0.00     0.000 OA
ATOM     46   O  GU6 D   3      33.361  13.549 -24.6930  0.00  0.00     0.000 O
ATOM     47   O  GU6 D   3      32.413  14.802 -22.8740  0.00  0.00     0.000 OA
ENDBRANCH 38 43
BRANCH 39 48
ATOM     48   O  GU6 D   3      30.116  12.820 -25.8540  0.00  0.00     0.000 O
ATOM     49   S  GU6 D   3      28.935  13.716 -25.4810  0.00  0.00     0.000 S
ATOM     50   O  GU6 D   3      28.978  14.040 -24.0500  0.00  0.00     0.000 OA
ATOM     51   O  GU6 D   3      29.155  14.914 -26.3040  0.00  0.00     0.000 OA
ATOM     52   O  GU6 D   3      27.676  13.009 -25.8030  0.00  0.00     0.000 O
ENDBRANCH 39 48
BRANCH 41 53
ATOM     53   C  GU6 D   3      30.657   7.881 -26.3430  0.00  0.00     0.000 C
ATOM     54   O  GU6 D   3      29.385   7.400 -25.9940  0.00  0.00     0.000 O
ATOM     55   S  GU6 D   3      28.890   6.048 -26.5260  0.00  0.00     0.000 S
ATOM     56   O  GU6 D   3      29.757   5.009 -25.9240  0.00  0.00     0.000 O
ATOM     57   O  GU6 D   3      27.492   5.864 -26.1110  0.00  0.00     0.000 OA
ATOM     58   O  GU6 D   3      29.037   6.076 -27.9990  0.00  0.00     0.000 OA
ENDBRANCH 41 53
BRANCH 37 59
ATOM     59  O4  Z9K D   4      30.445   9.853 -22.5980  0.00  0.00     0.000 O
BRANCH 59 63
ATOM     60  C1  Z9K D   4      31.553  11.138 -19.0530  0.00  0.00     0.000 C
ATOM     61  C2  Z9K D   4      32.235   9.743 -19.0940  0.00  0.00     0.000 C
ATOM     62  C3  Z9K D   4      31.940   9.307 -20.5950  0.00  0.00     0.000 C
ATOM     63  C4  Z9K D   4      30.491   9.511 -21.1820  0.00  0.00     0.000 C
ATOM     64  C5  Z9K D   4      29.657  10.633 -20.5460  0.00  0.00     0.000 C
ATOM     65  O5  Z9K D   4      30.663  11.610 -20.1700  0.00  0.00     0.000 O
ATOM     66   O  Z9K D   4      32.255   7.928 -20.8590  0.00  0.00     0.000 O
ATOM     67   C  Z9K D   4      33.610   7.692 -21.2020  0.00  0.00     0.000 C
BRANCH 61 68
ATOM     68   O  Z9K D   4      33.617   9.958 -19.0120  0.00  0.00     0.000 O
ATOM     69   O  Z9K D   4      32.953   7.763 -17.8760  0.00  0.00     0.000 OA
ATOM     70   S  Z9K D   4      33.326   9.128 -17.6520  0.00  0.00     0.000 S
ATOM     71   O  Z9K D   4      32.743  10.006 -16.6850  0.00  0.00     0.000 OA
ATOM     72   O  Z9K D   4      34.746   9.270 -17.6270  0.00  0.00     0.000 OA
ENDBRANCH 61 68
BRANCH 64 73
ATOM     73   C  Z9K D   4      28.514  11.069 -21.4870  0.00  0.00     0.000 C
ATOM     74   O  Z9K D   4      27.685  10.229 -21.9440  0.00  0.00     0.000 O
ATOM     75   O  Z9K D   4      28.360  12.267 -21.8290  0.00  0.00     0.000 OA
ENDBRANCH 64 73
BRANCH 60 76
ATOM     76  O4  Z9L D   5      30.740  11.706 -18.0120  0.00  0.00     0.000 O
BRANCH 76 80
ATOM     77  C1  Z9L D   5      29.970  15.010 -15.9000  0.00  0.00     0.000 C
ATOM     78  C2  Z9L D   5      28.679  14.720 -16.8060  0.00  0.00     0.000 C
ATOM     79  C3  Z9L D   5      28.805  13.119 -17.3330  0.00  0.00     0.000 C
ATOM     80  C4  Z9L D   5      30.405  13.038 -17.7180  0.00  0.00     0.000 C
ATOM     81  C5  Z9L D   5      31.710  13.538 -16.9120  0.00  0.00     0.000 C
ATOM     82  O5  Z9L D   5      31.372  14.814 -16.3490  0.00  0.00     0.000 O
ATOM     83   C  Z9L D   5      30.872  14.532 -13.6970  0.00  0.00     0.000 C
ATOM     84   C  Z9L D   5      30.872  14.532 -13.6970  0.00  0.00     0.000 C
BRANCH 78 85
ATOM     85   O  Z9L D   5      27.550  14.848 -16.0020  0.00  0.00     0.000 O
ATOM     86   O  Z9L D   5      26.177  16.180 -16.2260  0.00  0.00     0.000 OA
ATOM     87   S  Z9L D   5      27.272  15.966 -17.1220  0.00  0.00     0.000 S
ATOM     88   O  Z9L D   5      26.673  15.446 -18.3260  0.00  0.00     0.000 OA
ATOM     89   O  Z9L D   5      28.056  17.150 -17.0440  0.00  0.00     0.000 OA
ENDBRANCH 78 85
BRANCH 79 90
ATOM     90   O  Z9L D   5      28.188  12.941 -18.5690  0.00  0.00     0.000 O
ATOM     91   S  Z9L D   5      27.341  11.913 -17.6970  0.00  0.00     0.000 S
ATOM     92   O  Z9L D   5      26.640  12.308 -16.5030  0.00  0.00     0.000 OA
ATOM     93   O  Z9L D   5      27.918  10.597 -17.8160  0.00  0.00     0.000 O
ATOM     94   O  Z9L D   5      26.439  12.078 -18.7910  0.00  0.00     0.000 OA
ENDBRANCH 79 90
BRANCH 81 95
ATOM     95   C  Z9L D   5      33.195  13.367 -17.6720  0.00  0.00     0.000 C
ATOM     96   S  Z9L D   5      34.543  14.269 -18.8280  0.00  0.00     0.000 S
ATOM     97   O  Z9L D   5      32.971  14.250 -18.7390  0.00  0.00     0.000 O
ATOM     98   O  Z9L D   5      34.943  12.994 -19.3680  0.00  0.00     0.000 OA
ATOM     99   O  Z9L D   5      35.220  14.848 -17.7180  0.00  0.00     0.000 OA
ATOM    100   O  Z9L D   5      34.251  15.157 -19.9260  0.00  0.00     0.000 O
ENDBRANCH 81 95
ENDBRANCH 76 80
ENDBRANCH 60 76
ENDBRANCH 59 63
ENDBRANCH 37 59
ENDBRANCH 36 40
ENDBRANCH 23 36
ENDBRANCH 22 26
ENDBRANCH 1 22
TORSDOF 19
ENDMDL
