MODEL 1
REMARK VINA RESULT:      -8.9      0.000      0.000
ROOT
ATOM      1  C1  A00 X   1       7.531  37.304  80.5930  0.00  0.00     0.000 C
ATOM      2  C2  A00 X   1       6.959  35.932  81.0400  0.00  0.00     0.000 C
ATOM      3  C3  A00 X   1       5.747  35.390  80.2140  0.00  0.00     0.000 C
ATOM      4  C4  A00 X   1       5.039  36.428  79.3060  0.00  0.00     0.000 C
ATOM      5  C5  A00 X   1       5.281  37.863  79.7730  0.00  0.00     0.000 C
ATOM      6  O5  A00 X   1       6.710  38.050  79.6610  0.00  0.00     0.000 O
ATOM      7   O  A00 X   1       4.759  34.901  81.1180  0.00  0.00     0.000 O
ATOM      9  HD  A00 X   1       4.342  35.329  80.4900  0.00  0.00     0.000 HD
ATOM      9   O  A00 X   1       5.441  36.290  77.9430  0.00  0.00     0.000 O
ATOM     11  HD  A00 X   1       5.025  36.718  77.3160  0.00  0.00     0.000 HD
ENDROOT
BRANCH 2 11
ATOM     11   O  A00 X   1       8.032  34.971  80.9860  0.00  0.00     0.000 O
ATOM     12   O  A00 X   1       7.820  32.777  81.9390  0.00  0.00     0.000 OA
ATOM     13   O  A00 X   1       7.736  34.721  83.3980  0.00  0.00     0.000 OA
ATOM     14   O  A00 X   1       9.762  34.122  82.3050  0.00  0.00     0.000 OA
ATOM     15   S  A00 X   1       8.325  34.090  82.2490  0.00  0.00     0.000 S
ENDBRANCH 2 11
BRANCH 5 16
ATOM     16   C  A00 X   1       4.727  38.194  81.1630  0.00  0.00     0.000 C
ATOM     17   O  A00 X   1       3.778  37.561  81.5760  0.00  0.00     0.000 OA
ATOM     18   O  A00 X   1       5.207  39.061  81.8660  0.00  0.00     0.000 OA
ENDBRANCH 5 16
BRANCH 1 19
ATOM     19  O4  A00 X   2       7.948  38.129  81.7080  0.00  0.00     0.000 O
BRANCH 19 23
ATOM     20  C1  A00 X   2      12.098  39.051  82.2460  0.00  0.00     0.000 C
ATOM     21  C2  A00 X   2      11.723  38.095  81.0880  0.00  0.00     0.000 C
ATOM     22  C3  A00 X   2      10.221  38.202  80.7520  0.00  0.00     0.000 C
ATOM     23  C4  A00 X   2       9.363  37.977  82.0170  0.00  0.00     0.000 C
ATOM     24  C5  A00 X   2       9.847  38.977  83.1030  0.00  0.00     0.000 C
ATOM     25  O5  A00 X   2      11.249  38.725  83.3790  0.00  0.00     0.000 O
ATOM     26   O  A00 X   2       9.937  37.349  79.6290  0.00  0.00     0.000 O
ATOM     28  HD  A00 X   2      10.330  36.665  79.9860  0.00  0.00     0.000 HD
BRANCH 21 30
ATOM     28   N  A00 X   2      11.795  37.781  79.6580  0.00  0.00     0.000 N
ATOM     30  HD  A00 X   2      12.582  37.631  79.9870  0.00  0.00     0.000 HD
ATOM     30   O  A00 X   2      13.728  36.524  79.2850  0.00  0.00     0.000 OA
ATOM     31   S  A00 X   2      13.207  37.800  78.9470  0.00  0.00     0.000 S
ATOM     32   O  A00 X   2      12.888  37.976  77.5640  0.00  0.00     0.000 OA
ATOM     33   O  A00 X   2      13.915  38.943  79.4430  0.00  0.00     0.000 OA
ENDBRANCH 21 30
BRANCH 24 34
ATOM     34   C  A00 X   2       9.001  39.117  84.3900  0.00  0.00     0.000 C
ATOM     35   O  A00 X   2       7.236  36.359  85.9810  0.00  0.00     0.000 OA
ATOM     36   O  A00 X   2       8.149  37.970  84.5830  0.00  0.00     0.000 O
ATOM     37   O  A00 X   2       9.555  36.352  85.5170  0.00  0.00     0.000 OA
ATOM     38   S  A00 X   2       8.423  37.143  85.8920  0.00  0.00     0.000 S
ATOM     39   O  A00 X   2       8.600  38.098  86.9440  0.00  0.00     0.000 OA
ENDBRANCH 24 34
BRANCH 20 40
ATOM     40  O4  A00 X   3      11.786  40.370  81.7760  0.00  0.00     0.000 O
BRANCH 40 44
ATOM     41  C1  A00 X   3      10.705  43.820  81.5430  0.00  0.00     0.000 C
ATOM     42  C2  A00 X   3      11.652  43.125  80.5410  0.00  0.00     0.000 C
ATOM     43  C3  A00 X   3      12.820  42.420  81.2790  0.00  0.00     0.000 C
ATOM     44  C4  A00 X   3      12.389  41.511  82.4230  0.00  0.00     0.000 C
ATOM     45  C5  A00 X   3      11.445  42.281  83.3880  0.00  0.00     0.000 C
ATOM     46  O5  A00 X   3      10.365  42.939  82.6490  0.00  0.00     0.000 O
ATOM     47   O  A00 X   3      13.808  41.816  80.4470  0.00  0.00     0.000 O
ATOM     49  HD  A00 X   3      13.785  41.202  81.0570  0.00  0.00     0.000 HD
BRANCH 42 49
ATOM     49   O  A00 X   3      10.856  42.181  79.7910  0.00  0.00     0.000 O
ATOM     50   O  A00 X   3      11.258  40.533  78.1010  0.00  0.00     0.000 OA
ATOM     51   O  A00 X   3      12.371  42.614  77.9530  0.00  0.00     0.000 OA
ATOM     52   O  A00 X   3      10.031  42.562  77.6250  0.00  0.00     0.000 OA
ATOM     53   S  A00 X   3      11.135  41.946  78.2770  0.00  0.00     0.000 S
ENDBRANCH 42 49
BRANCH 45 54
ATOM     54   C  A00 X   3      12.222  43.239  84.2990  0.00  0.00     0.000 C
ATOM     55   O  A00 X   3      11.726  43.657  85.3250  0.00  0.00     0.000 OA
ATOM     56   O  A00 X   3      13.352  43.600  84.0080  0.00  0.00     0.000 OA
ENDBRANCH 45 54
BRANCH 41 57
ATOM     57  O4  A00 X   4      11.214  45.108  81.9540  0.00  0.00     0.000 O
BRANCH 57 61
ATOM     58  C1  A00 X   4       9.324  48.715  83.3860  0.00  0.00     0.000 C
ATOM     59  C2  A00 X   4       9.341  47.471  84.3090  0.00  0.00     0.000 C
ATOM     60  C3  A00 X   4      10.335  46.383  83.8550  0.00  0.00     0.000 C
ATOM     61  C4  A00 X   4      10.201  46.077  82.3470  0.00  0.00     0.000 C
ATOM     62  C5  A00 X   4      10.427  47.419  81.6080  0.00  0.00     0.000 C
ATOM     63  O5  A00 X   4       9.385  48.354  81.9880  0.00  0.00     0.000 O
BRANCH 59 66
ATOM     64   N  A00 X   4       9.420  47.277  85.7680  0.00  0.00     0.000 N
ATOM     66  HD  A00 X   4       9.310  46.473  86.0710  0.00  0.00     0.000 HD
ATOM     66   O  A00 X   4       7.325  48.453  85.9360  0.00  0.00     0.000 OA
ATOM     67   S  A00 X   4       8.503  48.194  86.7040  0.00  0.00     0.000 S
ATOM     68   O  A00 X   4       8.327  47.321  87.8280  0.00  0.00     0.000 OA
ATOM     69   O  A00 X   4       9.400  49.288  86.9440  0.00  0.00     0.000 OA
ENDBRANCH 59 66
BRANCH 62 70
ATOM     70   C  A00 X   4      10.441  47.297  80.0660  0.00  0.00     0.000 C
ATOM     71   O  A00 X   4       7.674  46.636  77.8260  0.00  0.00     0.000 OA
ATOM     72   O  A00 X   4       9.806  45.645  77.9660  0.00  0.00     0.000 OA
ATOM     73   O  A00 X   4       9.089  47.278  79.5790  0.00  0.00     0.000 O
ATOM     74   O  A00 X   4       8.105  45.079  79.6170  0.00  0.00     0.000 OA
ATOM     75   S  A00 X   4       8.637  46.050  78.7150  0.00  0.00     0.000 S
ENDBRANCH 62 70
ENDBRANCH 57 61
ENDBRANCH 41 57
ENDBRANCH 40 44
ENDBRANCH 20 40
ENDBRANCH 19 23
ENDBRANCH 1 19
TORSDOF 14
ENDMDL
MODEL 2
REMARK VINA RESULT:      -8.6     23.229     28.392
ROOT
ATOM      1  C1  A00 X   1      16.658  25.742  64.8120  0.00  0.00     0.000 C
ATOM      2  C2  A00 X   1      15.326  25.915  65.5910  0.00  0.00     0.000 C
ATOM      3  C3  A00 X   1      14.015  25.740  64.7560  0.00  0.00     0.000 C
ATOM      4  C4  A00 X   1      14.191  25.783  63.2170  0.00  0.00     0.000 C
ATOM      5  C5  A00 X   1      15.469  26.512  62.8020  0.00  0.00     0.000 C
ATOM      6  O5  A00 X   1      16.541  25.725  63.3680  0.00  0.00     0.000 O
ATOM      7   O  A00 X   1      13.116  26.795  65.0900  0.00  0.00     0.000 O
ATOM      9  HD  A00 X   1      13.072  26.684  64.2320  0.00  0.00     0.000 HD
ATOM      9   O  A00 X   1      14.180  24.471  62.6540  0.00  0.00     0.000 O
ATOM     11  HD  A00 X   1      14.137  24.360  61.7960  0.00  0.00     0.000 HD
ENDROOT
BRANCH 2 11
ATOM     11   O  A00 X   1      15.325  24.964  66.6730  0.00  0.00     0.000 O
ATOM     12   O  A00 X   1      13.905  25.227  68.5920  0.00  0.00     0.000 OA
ATOM     13   O  A00 X   1      15.640  26.876  68.1610  0.00  0.00     0.000 OA
ATOM     14   O  A00 X   1      16.217  24.662  68.8100  0.00  0.00     0.000 OA
ATOM     15   S  A00 X   1      15.249  25.493  68.1470  0.00  0.00     0.000 S
ENDBRANCH 2 11
BRANCH 5 16
ATOM     16   C  A00 X   1      15.524  27.993  63.1910  0.00  0.00     0.000 C
ATOM     17   O  A00 X   1      14.499  28.642  63.1560  0.00  0.00     0.000 OA
ATOM     18   O  A00 X   1      16.553  28.538  63.5380  0.00  0.00     0.000 OA
ENDBRANCH 5 16
BRANCH 1 19
ATOM     19  O4  A00 X   2      17.687  26.664  65.2480  0.00  0.00     0.000 O
BRANCH 19 23
ATOM     20  C1  A00 X   2      21.139  24.290  64.3460  0.00  0.00     0.000 C
ATOM     21  C2  A00 X   2      20.225  23.813  65.5000  0.00  0.00     0.000 C
ATOM     22  C3  A00 X   2      18.841  24.491  65.4220  0.00  0.00     0.000 C
ATOM     23  C4  A00 X   2      18.991  26.028  65.3720  0.00  0.00     0.000 C
ATOM     24  C5  A00 X   2      19.939  26.374  64.1920  0.00  0.00     0.000 C
ATOM     25  O5  A00 X   2      21.223  25.738  64.4210  0.00  0.00     0.000 O
ATOM     26   O  A00 X   2      18.010  23.965  66.4710  0.00  0.00     0.000 O
ATOM     28  HD  A00 X   2      18.608  24.101  67.0820  0.00  0.00     0.000 HD
BRANCH 21 30
ATOM     28   N  A00 X   2      21.419  23.325  66.1970  0.00  0.00     0.000 N
ATOM     30  HD  A00 X   2      20.736  22.954  66.5800  0.00  0.00     0.000 HD
ATOM     30   O  A00 X   2      20.815  21.445  67.4450  0.00  0.00     0.000 OA
ATOM     31   S  A00 X   2      21.265  22.772  67.6700  0.00  0.00     0.000 S
ATOM     32   O  A00 X   2      22.585  22.880  68.2120  0.00  0.00     0.000 OA
ATOM     33   O  A00 X   2      20.371  23.653  68.3610  0.00  0.00     0.000 OA
ENDBRANCH 21 30
BRANCH 24 34
ATOM     34   C  A00 X   2      20.073  27.860  63.7800  0.00  0.00     0.000 C
ATOM     35   O  A00 X   2      20.298  29.011  60.3330  0.00  0.00     0.000 OA
ATOM     36   O  A00 X   2      20.493  27.986  62.4070  0.00  0.00     0.000 O
ATOM     37   O  A00 X   2      18.532  27.678  61.1690  0.00  0.00     0.000 OA
ATOM     38   S  A00 X   2      19.473  28.717  61.4590  0.00  0.00     0.000 S
ATOM     39   O  A00 X   2      18.998  29.860  62.1790  0.00  0.00     0.000 OA
ENDBRANCH 24 34
BRANCH 20 40
ATOM     40  O4  A00 X   3      20.465  23.911  63.1360  0.00  0.00     0.000 O
BRANCH 40 44
ATOM     41  C1  A00 X   3      19.361  24.174  59.6960  0.00  0.00     0.000 C
ATOM     42  C2  A00 X   3      19.156  22.935  60.5940  0.00  0.00     0.000 C
ATOM     43  C3  A00 X   3      20.489  22.503  61.2570  0.00  0.00     0.000 C
ATOM     44  C4  A00 X   3      21.244  23.627  61.9540  0.00  0.00     0.000 C
ATOM     45  C5  A00 X   3      21.415  24.833  60.9880  0.00  0.00     0.000 C
ATOM     46  O5  A00 X   3      20.135  25.200  60.3780  0.00  0.00     0.000 O
ATOM     47   O  A00 X   3      20.438  21.313  62.0420  0.00  0.00     0.000 O
ATOM     49  HD  A00 X   3      20.970  21.764  62.5560  0.00  0.00     0.000 HD
BRANCH 42 49
ATOM     49   O  A00 X   3      18.165  23.289  61.5840  0.00  0.00     0.000 O
ATOM     50   O  A00 X   3      17.099  22.205  63.4320  0.00  0.00     0.000 OA
ATOM     51   O  A00 X   3      17.428  20.989  61.4320  0.00  0.00     0.000 OA
ATOM     52   O  A00 X   3      15.880  22.774  61.4230  0.00  0.00     0.000 OA
ATOM     53   S  A00 X   3      17.073  22.263  62.0050  0.00  0.00     0.000 S
ENDBRANCH 42 49
BRANCH 45 54
ATOM     54   C  A00 X   3      22.524  24.582  59.9580  0.00  0.00     0.000 C
ATOM     55   O  A00 X   3      23.016  23.479  59.8350  0.00  0.00     0.000 OA
ATOM     56   O  A00 X   3      22.932  25.487  59.2460  0.00  0.00     0.000 OA
ENDBRANCH 45 54
BRANCH 41 57
ATOM     57  O4  A00 X   4      19.882  23.812  58.3980  0.00  0.00     0.000 O
BRANCH 57 61
ATOM     58  C1  A00 X   4      19.789  26.063  54.7150  0.00  0.00     0.000 C
ATOM     59  C2  A00 X   4      19.830  26.837  56.0560  0.00  0.00     0.000 C
ATOM     60  C3  A00 X   4      20.220  25.958  57.2610  0.00  0.00     0.000 C
ATOM     61  C4  A00 X   4      19.418  24.639  57.2930  0.00  0.00     0.000 C
ATOM     62  C5  A00 X   4      19.690  23.932  55.9420  0.00  0.00     0.000 C
ATOM     63  O5  A00 X   4      19.186  24.757  54.8610  0.00  0.00     0.000 O
BRANCH 59 66
ATOM     64   N  A00 X   4      19.956  28.102  56.8020  0.00  0.00     0.000 N
ATOM     66  HD  A00 X   4      19.435  28.218  57.4840  0.00  0.00     0.000 HD
ATOM     66   O  A00 X   4      18.984  29.207  54.8960  0.00  0.00     0.000 OA
ATOM     67   S  A00 X   4      19.870  29.475  55.9850  0.00  0.00     0.000 S
ATOM     68   O  A00 X   4      19.354  30.347  56.9990  0.00  0.00     0.000 OA
ATOM     69   O  A00 X   4      21.259  29.678  55.6840  0.00  0.00     0.000 OA
ENDBRANCH 59 66
BRANCH 62 70
ATOM     70   C  A00 X   4      19.053  22.526  55.8260  0.00  0.00     0.000 C
ATOM     71   O  A00 X   4      20.433  19.536  54.3220  0.00  0.00     0.000 OA
ATOM     72   O  A00 X   4      18.330  20.559  54.0520  0.00  0.00     0.000 OA
ATOM     73   O  A00 X   4      20.048  21.589  55.3820  0.00  0.00     0.000 O
ATOM     74   O  A00 X   4      20.290  21.537  52.9850  0.00  0.00     0.000 OA
ATOM     75   S  A00 X   4      19.759  20.778  54.0710  0.00  0.00     0.000 S
ENDBRANCH 62 70
ENDBRANCH 57 61
ENDBRANCH 41 57
ENDBRANCH 40 44
ENDBRANCH 20 40
ENDBRANCH 19 23
ENDBRANCH 1 19
TORSDOF 14
ENDMDL
MODEL 3
REMARK VINA RESULT:      -8.6      5.949     12.616
ROOT
ATOM      1  C1  A00 X   1       4.428  52.267  75.4260  0.00  0.00     0.000 C
ATOM      2  C2  A00 X   1       4.230  51.740  73.9790  0.00  0.00     0.000 C
ATOM      3  C3  A00 X   1       2.785  51.867  73.3930  0.00  0.00     0.000 C
ATOM      4  C4  A00 X   1       1.667  52.153  74.4280  0.00  0.00     0.000 C
ATOM      5  C5  A00 X   1       2.065  51.727  75.8410  0.00  0.00     0.000 C
ATOM      6  O5  A00 X   1       3.211  52.547  76.1620  0.00  0.00     0.000 O
ATOM      7   O  A00 X   1       2.441  50.640  72.7540  0.00  0.00     0.000 O
ATOM      9  HD  A00 X   1       1.741  50.907  73.1880  0.00  0.00     0.000 HD
ATOM      9   O  A00 X   1       1.294  53.531  74.4270  0.00  0.00     0.000 O
ATOM     11  HD  A00 X   1       0.593  53.798  74.8600  0.00  0.00     0.000 HD
ENDROOT
BRANCH 2 11
ATOM     11   O  A00 X   1       5.147  52.450  73.1240  0.00  0.00     0.000 O
ATOM     12   O  A00 X   1       4.995  52.342  70.7300  0.00  0.00     0.000 OA
ATOM     13   O  A00 X   1       5.505  50.320  71.9830  0.00  0.00     0.000 OA
ATOM     14   O  A00 X   1       7.083  52.096  71.8670  0.00  0.00     0.000 OA
ATOM     15   S  A00 X   1       5.691  51.738  71.8380  0.00  0.00     0.000 S
ENDBRANCH 2 11
BRANCH 5 16
ATOM     16   C  A00 X   1       2.316  50.226  76.0190  0.00  0.00     0.000 C
ATOM     17   O  A00 X   1       2.745  49.831  77.0830  0.00  0.00     0.000 OA
ATOM     18   O  A00 X   1       2.094  49.419  75.1380  0.00  0.00     0.000 OA
ENDBRANCH 5 16
BRANCH 1 19
ATOM     19  O4  A00 X   2       5.339  51.451  76.2010  0.00  0.00     0.000 O
BRANCH 19 23
ATOM     20  C1  A00 X   2       9.305  50.108  75.2860  0.00  0.00     0.000 C
ATOM     21  C2  A00 X   2       8.955  51.580  74.9570  0.00  0.00     0.000 C
ATOM     22  C3  A00 X   2       7.689  52.027  75.7180  0.00  0.00     0.000 C
ATOM     23  C4  A00 X   2       6.518  51.056  75.4430  0.00  0.00     0.000 C
ATOM     24  C5  A00 X   2       7.000  49.621  75.7930  0.00  0.00     0.000 C
ATOM     25  O5  A00 X   2       8.144  49.297  74.9610  0.00  0.00     0.000 O
ATOM     26   O  A00 X   2       7.446  53.415  75.4340  0.00  0.00     0.000 O
ATOM     28  HD  A00 X   2       7.511  53.303  74.5770  0.00  0.00     0.000 HD
BRANCH 21 30
ATOM     28   N  A00 X   2       9.617  52.843  75.2970  0.00  0.00     0.000 N
ATOM     30  HD  A00 X   2       9.984  52.556  74.5670  0.00  0.00     0.000 HD
ATOM     30   O  A00 X   2      10.768  53.592  73.4060  0.00  0.00     0.000 OA
ATOM     31   S  A00 X   2      11.060  53.123  74.7150  0.00  0.00     0.000 S
ATOM     32   O  A00 X   2      11.598  54.107  75.6020  0.00  0.00     0.000 OA
ATOM     33   O  A00 X   2      11.802  51.902  74.8160  0.00  0.00     0.000 OA
ENDBRANCH 21 30
BRANCH 24 34
ATOM     34   C  A00 X   2       5.945  48.490  75.8240  0.00  0.00     0.000 C
ATOM     35   O  A00 X   2       5.942  45.771  78.2460  0.00  0.00     0.000 OA
ATOM     36   O  A00 X   2       6.387  47.386  76.6400  0.00  0.00     0.000 O
ATOM     37   O  A00 X   2       5.929  48.062  78.8320  0.00  0.00     0.000 OA
ATOM     38   S  A00 X   2       5.489  47.076  77.8930  0.00  0.00     0.000 S
ATOM     39   O  A00 X   2       4.131  47.146  77.4450  0.00  0.00     0.000 OA
ENDBRANCH 24 34
BRANCH 20 40
ATOM     40  O4  A00 X   3       9.535  50.071  76.7020  0.00  0.00     0.000 O
BRANCH 40 44
ATOM     41  C1  A00 X   3       9.939  49.220  80.2000  0.00  0.00     0.000 C
ATOM     42  C2  A00 X   3      10.711  50.342  79.4720  0.00  0.00     0.000 C
ATOM     43  C3  A00 X   3      11.355  49.814  78.1650  0.00  0.00     0.000 C
ATOM     44  C4  A00 X   3      10.402  49.055  77.2500  0.00  0.00     0.000 C
ATOM     45  C5  A00 X   3       9.668  47.943  78.0520  0.00  0.00     0.000 C
ATOM     46  O5  A00 X   3       9.085  48.483  79.2810  0.00  0.00     0.000 O
ATOM     47   O  A00 X   3      12.168  50.744  77.4510  0.00  0.00     0.000 O
ATOM     49  HD  A00 X   3      11.796  50.371  76.7640  0.00  0.00     0.000 HD
BRANCH 42 49
ATOM     49   O  A00 X   3       9.766  51.401  79.2050  0.00  0.00     0.000 O
ATOM     50   O  A00 X   3       9.841  53.582  78.2210  0.00  0.00     0.000 OA
ATOM     51   O  A00 X   3      11.589  52.923  79.6700  0.00  0.00     0.000 OA
ATOM     52   O  A00 X   3       9.439  53.273  80.5850  0.00  0.00     0.000 OA
ATOM     53   S  A00 X   3      10.169  52.889  79.4270  0.00  0.00     0.000 S
ENDBRANCH 42 49
BRANCH 45 54
ATOM     54   C  A00 X   3      10.572  46.729  78.2950  0.00  0.00     0.000 C
ATOM     55   O  A00 X   3      11.779  46.827  78.2020  0.00  0.00     0.000 OA
ATOM     56   O  A00 X   3      10.096  45.643  78.5850  0.00  0.00     0.000 OA
ENDBRANCH 45 54
BRANCH 41 57
ATOM     57  O4  A00 X   4      10.822  48.383  80.9800  0.00  0.00     0.000 O
BRANCH 57 61
ATOM     58  C1  A00 X   4       9.941  45.264  83.8310  0.00  0.00     0.000 C
ATOM     59  C2  A00 X   4      10.550  44.867  82.4640  0.00  0.00     0.000 C
ATOM     60  C3  A00 X   4      11.148  46.059  81.6880  0.00  0.00     0.000 C
ATOM     61  C4  A00 X   4      10.180  47.261  81.6480  0.00  0.00     0.000 C
ATOM     62  C5  A00 X   4       9.870  47.620  83.1230  0.00  0.00     0.000 C
ATOM     63  O5  A00 X   4       9.197  46.501  83.7550  0.00  0.00     0.000 O
BRANCH 59 66
ATOM     64   N  A00 X   4       9.502  44.312  81.5890  0.00  0.00     0.000 N
ATOM     66  HD  A00 X   4       8.689  44.581  81.7180  0.00  0.00     0.000 HD
ATOM     66   O  A00 X   4       9.808  42.211  82.7250  0.00  0.00     0.000 OA
ATOM     67   S  A00 X   4       9.390  42.722  81.4570  0.00  0.00     0.000 S
ATOM     68   O  A00 X   4       7.992  42.585  81.1660  0.00  0.00     0.000 OA
ATOM     69   O  A00 X   4      10.249  42.500  80.3290  0.00  0.00     0.000 OA
ENDBRANCH 59 66
BRANCH 62 70
ATOM     70   C  A00 X   4       8.992  48.883  83.2940  0.00  0.00     0.000 C
ATOM     71   O  A00 X   4       8.274  50.744  86.3150  0.00  0.00     0.000 OA
ATOM     72   O  A00 X   4       6.836  49.919  84.6440  0.00  0.00     0.000 OA
ATOM     73   O  A00 X   4       9.189  49.423  84.6110  0.00  0.00     0.000 O
ATOM     74   O  A00 X   4       7.792  48.382  86.2760  0.00  0.00     0.000 OA
ATOM     75   S  A00 X   4       7.930  49.592  85.5310  0.00  0.00     0.000 S
ENDBRANCH 62 70
ENDBRANCH 57 61
ENDBRANCH 41 57
ENDBRANCH 40 44
ENDBRANCH 20 40
ENDBRANCH 19 23
ENDBRANCH 1 19
TORSDOF 14
ENDMDL
MODEL 4
REMARK VINA RESULT:      -8.2     18.481     23.118
ROOT
ATOM      1  C1  A00 X   1      18.075  27.052  62.8740  0.00  0.00     0.000 C
ATOM      2  C2  A00 X   1      18.268  27.469  61.3920  0.00  0.00     0.000 C
ATOM      3  C3  A00 X   1      18.365  29.006  61.1170  0.00  0.00     0.000 C
ATOM      4  C4  A00 X   1      17.895  29.923  62.2760  0.00  0.00     0.000 C
ATOM      5  C5  A00 X   1      16.941  29.205  63.2300  0.00  0.00     0.000 C
ATOM      6  O5  A00 X   1      17.722  28.122  63.7850  0.00  0.00     0.000 O
ATOM      7   O  A00 X   1      17.546  29.322  59.9940  0.00  0.00     0.000 O
ATOM      9  HD  A00 X   1      17.430  29.949  60.5790  0.00  0.00     0.000 HD
ATOM      9   O  A00 X   1      19.003  30.448  63.0070  0.00  0.00     0.000 O
ATOM     11  HD  A00 X   1      18.886  31.076  63.5930  0.00  0.00     0.000 HD
ENDROOT
BRANCH 2 11
ATOM     11   O  A00 X   1      19.466  26.830  60.9090  0.00  0.00     0.000 O
ATOM     12   O  A00 X   1      20.468  27.429  58.8100  0.00  0.00     0.000 OA
ATOM     13   O  A00 X   1      18.246  26.439  58.8290  0.00  0.00     0.000 OA
ATOM     14   O  A00 X   1      20.146  25.146  59.4410  0.00  0.00     0.000 OA
ATOM     15   S  A00 X   1      19.569  26.462  59.3890  0.00  0.00     0.000 S
ENDBRANCH 2 11
BRANCH 5 16
ATOM     16   C  A00 X   1      15.620  28.748  62.6020  0.00  0.00     0.000 C
ATOM     17   O  A00 X   1      15.312  29.186  61.5130  0.00  0.00     0.000 OA
ATOM     18   O  A00 X   1      14.875  27.960  63.1510  0.00  0.00     0.000 OA
ENDBRANCH 5 16
BRANCH 1 19
ATOM     19  O4  A00 X   2      17.190  25.915  63.0270  0.00  0.00     0.000 O
BRANCH 19 23
ATOM     20  C1  A00 X   2      19.390  24.206  66.2840  0.00  0.00     0.000 C
ATOM     21  C2  A00 X   2      19.736  23.721  64.8550  0.00  0.00     0.000 C
ATOM     22  C3  A00 X   2      19.199  24.705  63.7950  0.00  0.00     0.000 C
ATOM     23  C4  A00 X   2      17.686  24.948  63.9960  0.00  0.00     0.000 C
ATOM     24  C5  A00 X   2      17.470  25.409  65.4640  0.00  0.00     0.000 C
ATOM     25  O5  A00 X   2      17.949  24.370  66.3560  0.00  0.00     0.000 O
ATOM     26   O  A00 X   2      19.604  24.248  62.4940  0.00  0.00     0.000 O
ATOM     28  HD  A00 X   2      19.316  23.443  62.6310  0.00  0.00     0.000 HD
BRANCH 21 30
ATOM     28   N  A00 X   2      20.671  22.885  65.6150  0.00  0.00     0.000 N
ATOM     30  HD  A00 X   2      20.540  22.489  64.8570  0.00  0.00     0.000 HD
ATOM     30   O  A00 X   2      21.679  21.387  64.1330  0.00  0.00     0.000 OA
ATOM     31   S  A00 X   2      20.794  21.354  65.2430  0.00  0.00     0.000 S
ATOM     32   O  A00 X   2      21.333  20.760  66.4270  0.00  0.00     0.000 OA
ATOM     33   O  A00 X   2      19.468  20.869  65.0020  0.00  0.00     0.000 OA
ENDBRANCH 21 30
BRANCH 24 34
ATOM     34   C  A00 X   2      16.071  25.939  65.8590  0.00  0.00     0.000 C
ATOM     35   O  A00 X   2      14.224  24.827  68.7930  0.00  0.00     0.000 OA
ATOM     36   O  A00 X   2      15.446  25.083  66.8370  0.00  0.00     0.000 O
ATOM     37   O  A00 X   2      16.414  25.717  68.8700  0.00  0.00     0.000 OA
ATOM     38   S  A00 X   2      15.138  25.760  68.2220  0.00  0.00     0.000 S
ATOM     39   O  A00 X   2      14.586  27.049  67.9290  0.00  0.00     0.000 OA
ENDBRANCH 24 34
BRANCH 20 40
ATOM     40  O4  A00 X   3      20.025  25.486  66.4230  0.00  0.00     0.000 O
BRANCH 40 44
ATOM     41  C1  A00 X   3      20.303  28.889  67.6320  0.00  0.00     0.000 C
ATOM     42  C2  A00 X   3      21.388  28.154  66.8170  0.00  0.00     0.000 C
ATOM     43  C3  A00 X   3      21.709  26.771  67.4400  0.00  0.00     0.000 C
ATOM     44  C4  A00 X   3      20.487  25.906  67.7250  0.00  0.00     0.000 C
ATOM     45  C5  A00 X   3      19.446  26.712  68.5510  0.00  0.00     0.000 C
ATOM     46  O5  A00 X   3      19.182  28.013  67.9330  0.00  0.00     0.000 O
ATOM     47   O  A00 X   3      22.762  26.037  66.8180  0.00  0.00     0.000 O
ATOM     49  HD  A00 X   3      22.236  25.367  66.9760  0.00  0.00     0.000 HD
BRANCH 42 49
ATOM     49   O  A00 X   3      20.887  28.022  65.4680  0.00  0.00     0.000 O
ATOM     50   O  A00 X   3      21.634  27.002  63.4350  0.00  0.00     0.000 OA
ATOM     51   O  A00 X   3      23.200  28.166  64.7690  0.00  0.00     0.000 OA
ATOM     52   O  A00 X   3      21.510  29.405  63.6760  0.00  0.00     0.000 OA
ATOM     53   S  A00 X   3      21.853  28.152  64.2550  0.00  0.00     0.000 S
ENDBRANCH 42 49
BRANCH 45 54
ATOM     54   C  A00 X   3      19.850  26.817  70.0270  0.00  0.00     0.000 C
ATOM     55   O  A00 X   3      19.015  27.018  70.8840  0.00  0.00     0.000 OA
ATOM     56   O  A00 X   3      21.018  26.701  70.3650  0.00  0.00     0.000 OA
ENDBRANCH 45 54
BRANCH 41 57
ATOM     57  O4  A00 X   4      20.861  29.548  68.7910  0.00  0.00     0.000 O
BRANCH 57 61
ATOM     58  C1  A00 X   4      19.477  32.807  71.2610  0.00  0.00     0.000 C
ATOM     59  C2  A00 X   4      19.057  31.364  71.6350  0.00  0.00     0.000 C
ATOM     60  C3  A00 X   4      19.885  30.278  70.9190  0.00  0.00     0.000 C
ATOM     61  C4  A00 X   4      20.003  30.552  69.4040  0.00  0.00     0.000 C
ATOM     62  C5  A00 X   4      20.638  31.958  69.2640  0.00  0.00     0.000 C
ATOM     63  O5  A00 X   4      19.749  32.944  69.8480  0.00  0.00     0.000 O
BRANCH 59 66
ATOM     64   N  A00 X   4      17.668  31.318  71.1420  0.00  0.00     0.000 N
ATOM     66  HD  A00 X   4      17.446  31.879  70.5200  0.00  0.00     0.000 HD
ATOM     66   O  A00 X   4      16.989  32.220  73.2690  0.00  0.00     0.000 OA
ATOM     67   S  A00 X   4      16.482  31.403  72.2110  0.00  0.00     0.000 S
ATOM     68   O  A00 X   4      15.454  32.000  71.4090  0.00  0.00     0.000 OA
ATOM     69   O  A00 X   4      16.282  30.007  72.4790  0.00  0.00     0.000 OA
ENDBRANCH 59 66
BRANCH 62 70
ATOM     70   C  A00 X   4      20.941  32.372  67.8040  0.00  0.00     0.000 C
ATOM     71   O  A00 X   4      18.638  33.504  65.2510  0.00  0.00     0.000 OA
ATOM     72   O  A00 X   4      20.321  31.858  65.1790  0.00  0.00     0.000 OA
ATOM     73   O  A00 X   4      19.774  32.984  67.2330  0.00  0.00     0.000 O
ATOM     74   O  A00 X   4      18.221  31.384  66.3210  0.00  0.00     0.000 OA
ATOM     75   S  A00 X   4      19.185  32.358  65.9210  0.00  0.00     0.000 S
ENDBRANCH 62 70
ENDBRANCH 57 61
ENDBRANCH 41 57
ENDBRANCH 40 44
ENDBRANCH 20 40
ENDBRANCH 19 23
ENDBRANCH 1 19
TORSDOF 14
ENDMDL
MODEL 5
REMARK VINA RESULT:      -8.1      7.995     14.462
ROOT
ATOM      1  C1  A00 X   1       3.631  52.491  72.8830  0.00  0.00     0.000 C
ATOM      2  C2  A00 X   1       2.363  52.305  73.7590  0.00  0.00     0.000 C
ATOM      3  C3  A00 X   1       1.071  53.035  73.2620  0.00  0.00     0.000 C
ATOM      4  C4  A00 X   1       1.294  54.131  72.1890  0.00  0.00     0.000 C
ATOM      5  C5  A00 X   1       2.723  54.674  72.2060  0.00  0.00     0.000 C
ATOM      6  O5  A00 X   1       3.552  53.535  71.8810  0.00  0.00     0.000 O
ATOM      7   O  A00 X   1       0.453  53.677  74.3750  0.00  0.00     0.000 O
ATOM      9  HD  A00 X   1       0.406  54.224  73.7060  0.00  0.00     0.000 HD
ATOM      9   O  A00 X   1       0.974  53.655  70.8820  0.00  0.00     0.000 O
ATOM     11  HD  A00 X   1       0.928  54.202  70.2130  0.00  0.00     0.000 HD
ENDROOT
BRANCH 2 11
ATOM     11   O  A00 X   1       2.097  50.892  73.8510  0.00  0.00     0.000 O
ATOM     12   O  A00 X   1      -0.071  50.043  74.4400  0.00  0.00     0.000 OA
ATOM     13   O  A00 X   1       1.174  51.357  76.0640  0.00  0.00     0.000 OA
ATOM     14   O  A00 X   1       1.925  49.189  75.4390  0.00  0.00     0.000 OA
ATOM     15   S  A00 X   1       1.206  50.363  75.0270  0.00  0.00     0.000 S
ENDBRANCH 2 11
BRANCH 5 16
ATOM     16   C  A00 X   1       3.132  55.381  73.5020  0.00  0.00     0.000 C
ATOM     17   O  A00 X   1       4.296  55.692  73.6510  0.00  0.00     0.000 OA
ATOM     18   O  A00 X   1       2.335  55.645  74.3800  0.00  0.00     0.000 OA
ENDBRANCH 5 16
BRANCH 1 19
ATOM     19  O4  A00 X   2       4.843  52.602  73.6670  0.00  0.00     0.000 O
BRANCH 19 23
ATOM     20  C1  A00 X   2       8.958  51.988  72.6390  0.00  0.00     0.000 C
ATOM     21  C2  A00 X   2       8.276  53.276  72.1180  0.00  0.00     0.000 C
ATOM     22  C3  A00 X   2       6.981  53.569  72.9050  0.00  0.00     0.000 C
ATOM     23  C4  A00 X   2       6.042  52.342  72.8830  0.00  0.00     0.000 C
ATOM     24  C5  A00 X   2       6.845  51.120  73.4070  0.00  0.00     0.000 C
ATOM     25  O5  A00 X   2       7.991  50.908  72.5420  0.00  0.00     0.000 O
ATOM     26   O  A00 X   2       6.424  54.807  72.4310  0.00  0.00     0.000 O
ATOM     28  HD  A00 X   2       6.470  54.568  71.6000  0.00  0.00     0.000 HD
BRANCH 21 30
ATOM     28   N  A00 X   2       9.035  53.170  70.8680  0.00  0.00     0.000 N
ATOM     30  HD  A00 X   2       8.750  53.986  70.9200  0.00  0.00     0.000 HD
ATOM     30   O  A00 X   2       9.521  55.332  70.1280  0.00  0.00     0.000 OA
ATOM     31   S  A00 X   2       8.749  54.214  69.7160  0.00  0.00     0.000 S
ATOM     32   O  A00 X   2       9.220  53.556  68.5380  0.00  0.00     0.000 OA
ATOM     33   O  A00 X   2       7.329  54.394  69.6520  0.00  0.00     0.000 OA
ENDBRANCH 21 30
BRANCH 24 34
ATOM     34   C  A00 X   2       6.070  49.814  73.7020  0.00  0.00     0.000 C
ATOM     35   O  A00 X   2       6.577  47.765  76.6690  0.00  0.00     0.000 OA
ATOM     36   O  A00 X   2       6.714  49.046  74.7380  0.00  0.00     0.000 O
ATOM     37   O  A00 X   2       6.029  50.065  76.7290  0.00  0.00     0.000 OA
ATOM     38   S  A00 X   2       5.858  48.823  76.0380  0.00  0.00     0.000 S
ATOM     39   O  A00 X   2       4.538  48.484  75.6010  0.00  0.00     0.000 OA
ENDBRANCH 24 34
BRANCH 20 40
ATOM     40  O4  A00 X   3       9.260  52.239  74.0190  0.00  0.00     0.000 O
BRANCH 40 44
ATOM     41  C1  A00 X   3       9.513  51.198  77.4800  0.00  0.00     0.000 C
ATOM     42  C2  A00 X   3       9.891  52.599  76.9520  0.00  0.00     0.000 C
ATOM     43  C3  A00 X   3      10.845  52.495  75.7340  0.00  0.00     0.000 C
ATOM     44  C4  A00 X   3      10.369  51.552  74.6360  0.00  0.00     0.000 C
ATOM     45  C5  A00 X   3      10.014  50.166  75.2430  0.00  0.00     0.000 C
ATOM     46  O5  A00 X   3       9.121  50.312  76.3950  0.00  0.00     0.000 O
ATOM     47   O  A00 X   3      11.330  53.732  75.2160  0.00  0.00     0.000 O
ATOM     49  HD  A00 X   3      11.215  53.330  74.4570  0.00  0.00     0.000 HD
BRANCH 42 49
ATOM     49   O  A00 X   3       8.659  53.267  76.6020  0.00  0.00     0.000 O
ATOM     50   O  A00 X   3       7.648  55.389  77.0560  0.00  0.00     0.000 OA
ATOM     51   O  A00 X   3       8.758  54.255  78.8090  0.00  0.00     0.000 OA
ATOM     52   O  A00 X   3       6.749  53.337  77.9670  0.00  0.00     0.000 OA
ATOM     53   S  A00 X   3       7.898  54.118  77.6600  0.00  0.00     0.000 S
ENDBRANCH 42 49
BRANCH 45 54
ATOM     54   C  A00 X   3      11.270  49.343  75.5540  0.00  0.00     0.000 C
ATOM     55   O  A00 X   3      11.194  48.319  76.2010  0.00  0.00     0.000 OA
ATOM     56   O  A00 X   3      12.367  49.704  75.1590  0.00  0.00     0.000 OA
ENDBRANCH 45 54
BRANCH 41 57
ATOM     57  O4  A00 X   4      10.541  50.656  78.3390  0.00  0.00     0.000 O
BRANCH 57 61
ATOM     58  C1  A00 X   4      10.013  47.487  81.2220  0.00  0.00     0.000 C
ATOM     59  C2  A00 X   4       8.925  47.692  80.1380  0.00  0.00     0.000 C
ATOM     60  C3  A00 X   4       9.382  48.590  78.9710  0.00  0.00     0.000 C
ATOM     61  C4  A00 X   4      10.055  49.886  79.4740  0.00  0.00     0.000 C
ATOM     62  C5  A00 X   4      11.240  49.442  80.3680  0.00  0.00     0.000 C
ATOM     63  O5  A00 X   4      10.728  48.710  81.5110  0.00  0.00     0.000 O
BRANCH 59 66
ATOM     64   N  A00 X   4       7.914  46.915  79.3980  0.00  0.00     0.000 N
ATOM     66  HD  A00 X   4       7.300  47.357  78.9780  0.00  0.00     0.000 HD
ATOM     66   O  A00 X   4       7.037  46.215  81.5290  0.00  0.00     0.000 OA
ATOM     67   S  A00 X   4       7.127  45.761  80.1760  0.00  0.00     0.000 S
ATOM     68   O  A00 X   4       5.893  45.752  79.4460  0.00  0.00     0.000 OA
ATOM     69   O  A00 X   4       7.982  44.641  79.9010  0.00  0.00     0.000 OA
ENDBRANCH 59 66
BRANCH 62 70
ATOM     70   C  A00 X   4      12.114  50.611  80.8840  0.00  0.00     0.000 C
ATOM     71   O  A00 X   4      11.332  53.069  83.4250  0.00  0.00     0.000 OA
ATOM     72   O  A00 X   4      12.190  53.332  81.2470  0.00  0.00     0.000 OA
ATOM     73   O  A00 X   4      11.509  51.173  82.0600  0.00  0.00     0.000 O
ATOM     74   O  A00 X   4       9.827  52.823  81.5570  0.00  0.00     0.000 OA
ATOM     75   S  A00 X   4      11.162  52.702  82.0470  0.00  0.00     0.000 S
ENDBRANCH 62 70
ENDBRANCH 57 61
ENDBRANCH 41 57
ENDBRANCH 40 44
ENDBRANCH 20 40
ENDBRANCH 19 23
ENDBRANCH 1 19
TORSDOF 14
ENDMDL
MODEL 6
REMARK VINA RESULT:      -8.1     23.202     28.468
ROOT
ATOM      1  C1  A00 X   1      22.697  28.973  57.1960  0.00  0.00     0.000 C
ATOM      2  C2  A00 X   1      21.511  29.814  56.6540  0.00  0.00     0.000 C
ATOM      3  C3  A00 X   1      21.838  31.295  56.2690  0.00  0.00     0.000 C
ATOM      4  C4  A00 X   1      23.183  31.845  56.8090  0.00  0.00     0.000 C
ATOM      5  C5  A00 X   1      23.674  31.070  58.0320  0.00  0.00     0.000 C
ATOM      6  O5  A00 X   1      23.885  29.723  57.5520  0.00  0.00     0.000 O
ATOM      7   O  A00 X   1      20.815  32.139  56.7920  0.00  0.00     0.000 O
ATOM      9  HD  A00 X   1      21.571  32.542  56.9230  0.00  0.00     0.000 HD
ATOM      9   O  A00 X   1      24.191  31.842  55.8000  0.00  0.00     0.000 O
ATOM     11  HD  A00 X   1      24.947  32.244  55.9310  0.00  0.00     0.000 HD
ENDROOT
BRANCH 2 11
ATOM     11   O  A00 X   1      20.984  29.134  55.4980  0.00  0.00     0.000 O
ATOM     12   O  A00 X   1      19.543  30.235  53.9240  0.00  0.00     0.000 OA
ATOM     13   O  A00 X   1      18.787  29.924  56.2150  0.00  0.00     0.000 OA
ATOM     14   O  A00 X   1      19.047  28.054  54.7670  0.00  0.00     0.000 OA
ATOM     15   S  A00 X   1      19.493  29.384  55.0860  0.00  0.00     0.000 S
ENDBRANCH 2 11
BRANCH 5 16
ATOM     16   C  A00 X   1      22.758  31.147  59.2580  0.00  0.00     0.000 C
ATOM     17   O  A00 X   1      22.986  30.416  60.2000  0.00  0.00     0.000 OA
ATOM     18   O  A00 X   1      21.820  31.916  59.3240  0.00  0.00     0.000 OA
ENDBRANCH 5 16
BRANCH 1 19
ATOM     19  O4  A00 X   2      22.305  28.070  58.2590  0.00  0.00     0.000 O
BRANCH 19 23
ATOM     20  C1  A00 X   2      19.050  25.299  58.5620  0.00  0.00     0.000 C
ATOM     21  C2  A00 X   2      20.042  25.109  57.3890  0.00  0.00     0.000 C
ATOM     22  C3  A00 X   2      21.356  25.874  57.6530  0.00  0.00     0.000 C
ATOM     23  C4  A00 X   2      21.068  27.361  57.9610  0.00  0.00     0.000 C
ATOM     24  C5  A00 X   2      20.052  27.414  59.1350  0.00  0.00     0.000 C
ATOM     25  O5  A00 X   2      18.839  26.725  58.7340  0.00  0.00     0.000 O
ATOM     26   O  A00 X   2      22.267  25.612  56.5720  0.00  0.00     0.000 O
ATOM     28  HD  A00 X   2      21.681  25.805  55.9640  0.00  0.00     0.000 HD
BRANCH 21 30
ATOM     28   N  A00 X   2      18.966  24.775  56.4520  0.00  0.00     0.000 N
ATOM     30  HD  A00 X   2      19.695  24.442  56.1250  0.00  0.00     0.000 HD
ATOM     30   O  A00 X   2      19.734  23.083  55.0360  0.00  0.00     0.000 OA
ATOM     31   S  A00 X   2      19.341  24.444  54.9520  0.00  0.00     0.000 S
ATOM     32   O  A00 X   2      18.123  24.679  54.2390  0.00  0.00     0.000 OA
ATOM     33   O  A00 X   2      20.343  25.386  54.5490  0.00  0.00     0.000 OA
ENDBRANCH 21 30
BRANCH 24 34
ATOM     34   C  A00 X   2      19.771  28.787  59.7900  0.00  0.00     0.000 C
ATOM     35   O  A00 X   2      16.438  30.160  60.3000  0.00  0.00     0.000 OA
ATOM     36   O  A00 X   2      18.419  29.218  59.5400  0.00  0.00     0.000 O
ATOM     37   O  A00 X   2      17.137  28.051  61.1110  0.00  0.00     0.000 OA
ATOM     38   S  A00 X   2      17.525  29.398  60.8220  0.00  0.00     0.000 S
ATOM     39   O  A00 X   2      18.335  30.077  61.7880  0.00  0.00     0.000 OA
ENDBRANCH 24 34
BRANCH 20 40
ATOM     40  O4  A00 X   3      19.712  24.768  59.7200  0.00  0.00     0.000 O
BRANCH 40 44
ATOM     41  C1  A00 X   3      20.159  25.182  63.2910  0.00  0.00     0.000 C
ATOM     42  C2  A00 X   3      20.910  24.148  62.4230  0.00  0.00     0.000 C
ATOM     43  C3  A00 X   3      19.920  23.324  61.5610  0.00  0.00     0.000 C
ATOM     44  C4  A00 X   3      18.925  24.159  60.7660  0.00  0.00     0.000 C
ATOM     45  C5  A00 X   3      18.208  25.169  61.7060  0.00  0.00     0.000 C
ATOM     46  O5  A00 X   3      19.179  25.917  62.5080  0.00  0.00     0.000 O
ATOM     47   O  A00 X   3      20.496  22.277  60.7810  0.00  0.00     0.000 O
ATOM     49  HD  A00 X   3      19.917  22.547  60.1970  0.00  0.00     0.000 HD
BRANCH 42 49
ATOM     49   O  A00 X   3      21.842  24.884  61.6000  0.00  0.00     0.000 O
ATOM     50   O  A00 X   3      23.482  24.351  59.9400  0.00  0.00     0.000 OA
ATOM     51   O  A00 X   3      23.321  22.987  61.8650  0.00  0.00     0.000 OA
ATOM     52   O  A00 X   3      24.111  25.200  62.1150  0.00  0.00     0.000 OA
ATOM     53   S  A00 X   3      23.277  24.334  61.3550  0.00  0.00     0.000 S
ENDBRANCH 42 49
BRANCH 45 54
ATOM     54   C  A00 X   3      17.125  24.487  62.5510  0.00  0.00     0.000 C
ATOM     55   O  A00 X   3      16.297  25.147  63.1450  0.00  0.00     0.000 OA
ATOM     56   O  A00 X   3      17.077  23.271  62.6420  0.00  0.00     0.000 OA
ENDBRANCH 45 54
BRANCH 41 57
ATOM     57  O4  A00 X   4      19.622  24.582  64.4910  0.00  0.00     0.000 O
BRANCH 57 61
ATOM     58  C1  A00 X   4      18.401  26.351  68.2350  0.00  0.00     0.000 C
ATOM     59  C2  A00 X   4      17.307  25.841  67.2640  0.00  0.00     0.000 C
ATOM     60  C3  A00 X   4      17.851  24.922  66.1520  0.00  0.00     0.000 C
ATOM     61  C4  A00 X   4      19.100  25.523  65.4710  0.00  0.00     0.000 C
ATOM     62  C5  A00 X   4      20.139  25.758  66.5960  0.00  0.00     0.000 C
ATOM     63  O5  A00 X   4      19.611  26.726  67.5390  0.00  0.00     0.000 O
BRANCH 59 66
ATOM     64   N  A00 X   4      15.908  25.678  66.8290  0.00  0.00     0.000 N
ATOM     66  HD  A00 X   4      15.691  25.996  66.0530  0.00  0.00     0.000 HD
ATOM     66   O  A00 X   4      15.301  27.288  68.5140  0.00  0.00     0.000 OA
ATOM     67   S  A00 X   4      14.747  26.174  67.8110  0.00  0.00     0.000 S
ATOM     68   O  A00 X   4      13.723  26.493  66.8590  0.00  0.00     0.000 OA
ATOM     69   O  A00 X   4      14.507  24.967  68.5500  0.00  0.00     0.000 OA
ENDBRANCH 59 66
BRANCH 62 70
ATOM     70   C  A00 X   4      21.513  26.260  66.0920  0.00  0.00     0.000 C
ATOM     71   O  A00 X   4      22.483  29.616  65.1410  0.00  0.00     0.000 OA
ATOM     72   O  A00 X   4      22.779  27.561  64.0310  0.00  0.00     0.000 OA
ATOM     73   O  A00 X   4      21.515  27.697  66.0720  0.00  0.00     0.000 O
ATOM     74   O  A00 X   4      20.581  28.614  64.0490  0.00  0.00     0.000 OA
ATOM     75   S  A00 X   4      21.829  28.412  64.7120  0.00  0.00     0.000 S
ENDBRANCH 62 70
ENDBRANCH 57 61
ENDBRANCH 41 57
ENDBRANCH 40 44
ENDBRANCH 20 40
ENDBRANCH 19 23
ENDBRANCH 1 19
TORSDOF 14
ENDMDL
MODEL 7
REMARK VINA RESULT:      -7.9     28.317     33.540
ROOT
ATOM      1  C1  A00 X   1      26.351  27.968  56.6530  0.00  0.00     0.000 C
ATOM      2  C2  A00 X   1      27.650  27.272  56.1670  0.00  0.00     0.000 C
ATOM      3  C3  A00 X   1      27.591  25.713  56.0480  0.00  0.00     0.000 C
ATOM      4  C4  A00 X   1      26.398  25.032  56.7660  0.00  0.00     0.000 C
ATOM      5  C5  A00 X   1      25.822  25.904  57.8810  0.00  0.00     0.000 C
ATOM      6  O5  A00 X   1      25.341  27.090  57.2100  0.00  0.00     0.000 O
ATOM      7   O  A00 X   1      28.776  25.166  56.6230  0.00  0.00     0.000 O
ATOM      9  HD  A00 X   1      28.115  24.663  56.8710  0.00  0.00     0.000 HD
ATOM      9   O  A00 X   1      25.365  24.683  55.8440  0.00  0.00     0.000 O
ATOM     11  HD  A00 X   1      24.705  24.181  56.0930  0.00  0.00     0.000 HD
ENDROOT
BRANCH 2 11
ATOM     11   O  A00 X   1      27.991  27.828  54.8820  0.00  0.00     0.000 O
ATOM     12   O  A00 X   1      29.715  26.881  53.5040  0.00  0.00     0.000 OA
ATOM     13   O  A00 X   1      30.306  27.837  55.6610  0.00  0.00     0.000 OA
ATOM     14   O  A00 X   1      29.565  29.236  53.8860  0.00  0.00     0.000 OA
ATOM     15   S  A00 X   1      29.501  27.925  54.4740  0.00  0.00     0.000 S
ENDBRANCH 2 11
BRANCH 5 16
ATOM     16   C  A00 X   1      26.786  26.201  59.0340  0.00  0.00     0.000 C
ATOM     17   O  A00 X   1      26.480  27.053  59.8430  0.00  0.00     0.000 OA
ATOM     18   O  A00 X   1      27.839  25.611  59.1720  0.00  0.00     0.000 OA
ENDBRANCH 5 16
BRANCH 1 19
ATOM     19  O4  A00 X   2      26.611  29.094  57.5260  0.00  0.00     0.000 O
BRANCH 19 23
ATOM     20  C1  A00 X   2      23.804  31.646  55.5340  0.00  0.00     0.000 C
ATOM     21  C2  A00 X   2      25.306  31.868  55.2370  0.00  0.00     0.000 C
ATOM     22  C3  A00 X   2      26.138  30.640  55.6630  0.00  0.00     0.000 C
ATOM     23  C4  A00 X   2      25.864  30.284  57.1410  0.00  0.00     0.000 C
ATOM     24  C5  A00 X   2      24.330  30.106  57.3110  0.00  0.00     0.000 C
ATOM     25  O5  A00 X   2      23.674  31.349  56.9500  0.00  0.00     0.000 O
ATOM     26   O  A00 X   2      27.512  30.866  55.3050  0.00  0.00     0.000 O
ATOM     28  HD  A00 X   2      27.533  31.647  55.6780  0.00  0.00     0.000 HD
BRANCH 21 30
ATOM     28   N  A00 X   2      25.177  33.328  55.2580  0.00  0.00     0.000 N
ATOM     30  HD  A00 X   2      25.879  33.146  54.7850  0.00  0.00     0.000 HD
ATOM     30   O  A00 X   2      26.518  34.201  53.5550  0.00  0.00     0.000 OA
ATOM     31   S  A00 X   2      26.459  34.208  54.9740  0.00  0.00     0.000 S
ATOM     32   O  A00 X   2      26.139  35.473  55.5590  0.00  0.00     0.000 OA
ATOM     33   O  A00 X   2      27.553  33.599  55.6710  0.00  0.00     0.000 OA
ENDBRANCH 21 30
BRANCH 24 34
ATOM     34   C  A00 X   2      23.811  29.522  58.6460  0.00  0.00     0.000 C
ATOM     35   O  A00 X   2      21.792  31.382  61.0380  0.00  0.00     0.000 OA
ATOM     36   O  A00 X   2      23.357  30.566  59.5310  0.00  0.00     0.000 O
ATOM     37   O  A00 X   2      21.210  31.088  58.7650  0.00  0.00     0.000 OA
ATOM     38   S  A00 X   2      21.833  30.505  59.9140  0.00  0.00     0.000 S
ATOM     39   O  A00 X   2      21.542  29.133  60.2030  0.00  0.00     0.000 OA
ENDBRANCH 24 34
BRANCH 20 40
ATOM     40  O4  A00 X   3      23.422  30.496  54.7660  0.00  0.00     0.000 O
BRANCH 40 44
ATOM     41  C1  A00 X   3      21.945  27.193  54.5910  0.00  0.00     0.000 C
ATOM     42  C2  A00 X   3      22.525  27.963  53.3840  0.00  0.00     0.000 C
ATOM     43  C3  A00 X   3      21.942  29.397  53.3090  0.00  0.00     0.000 C
ATOM     44  C4  A00 X   3      22.021  30.182  54.6120  0.00  0.00     0.000 C
ATOM     45  C5  A00 X   3      21.415  29.346  55.7750  0.00  0.00     0.000 C
ATOM     46  O5  A00 X   3      21.986  27.998  55.8010  0.00  0.00     0.000 O
ATOM     47   O  A00 X   3      22.342  30.174  52.1820  0.00  0.00     0.000 O
ATOM     49  HD  A00 X   3      22.363  30.810  52.7690  0.00  0.00     0.000 HD
BRANCH 42 49
ATOM     49   O  A00 X   3      23.960  27.984  53.5460  0.00  0.00     0.000 O
ATOM     50   O  A00 X   3      25.864  28.118  52.1010  0.00  0.00     0.000 OA
ATOM     51   O  A00 X   3      24.049  26.741  51.4710  0.00  0.00     0.000 OA
ATOM     52   O  A00 X   3      25.351  26.104  53.3370  0.00  0.00     0.000 OA
ATOM     53   S  A00 X   3      24.874  27.196  52.5620  0.00  0.00     0.000 S
ENDBRANCH 42 49
BRANCH 45 54
ATOM     54   C  A00 X   3      19.883  29.352  55.7390  0.00  0.00     0.000 C
ATOM     55   O  A00 X   3      19.240  29.011  56.7110  0.00  0.00     0.000 OA
ATOM     56   O  A00 X   3      19.282  29.697  54.7340  0.00  0.00     0.000 OA
ENDBRANCH 45 54
BRANCH 41 57
ATOM     57  O4  A00 X   4      20.642  26.641  54.2960  0.00  0.00     0.000 O
BRANCH 57 61
ATOM     58  C1  A00 X   4      18.650  22.990  55.4510  0.00  0.00     0.000 C
ATOM     59  C2  A00 X   4      18.674  24.170  56.4540  0.00  0.00     0.000 C
ATOM     60  C3  A00 X   4      19.083  25.512  55.8140  0.00  0.00     0.000 C
ATOM     61  C4  A00 X   4      20.349  25.370  54.9420  0.00  0.00     0.000 C
ATOM     62  C5  A00 X   4      20.026  24.291  53.8790  0.00  0.00     0.000 C
ATOM     63  O5  A00 X   4      19.775  23.026  54.5440  0.00  0.00     0.000 O
BRANCH 59 66
ATOM     64   N  A00 X   4      19.568  24.116  57.6260  0.00  0.00     0.000 N
ATOM     66  HD  A00 X   4      20.332  23.720  57.5280  0.00  0.00     0.000 HD
ATOM     66   O  A00 X   4      18.017  22.559  58.6100  0.00  0.00     0.000 OA
ATOM     67   S  A00 X   4      18.983  23.538  58.9980  0.00  0.00     0.000 S
ATOM     68   O  A00 X   4      20.181  23.022  59.5930  0.00  0.00     0.000 OA
ATOM     69   O  A00 X   4      18.503  24.751  59.5980  0.00  0.00     0.000 OA
ENDBRANCH 59 66
BRANCH 62 70
ATOM     70   C  A00 X   4      21.146  24.081  52.8310  0.00  0.00     0.000 C
ATOM     71   O  A00 X   4      21.566  25.695  49.6180  0.00  0.00     0.000 OA
ATOM     72   O  A00 X   4      21.636  23.417  50.2120  0.00  0.00     0.000 OA
ATOM     73   O  A00 X   4      21.052  25.103  51.8250  0.00  0.00     0.000 O
ATOM     74   O  A00 X   4      19.488  24.560  50.0740  0.00  0.00     0.000 OA
ATOM     75   S  A00 X   4      20.889  24.650  50.3330  0.00  0.00     0.000 S
ENDBRANCH 62 70
ENDBRANCH 57 61
ENDBRANCH 41 57
ENDBRANCH 40 44
ENDBRANCH 20 40
ENDBRANCH 19 23
ENDBRANCH 1 19
TORSDOF 14
ENDMDL
MODEL 8
REMARK VINA RESULT:      -7.7      8.843     12.344
ROOT
ATOM      1  C1  A00 X   1       6.872  50.704  74.6070  0.00  0.00     0.000 C
ATOM      2  C2  A00 X   1       5.938  51.943  74.6200  0.00  0.00     0.000 C
ATOM      3  C3  A00 X   1       4.558  51.771  73.9030  0.00  0.00     0.000 C
ATOM      4  C4  A00 X   1       4.440  50.541  72.9660  0.00  0.00     0.000 C
ATOM      5  C5  A00 X   1       5.805  50.044  72.4920  0.00  0.00     0.000 C
ATOM      6  O5  A00 X   1       6.489  49.641  73.6990  0.00  0.00     0.000 O
ATOM      7   O  A00 X   1       4.317  52.920  73.0940  0.00  0.00     0.000 O
ATOM      9  HD  A00 X   1       4.067  52.229  72.6360  0.00  0.00     0.000 HD
ATOM      9   O  A00 X   1       3.730  49.474  73.5940  0.00  0.00     0.000 O
ATOM     11  HD  A00 X   1       3.479  48.782  73.1360  0.00  0.00     0.000 HD
ENDROOT
BRANCH 2 11
ATOM     11   O  A00 X   1       5.710  52.306  75.9950  0.00  0.00     0.000 O
ATOM     12   O  A00 X   1       4.793  54.439  76.6110  0.00  0.00     0.000 OA
ATOM     13   O  A00 X   1       6.962  54.347  75.5130  0.00  0.00     0.000 OA
ATOM     14   O  A00 X   1       6.697  53.521  77.7280  0.00  0.00     0.000 OA
ATOM     15   S  A00 X   1       6.057  53.761  76.4630  0.00  0.00     0.000 S
ENDBRANCH 2 11
BRANCH 5 16
ATOM     16   C  A00 X   1       6.599  51.041  71.6420  0.00  0.00     0.000 C
ATOM     17   O  A00 X   1       7.795  50.876  71.5160  0.00  0.00     0.000 OA
ATOM     18   O  A00 X   1       6.074  51.985  71.0850  0.00  0.00     0.000 OA
ENDBRANCH 5 16
BRANCH 1 19
ATOM     19  O4  A00 X   2       8.269  51.055  74.4500  0.00  0.00     0.000 O
BRANCH 19 23
ATOM     20  C1  A00 X   2      11.540  48.714  75.9280  0.00  0.00     0.000 C
ATOM     21  C2  A00 X   2      11.526  49.049  74.4170  0.00  0.00     0.000 C
ATOM     22  C3  A00 X   2      10.567  50.221  74.1230  0.00  0.00     0.000 C
ATOM     23  C4  A00 X   2       9.158  49.926  74.6850  0.00  0.00     0.000 C
ATOM     24  C5  A00 X   2       9.310  49.589  76.1930  0.00  0.00     0.000 C
ATOM     25  O5  A00 X   2      10.173  48.430  76.3290  0.00  0.00     0.000 O
ATOM     26   O  A00 X   2      10.642  50.538  72.7220  0.00  0.00     0.000 O
ATOM     28  HD  A00 X   2      10.527  49.715  72.4790  0.00  0.00     0.000 HD
BRANCH 21 30
ATOM     28   N  A00 X   2      12.193  49.608  73.2370  0.00  0.00     0.000 N
ATOM     30  HD  A00 X   2      12.605  48.872  73.4330  0.00  0.00     0.000 HD
ATOM     30   O  A00 X   2      13.497  47.926  72.2740  0.00  0.00     0.000 OA
ATOM     31   S  A00 X   2      13.680  49.172  72.9290  0.00  0.00     0.000 S
ATOM     32   O  A00 X   2      14.176  50.225  72.0960  0.00  0.00     0.000 OA
ATOM     33   O  A00 X   2      14.383  49.152  74.1770  0.00  0.00     0.000 OA
ENDBRANCH 21 30
BRANCH 24 34
ATOM     34   C  A00 X   2       8.024  49.479  77.0450  0.00  0.00     0.000 C
ATOM     35   O  A00 X   2       6.085  46.421  77.4270  0.00  0.00     0.000 OA
ATOM     36   O  A00 X   2       7.290  48.279  76.7310  0.00  0.00     0.000 O
ATOM     37   O  A00 X   2       8.390  46.595  77.9250  0.00  0.00     0.000 OA
ATOM     38   S  A00 X   2       7.125  47.263  77.9200  0.00  0.00     0.000 S
ATOM     39   O  A00 X   2       6.781  48.041  79.0720  0.00  0.00     0.000 OA
ENDBRANCH 24 34
BRANCH 20 40
ATOM     40  O4  A00 X   3      11.994  49.906  76.5860  0.00  0.00     0.000 O
BRANCH 40 44
ATOM     41  C1  A00 X   3      10.994  51.471  79.6960  0.00  0.00     0.000 C
ATOM     42  C2  A00 X   3      11.867  52.142  78.6150  0.00  0.00     0.000 C
ATOM     43  C3  A00 X   3      13.054  51.228  78.2130  0.00  0.00     0.000 C
ATOM     44  C4  A00 X   3      12.661  49.799  77.8610  0.00  0.00     0.000 C
ATOM     45  C5  A00 X   3      11.791  49.191  78.9970  0.00  0.00     0.000 C
ATOM     46  O5  A00 X   3      10.690  50.091  79.3500  0.00  0.00     0.000 O
ATOM     47   O  A00 X   3      13.979  51.783  77.2810  0.00  0.00     0.000 O
ATOM     49  HD  A00 X   3      13.973  50.977  76.9660  0.00  0.00     0.000 HD
BRANCH 42 49
ATOM     49   O  A00 X   3      11.007  52.417  77.4870  0.00  0.00     0.000 O
ATOM     50   O  A00 X   3      11.243  53.447  75.3390  0.00  0.00     0.000 OA
ATOM     51   O  A00 X   3      12.299  54.444  77.2050  0.00  0.00     0.000 OA
ATOM     52   O  A00 X   3       9.938  54.471  77.0980  0.00  0.00     0.000 OA
ATOM     53   S  A00 X   3      11.118  53.770  76.7250  0.00  0.00     0.000 S
ENDBRANCH 42 49
BRANCH 45 54
ATOM     54   C  A00 X   3      12.641  48.775  80.2030  0.00  0.00     0.000 C
ATOM     55   O  A00 X   3      13.793  49.144  80.3050  0.00  0.00     0.000 OA
ATOM     56   O  A00 X   3      12.176  48.065  81.0810  0.00  0.00     0.000 OA
ENDBRANCH 45 54
BRANCH 41 57
ATOM     57  O4  A00 X   4      11.559  51.634  81.0160  0.00  0.00     0.000 O
BRANCH 57 61
ATOM     58  C1  A00 X   4       9.802  52.024  84.9410  0.00  0.00     0.000 C
ATOM     59  C2  A00 X   4       9.569  50.712  84.1510  0.00  0.00     0.000 C
ATOM     60  C3  A00 X   4      10.519  50.541  82.9490  0.00  0.00     0.000 C
ATOM     61  C4  A00 X   4      10.588  51.819  82.0860  0.00  0.00     0.000 C
ATOM     62  C5  A00 X   4      11.042  52.959  83.0310  0.00  0.00     0.000 C
ATOM     63  O5  A00 X   4      10.042  53.149  84.0640  0.00  0.00     0.000 O
BRANCH 59 66
ATOM     64   N  A00 X   4       8.696  49.605  83.7200  0.00  0.00     0.000 N
ATOM     66  HD  A00 X   4       8.179  49.745  83.0390  0.00  0.00     0.000 HD
ATOM     66   O  A00 X   4       7.425  49.954  85.7350  0.00  0.00     0.000 OA
ATOM     67   S  A00 X   4       7.754  48.913  84.8120  0.00  0.00     0.000 S
ATOM     68   O  A00 X   4       6.677  48.465  83.9780  0.00  0.00     0.000 OA
ATOM     69   O  A00 X   4       8.622  47.864  85.2670  0.00  0.00     0.000 OA
ENDBRANCH 59 66
BRANCH 62 70
ATOM     70   C  A00 X   4      11.278  54.313  82.3200  0.00  0.00     0.000 C
ATOM     71   O  A00 X   4       8.833  56.590  80.9250  0.00  0.00     0.000 OA
ATOM     72   O  A00 X   4      10.814  55.712  80.0030  0.00  0.00     0.000 OA
ATOM     73   O  A00 X   4      10.020  54.988  82.1550  0.00  0.00     0.000 O
ATOM     74   O  A00 X   4       8.836  54.300  80.1720  0.00  0.00     0.000 OA
ATOM     75   S  A00 X   4       9.589  55.390  80.7010  0.00  0.00     0.000 S
ENDBRANCH 62 70
ENDBRANCH 57 61
ENDBRANCH 41 57
ENDBRANCH 40 44
ENDBRANCH 20 40
ENDBRANCH 19 23
ENDBRANCH 1 19
TORSDOF 14
ENDMDL
MODEL 9
REMARK VINA RESULT:      -7.6     49.124     54.277
ROOT
ATOM      1  C1  A00 X   1       6.620  62.548  31.8210  0.00  0.00     0.000 C
ATOM      2  C2  A00 X   1       5.222  62.756  32.4610  0.00  0.00     0.000 C
ATOM      3  C3  A00 X   1       5.088  62.350  33.9660  0.00  0.00     0.000 C
ATOM      4  C4  A00 X   1       6.231  61.464  34.5230  0.00  0.00     0.000 C
ATOM      5  C5  A00 X   1       6.970  60.710  33.4170  0.00  0.00     0.000 C
ATOM      6  O5  A00 X   1       7.549  61.746  32.5920  0.00  0.00     0.000 O
ATOM      7   O  A00 X   1       3.882  61.608  34.1330  0.00  0.00     0.000 O
ATOM      9  HD  A00 X   1       4.491  61.216  34.6080  0.00  0.00     0.000 HD
ATOM      9   O  A00 X   1       7.161  62.231  35.2880  0.00  0.00     0.000 O
ATOM     11  HD  A00 X   1       7.770  61.839  35.7630  0.00  0.00     0.000 HD
ENDROOT
BRANCH 2 11
ATOM     11   O  A00 X   1       4.877  64.147  32.3180  0.00  0.00     0.000 O
ATOM     12   O  A00 X   1       2.683  64.972  32.8430  0.00  0.00     0.000 OA
ATOM     13   O  A00 X   1       2.954  63.387  31.0170  0.00  0.00     0.000 OA
ATOM     14   O  A00 X   1       3.811  65.598  30.8300  0.00  0.00     0.000 OA
ATOM     15   S  A00 X   1       3.475  64.524  31.7250  0.00  0.00     0.000 S
ENDBRANCH 2 11
BRANCH 5 16
ATOM     16   C  A00 X   1       6.116  59.708  32.6340  0.00  0.00     0.000 C
ATOM     17   O  A00 X   1       6.600  59.166  31.6620  0.00  0.00     0.000 OA
ATOM     18   O  A00 X   1       4.977  59.432  32.9550  0.00  0.00     0.000 OA
ENDBRANCH 5 16
BRANCH 1 19
ATOM     19  O4  A00 X   2       6.547  62.096  30.4460  0.00  0.00     0.000 O
BRANCH 19 23
ATOM     20  C1  A00 X   2      10.120  64.133  29.2440  0.00  0.00     0.000 C
ATOM     21  C2  A00 X   2       8.772  64.855  29.0050  0.00  0.00     0.000 C
ATOM     22  C3  A00 X   2       7.652  64.222  29.8570  0.00  0.00     0.000 C
ATOM     23  C4  A00 X   2       7.571  62.699  29.6040  0.00  0.00     0.000 C
ATOM     24  C5  A00 X   2       8.981  62.101  29.8580  0.00  0.00     0.000 C
ATOM     25  O5  A00 X   2       9.924  62.725  28.9480  0.00  0.00     0.000 O
ATOM     26   O  A00 X   2       6.439  64.968  29.6520  0.00  0.00     0.000 O
ATOM     28  HD  A00 X   2       6.503  64.931  28.7890  0.00  0.00     0.000 HD
BRANCH 21 30
ATOM     28   N  A00 X   2       9.613  65.668  28.1210  0.00  0.00     0.000 N
ATOM     30  HD  A00 X   2       8.798  65.936  28.0080  0.00  0.00     0.000 HD
ATOM     30   O  A00 X   2       8.375  67.531  27.4490  0.00  0.00     0.000 OA
ATOM     31   S  A00 X   2       8.947  66.367  26.8700  0.00  0.00     0.000 S
ATOM     32   O  A00 X   2      10.048  66.608  25.9900  0.00  0.00     0.000 OA
ATOM     33   O  A00 X   2       8.043  65.420  26.2880  0.00  0.00     0.000 OA
ENDBRANCH 21 30
BRANCH 24 34
ATOM     34   C  A00 X   2       9.119  60.560  29.8970  0.00  0.00     0.000 C
ATOM     35   O  A00 X   2       7.839  58.330  27.3200  0.00  0.00     0.000 OA
ATOM     36   O  A00 X   2       8.229  59.932  28.9540  0.00  0.00     0.000 O
ATOM     37   O  A00 X   2       9.331  60.116  26.9000  0.00  0.00     0.000 OA
ATOM     38   S  A00 X   2       8.931  59.097  27.8220  0.00  0.00     0.000 S
ATOM     39   O  A00 X   2       9.964  58.337  28.4600  0.00  0.00     0.000 OA
ENDBRANCH 24 34
BRANCH 20 40
ATOM     40  O4  A00 X   3      10.405  64.296  30.6410  0.00  0.00     0.000 O
BRANCH 40 44
ATOM     41  C1  A00 X   3      11.456  62.781  33.7590  0.00  0.00     0.000 C
ATOM     42  C2  A00 X   3      11.051  64.262  33.5920  0.00  0.00     0.000 C
ATOM     43  C3  A00 X   3      11.815  64.918  32.4140  0.00  0.00     0.000 C
ATOM     44  C4  A00 X   3      11.761  64.133  31.1090  0.00  0.00     0.000 C
ATOM     45  C5  A00 X   3      12.186  62.658  31.3570  0.00  0.00     0.000 C
ATOM     46  O5  A00 X   3      11.448  62.083  32.4830  0.00  0.00     0.000 O
ATOM     47   O  A00 X   3      11.584  66.312  32.2200  0.00  0.00     0.000 O
ATOM     49  HD  A00 X   3      11.609  66.085  31.3840  0.00  0.00     0.000 HD
BRANCH 42 49
ATOM     49   O  A00 X   3       9.623  64.288  33.3750  0.00  0.00     0.000 O
ATOM     50   O  A00 X   3       7.969  65.958  32.9230  0.00  0.00     0.000 OA
ATOM     51   O  A00 X   3       9.652  66.421  34.5180  0.00  0.00     0.000 OA
ATOM     52   O  A00 X   3       8.033  64.778  35.0320  0.00  0.00     0.000 OA
ATOM     53   S  A00 X   3       8.754  65.423  33.9910  0.00  0.00     0.000 S
ENDBRANCH 42 49
BRANCH 45 54
ATOM     54   C  A00 X   3      13.707  62.523  31.5000  0.00  0.00     0.000 C
ATOM     55   O  A00 X   3      14.410  63.508  31.5910  0.00  0.00     0.000 OA
ATOM     56   O  A00 X   3      14.237  61.423  31.5230  0.00  0.00     0.000 OA
ENDBRANCH 45 54
BRANCH 41 57
ATOM     57  O4  A00 X   4      12.693  62.646  34.4940  0.00  0.00     0.000 O
BRANCH 57 61
ATOM     58  C1  A00 X   4      14.193  59.630  37.1940  0.00  0.00     0.000 C
ATOM     59  C2  A00 X   4      13.875  59.225  35.7330  0.00  0.00     0.000 C
ATOM     60  C3  A00 X   4      13.698  60.429  34.7860  0.00  0.00     0.000 C
ATOM     61  C4  A00 X   4      12.760  61.498  35.3860  0.00  0.00     0.000 C
ATOM     62  C5  A00 X   4      13.381  61.910  36.7440  0.00  0.00     0.000 C
ATOM     63  O5  A00 X   4      13.402  60.759  37.6280  0.00  0.00     0.000 O
BRANCH 59 66
ATOM     64   N  A00 X   4      13.551  58.250  34.6760  0.00  0.00     0.000 N
ATOM     66  HD  A00 X   4      12.735  58.231  34.3860  0.00  0.00     0.000 HD
ATOM     66   O  A00 X   4      13.820  56.519  36.3280  0.00  0.00     0.000 OA
ATOM     67   S  A00 X   4      13.934  56.716  34.9170  0.00  0.00     0.000 S
ATOM     68   O  A00 X   4      12.931  56.071  34.1210  0.00  0.00     0.000 OA
ATOM     69   O  A00 X   4      15.248  56.690  34.3410  0.00  0.00     0.000 OA
ENDBRANCH 59 66
BRANCH 62 70
ATOM     70   C  A00 X   4      12.636  63.063  37.4570  0.00  0.00     0.000 C
ATOM     71   O  A00 X   4      13.057  64.279  40.8410  0.00  0.00     0.000 OA
ATOM     72   O  A00 X   4      11.110  63.698  39.6500  0.00  0.00     0.000 OA
ATOM     73   O  A00 X   4      13.293  63.357  38.7000  0.00  0.00     0.000 O
ATOM     74   O  A00 X   4      12.565  61.942  40.5090  0.00  0.00     0.000 OA
ATOM     75   S  A00 X   4      12.444  63.276  40.0160  0.00  0.00     0.000 S
ENDBRANCH 62 70
ENDBRANCH 57 61
ENDBRANCH 41 57
ENDBRANCH 40 44
ENDBRANCH 20 40
ENDBRANCH 19 23
ENDBRANCH 1 19
TORSDOF 14
ENDMDL
MODEL 10
REMARK VINA RESULT:      -7.5     28.418     33.911
ROOT
ATOM      1  C1  A00 X   1      25.420  29.144  55.6400  0.00  0.00     0.000 C
ATOM      2  C2  A00 X   1      26.252  30.121  54.7670  0.00  0.00     0.000 C
ATOM      3  C3  A00 X   1      26.579  29.639  53.3160  0.00  0.00     0.000 C
ATOM      4  C4  A00 X   1      26.360  28.127  53.0490  0.00  0.00     0.000 C
ATOM      5  C5  A00 X   1      26.396  27.302  54.3350  0.00  0.00     0.000 C
ATOM      6  O5  A00 X   1      25.288  27.798  55.1200  0.00  0.00     0.000 O
ATOM      7   O  A00 X   1      27.954  29.903  53.0440  0.00  0.00     0.000 O
ATOM      9  HD  A00 X   1      27.775  29.120  52.7190  0.00  0.00     0.000 HD
ATOM      9   O  A00 X   1      25.133  27.892  52.3590  0.00  0.00     0.000 O
ATOM     11  HD  A00 X   1      24.954  27.109  52.0330  0.00  0.00     0.000 HD
ENDROOT
BRANCH 2 11
ATOM     11   O  A00 X   1      25.533  31.368  54.6970  0.00  0.00     0.000 O
ATOM     12   O  A00 X   1      26.155  33.107  53.1620  0.00  0.00     0.000 OA
ATOM     13   O  A00 X   1      27.704  32.466  54.9240  0.00  0.00     0.000 OA
ATOM     14   O  A00 X   1      25.666  33.572  55.4550  0.00  0.00     0.000 OA
ATOM     15   S  A00 X   1      26.341  32.701  54.5320  0.00  0.00     0.000 S
ENDBRANCH 2 11
BRANCH 5 16
ATOM     16   C  A00 X   1      27.734  27.324  55.0810  0.00  0.00     0.000 C
ATOM     17   O  A00 X   1      28.726  27.691  54.4850  0.00  0.00     0.000 OA
ATOM     18   O  A00 X   1      27.836  26.995  56.2460  0.00  0.00     0.000 OA
ENDBRANCH 5 16
BRANCH 1 19
ATOM     19  O4  A00 X   2      25.836  29.136  57.0270  0.00  0.00     0.000 O
BRANCH 19 23
ATOM     20  C1  A00 X   2      21.833  28.845  58.5290  0.00  0.00     0.000 C
ATOM     21  C2  A00 X   2      22.503  30.240  58.5480  0.00  0.00     0.000 C
ATOM     22  C3  A00 X   2      23.725  30.275  57.6070  0.00  0.00     0.000 C
ATOM     23  C4  A00 X   2      24.708  29.132  57.9490  0.00  0.00     0.000 C
ATOM     24  C5  A00 X   2      23.914  27.798  57.9140  0.00  0.00     0.000 C
ATOM     25  O5  A00 X   2      22.843  27.866  58.8910  0.00  0.00     0.000 O
ATOM     26   O  A00 X   2      24.270  31.606  57.6070  0.00  0.00     0.000 O
ATOM     28  HD  A00 X   2      24.294  31.650  58.4720  0.00  0.00     0.000 HD
BRANCH 21 30
ATOM     28   N  A00 X   2      21.358  30.525  59.4180  0.00  0.00     0.000 N
ATOM     30  HD  A00 X   2      21.879  31.215  59.4570  0.00  0.00     0.000 HD
ATOM     30   O  A00 X   2      21.332  32.819  59.8600  0.00  0.00     0.000 OA
ATOM     31   S  A00 X   2      21.524  31.601  60.5640  0.00  0.00     0.000 S
ATOM     32   O  A00 X   2      20.487  31.270  61.4920  0.00  0.00     0.000 OA
ATOM     33   O  A00 X   2      22.810  31.390  61.1590  0.00  0.00     0.000 OA
ENDBRANCH 21 30
BRANCH 24 34
ATOM     34   C  A00 X   2      24.713  26.476  57.9960  0.00  0.00     0.000 C
ATOM     35   O  A00 X   2      24.340  24.027  60.6650  0.00  0.00     0.000 OA
ATOM     36   O  A00 X   2      24.623  25.891  59.3110  0.00  0.00     0.000 O
ATOM     37   O  A00 X   2      22.553  24.802  59.3230  0.00  0.00     0.000 OA
ATOM     38   S  A00 X   2      23.946  24.473  59.3690  0.00  0.00     0.000 S
ATOM     39   O  A00 X   2      24.486  23.721  58.2780  0.00  0.00     0.000 OA
ENDBRANCH 24 34
BRANCH 20 40
ATOM     40  O4  A00 X   3      21.422  28.631  57.1710  0.00  0.00     0.000 O
BRANCH 40 44
ATOM     41  C1  A00 X   3      21.231  26.259  54.4400  0.00  0.00     0.000 C
ATOM     42  C2  A00 X   3      20.801  27.739  54.3520  0.00  0.00     0.000 C
ATOM     43  C3  A00 X   3      19.842  28.108  55.5130  0.00  0.00     0.000 C
ATOM     44  C4  A00 X   3      20.342  27.713  56.8970  0.00  0.00     0.000 C
ATOM     45  C5  A00 X   3      20.750  26.213  56.9060  0.00  0.00     0.000 C
ATOM     46  O5  A00 X   3      21.645  25.908  55.7890  0.00  0.00     0.000 O
ATOM     47   O  A00 X   3      19.310  29.431  55.4840  0.00  0.00     0.000 O
ATOM     49  HD  A00 X   3      19.433  29.379  56.3400  0.00  0.00     0.000 HD
BRANCH 42 49
ATOM     49   O  A00 X   3      22.006  28.534  54.3890  0.00  0.00     0.000 O
ATOM     50   O  A00 X   3      22.543  30.864  54.4960  0.00  0.00     0.000 OA
ATOM     51   O  A00 X   3      20.779  30.163  53.0870  0.00  0.00     0.000 OA
ATOM     52   O  A00 X   3      22.990  29.551  52.5160  0.00  0.00     0.000 OA
ATOM     53   S  A00 X   3      22.100  29.860  53.5810  0.00  0.00     0.000 S
ENDBRANCH 42 49
BRANCH 45 54
ATOM     54   C  A00 X   3      19.525  25.292  56.9670  0.00  0.00     0.000 C
ATOM     55   O  A00 X   3      19.646  24.122  57.2670  0.00  0.00     0.000 OA
ATOM     56   O  A00 X   3      18.409  25.718  56.7150  0.00  0.00     0.000 OA
ENDBRANCH 45 54
BRANCH 41 57
ATOM     57  O4  A00 X   4      20.229  25.378  53.8850  0.00  0.00     0.000 O
BRANCH 57 61
ATOM     58  C1  A00 X   4      20.369  21.361  52.3090  0.00  0.00     0.000 C
ATOM     59  C2  A00 X   4      20.418  21.557  53.8450  0.00  0.00     0.000 C
ATOM     60  C3  A00 X   4      20.003  22.972  54.2970  0.00  0.00     0.000 C
ATOM     61  C4  A00 X   4      20.716  24.068  53.4770  0.00  0.00     0.000 C
ATOM     62  C5  A00 X   4      20.360  23.802  51.9930  0.00  0.00     0.000 C
ATOM     63  O5  A00 X   4      20.887  22.509  51.6000  0.00  0.00     0.000 O
BRANCH 59 66
ATOM     64   N  A00 X   4      20.377  20.990  55.2050  0.00  0.00     0.000 N
ATOM     66  HD  A00 X   4      20.913  21.328  55.7960  0.00  0.00     0.000 HD
ATOM     66   O  A00 X   4      21.387  19.001  54.2990  0.00  0.00     0.000 OA
ATOM     67   S  A00 X   4      20.533  19.407  55.3710  0.00  0.00     0.000 S
ATOM     68   O  A00 X   4      21.113  19.341  56.6810  0.00  0.00     0.000 OA
ATOM     69   O  A00 X   4      19.155  19.009  55.3170  0.00  0.00     0.000 OA
ENDBRANCH 59 66
BRANCH 62 70
ATOM     70   C  A00 X   4      20.898  24.871  51.0120  0.00  0.00     0.000 C
ATOM     71   O  A00 X   4      24.241  25.231  49.6700  0.00  0.00     0.000 OA
ATOM     72   O  A00 X   4      22.813  26.810  50.6770  0.00  0.00     0.000 OA
ATOM     73   O  A00 X   4      22.206  24.486  50.5600  0.00  0.00     0.000 O
ATOM     74   O  A00 X   4      23.961  25.168  52.0640  0.00  0.00     0.000 OA
ATOM     75   S  A00 X   4      23.388  25.489  50.7970  0.00  0.00     0.000 S
ENDBRANCH 62 70
ENDBRANCH 57 61
ENDBRANCH 41 57
ENDBRANCH 40 44
ENDBRANCH 20 40
ENDBRANCH 19 23
ENDBRANCH 1 19
TORSDOF 14
ENDMDL
MODEL 11
REMARK VINA RESULT:      -7.5      5.118     10.362
ROOT
ATOM      1  C1  A00 X   1      11.338  48.322  76.4620  0.00  0.00     0.000 C
ATOM      2  C2  A00 X   1      11.714  49.825  76.5460  0.00  0.00     0.000 C
ATOM      3  C3  A00 X   1      12.584  50.383  75.3720  0.00  0.00     0.000 C
ATOM      4  C4  A00 X   1      13.265  49.315  74.4790  0.00  0.00     0.000 C
ATOM      5  C5  A00 X   1      13.418  47.974  75.1970  0.00  0.00     0.000 C
ATOM      6  O5  A00 X   1      12.065  47.549  75.4750  0.00  0.00     0.000 O
ATOM      7   O  A00 X   1      13.631  51.182  75.9180  0.00  0.00     0.000 O
ATOM      9  HD  A00 X   1      13.975  50.713  75.2760  0.00  0.00     0.000 HD
ATOM      9   O  A00 X   1      12.554  49.127  73.2550  0.00  0.00     0.000 O
ATOM     11  HD  A00 X   1      12.898  48.659  72.6130  0.00  0.00     0.000 HD
ENDROOT
BRANCH 2 11
ATOM     11   O  A00 X   1      10.488  50.580  76.6220  0.00  0.00     0.000 O
ATOM     12   O  A00 X   1      10.444  52.963  76.3320  0.00  0.00     0.000 OA
ATOM     13   O  A00 X   1      11.641  52.016  78.2260  0.00  0.00     0.000 OA
ATOM     14   O  A00 X   1       9.268  51.894  78.1170  0.00  0.00     0.000 OA
ATOM     15   S  A00 X   1      10.492  51.960  77.3650  0.00  0.00     0.000 S
ENDBRANCH 2 11
BRANCH 5 16
ATOM     16   C  A00 X   1      14.318  48.003  76.4370  0.00  0.00     0.000 C
ATOM     17   O  A00 X   1      14.365  47.017  77.1430  0.00  0.00     0.000 OA
ATOM     18   O  A00 X   1      14.989  48.971  76.7330  0.00  0.00     0.000 OA
ENDBRANCH 5 16
BRANCH 1 19
ATOM     19  O4  A00 X   2      11.347  47.668  77.7550  0.00  0.00     0.000 O
BRANCH 19 23
ATOM     20  C1  A00 X   2       9.269  44.203  79.1840  0.00  0.00     0.000 C
ATOM     21  C2  A00 X   2      10.547  43.973  78.3410  0.00  0.00     0.000 C
ATOM     22  C3  A00 X   2      11.400  45.257  78.2740  0.00  0.00     0.000 C
ATOM     23  C4  A00 X   2      10.554  46.447  77.7690  0.00  0.00     0.000 C
ATOM     24  C5  A00 X   2       9.301  46.560  78.6810  0.00  0.00     0.000 C
ATOM     25  O5  A00 X   2       8.550  45.321  78.5980  0.00  0.00     0.000 O
ATOM     26   O  A00 X   2      12.604  44.973  77.5410  0.00  0.00     0.000 O
ATOM     28  HD  A00 X   2      12.176  44.614  76.8790  0.00  0.00     0.000 HD
BRANCH 21 30
ATOM     28   N  A00 X   2      11.854  43.459  77.9220  0.00  0.00     0.000 N
ATOM     30  HD  A00 X   2      11.349  42.771  78.0660  0.00  0.00     0.000 HD
ATOM     30   O  A00 X   2      11.595  41.217  77.3170  0.00  0.00     0.000 OA
ATOM     31   S  A00 X   2      12.251  41.981  78.3180  0.00  0.00     0.000 S
ATOM     32   O  A00 X   2      13.679  41.981  78.2390  0.00  0.00     0.000 OA
ATOM     33   O  A00 X   2      11.828  41.778  79.6720  0.00  0.00     0.000 OA
ENDBRANCH 21 30
BRANCH 24 34
ATOM     34   C  A00 X   2       8.405  47.812  78.5320  0.00  0.00     0.000 C
ATOM     35   O  A00 X   2       6.033  48.313  75.8150  0.00  0.00     0.000 OA
ATOM     36   O  A00 X   2       7.845  47.899  77.2070  0.00  0.00     0.000 O
ATOM     37   O  A00 X   2       6.023  46.432  77.2480  0.00  0.00     0.000 OA
ATOM     38   S  A00 X   2       6.275  47.836  77.1370  0.00  0.00     0.000 S
ATOM     39   O  A00 X   2       5.789  48.682  78.1860  0.00  0.00     0.000 OA
ENDBRANCH 24 34
BRANCH 20 40
ATOM     40  O4  A00 X   3       9.730  44.564  80.4950  0.00  0.00     0.000 O
BRANCH 40 44
ATOM     41  C1  A00 X   3      10.452  45.680  83.8650  0.00  0.00     0.000 C
ATOM     42  C2  A00 X   3      10.239  44.207  83.4520  0.00  0.00     0.000 C
ATOM     43  C3  A00 X   3       8.928  44.042  82.6410  0.00  0.00     0.000 C
ATOM     44  C4  A00 X   3       8.775  45.016  81.4790  0.00  0.00     0.000 C
ATOM     45  C5  A00 X   3       8.998  46.473  81.9740  0.00  0.00     0.000 C
ATOM     46  O5  A00 X   3      10.239  46.580  82.7420  0.00  0.00     0.000 O
ATOM     47   O  A00 X   3       8.584  42.706  82.2790  0.00  0.00     0.000 O
ATOM     49  HD  A00 X   3       8.340  43.088  81.5410  0.00  0.00     0.000 HD
BRANCH 42 49
ATOM     49   O  A00 X   3      11.393  43.815  82.6770  0.00  0.00     0.000 O
ATOM     50   O  A00 X   3      12.844  41.914  82.5720  0.00  0.00     0.000 OA
ATOM     51   O  A00 X   3      12.168  42.718  84.6900  0.00  0.00     0.000 OA
ATOM     52   O  A00 X   3      13.618  44.054  83.3870  0.00  0.00     0.000 OA
ATOM     53   S  A00 X   3      12.584  43.079  83.3570  0.00  0.00     0.000 S
ENDBRANCH 42 49
BRANCH 45 54
ATOM     54   C  A00 X   3       7.774  47.010  82.7260  0.00  0.00     0.000 C
ATOM     55   O  A00 X   3       7.839  48.049  83.3510  0.00  0.00     0.000 OA
ATOM     56   O  A00 X   3       6.714  46.403  82.7110  0.00  0.00     0.000 OA
ENDBRANCH 45 54
BRANCH 41 57
ATOM     57  O4  A00 X   4       9.686  46.020  85.0430  0.00  0.00     0.000 O
BRANCH 57 61
ATOM     58  C1  A00 X   4      10.601  48.461  88.4840  0.00  0.00     0.000 C
ATOM     59  C2  A00 X   4       9.792  49.091  87.3230  0.00  0.00     0.000 C
ATOM     60  C3  A00 X   4       9.223  48.051  86.3350  0.00  0.00     0.000 C
ATOM     61  C4  A00 X   4      10.293  47.024  85.9050  0.00  0.00     0.000 C
ATOM     62  C5  A00 X   4      10.815  46.368  87.2070  0.00  0.00     0.000 C
ATOM     63  O5  A00 X   4      11.448  47.380  88.0310  0.00  0.00     0.000 O
BRANCH 59 66
ATOM     64   N  A00 X   4       8.803  50.151  87.0580  0.00  0.00     0.000 N
ATOM     66  HD  A00 X   4       8.703  50.408  86.2370  0.00  0.00     0.000 HD
ATOM     66   O  A00 X   4      10.297  51.682  88.1650  0.00  0.00     0.000 OA
ATOM     67   S  A00 X   4       8.903  51.507  87.9000  0.00  0.00     0.000 S
ATOM     68   O  A00 X   4       8.331  52.434  86.9680  0.00  0.00     0.000 OA
ATOM     69   O  A00 X   4       8.047  51.182  89.0060  0.00  0.00     0.000 OA
ENDBRANCH 59 66
BRANCH 62 70
ATOM     70   C  A00 X   4      11.827  45.220  86.9750  0.00  0.00     0.000 C
ATOM     71   O  A00 X   4      12.619  42.429  89.1400  0.00  0.00     0.000 OA
ATOM     72   O  A00 X   4      14.026  43.954  88.0270  0.00  0.00     0.000 OA
ATOM     73   O  A00 X   4      11.634  44.207  87.9740  0.00  0.00     0.000 O
ATOM     74   O  A00 X   4      12.819  44.665  90.0220  0.00  0.00     0.000 OA
ATOM     75   S  A00 X   4      12.860  43.819  88.8720  0.00  0.00     0.000 S
ENDBRANCH 62 70
ENDBRANCH 57 61
ENDBRANCH 41 57
ENDBRANCH 40 44
ENDBRANCH 20 40
ENDBRANCH 19 23
ENDBRANCH 1 19
TORSDOF 14
ENDMDL
MODEL 12
REMARK VINA RESULT:      -7.4     11.961     16.810
ROOT
ATOM      1  C1  A00 X   1       4.230  51.814  73.9460  0.00  0.00     0.000 C
ATOM      2  C2  A00 X   1       3.300  50.693  74.4840  0.00  0.00     0.000 C
ATOM      3  C3  A00 X   1       4.003  49.532  75.2630  0.00  0.00     0.000 C
ATOM      4  C4  A00 X   1       5.541  49.446  75.0890  0.00  0.00     0.000 C
ATOM      5  C5  A00 X   1       6.016  50.130  73.8070  0.00  0.00     0.000 C
ATOM      6  O5  A00 X   1       5.648  51.517  73.9730  0.00  0.00     0.000 O
ATOM      7   O  A00 X   1       3.473  48.290  74.8070  0.00  0.00     0.000 O
ATOM      9  HD  A00 X   1       4.328  48.185  74.8970  0.00  0.00     0.000 HD
ATOM      9   O  A00 X   1       6.225  49.999  76.2130  0.00  0.00     0.000 O
ATOM     11  HD  A00 X   1       7.080  49.894  76.3030  0.00  0.00     0.000 HD
ENDROOT
BRANCH 2 11
ATOM     11   O  A00 X   1       2.322  51.310  75.3430  0.00  0.00     0.000 O
ATOM     12   O  A00 X   1       0.303  50.179  75.9860  0.00  0.00     0.000 OA
ATOM     13   O  A00 X   1       0.670  50.721  73.6430  0.00  0.00     0.000 OA
ATOM     14   O  A00 X   1       0.286  52.448  75.2340  0.00  0.00     0.000 OA
ATOM     15   S  A00 X   1       0.800  51.122  75.0170  0.00  0.00     0.000 S
ENDBRANCH 2 11
BRANCH 5 16
ATOM     16   C  A00 X   1       5.493  49.508  72.5080  0.00  0.00     0.000 C
ATOM     17   O  A00 X   1       5.148  48.344  72.5190  0.00  0.00     0.000 OA
ATOM     18   O  A00 X   1       5.405  50.138  71.4730  0.00  0.00     0.000 OA
ENDBRANCH 5 16
BRANCH 1 19
ATOM     19  O4  A00 X   2       3.818  52.310  72.6490  0.00  0.00     0.000 O
BRANCH 19 23
ATOM     20  C1  A00 X   2       5.267  56.315  73.1180  0.00  0.00     0.000 C
ATOM     21  C2  A00 X   2       3.955  55.940  73.8480  0.00  0.00     0.000 C
ATOM     22  C3  A00 X   2       3.800  54.408  73.9460  0.00  0.00     0.000 C
ATOM     23  C4  A00 X   2       3.915  53.759  72.5480  0.00  0.00     0.000 C
ATOM     24  C5  A00 X   2       5.256  54.226  71.9180  0.00  0.00     0.000 C
ATOM     25  O5  A00 X   2       5.245  55.673  71.8150  0.00  0.00     0.000 O
ATOM     26   O  A00 X   2       2.605  54.112  74.6900  0.00  0.00     0.000 O
ATOM     28  HD  A00 X   2       2.116  54.643  74.2110  0.00  0.00     0.000 HD
BRANCH 21 30
ATOM     28   N  A00 X   2       3.445  57.290  73.5920  0.00  0.00     0.000 N
ATOM     30  HD  A00 X   2       2.955  56.952  74.2210  0.00  0.00     0.000 HD
ATOM     30   O  A00 X   2       2.089  57.909  75.3910  0.00  0.00     0.000 OA
ATOM     31   S  A00 X   2       1.957  57.630  74.0050  0.00  0.00     0.000 S
ATOM     32   O  A00 X   2       1.629  58.758  73.1900  0.00  0.00     0.000 OA
ATOM     33   O  A00 X   2       1.150  56.503  73.6440  0.00  0.00     0.000 OA
ENDBRANCH 21 30
BRANCH 24 34
ATOM     34   C  A00 X   2       5.722  53.538  70.6130  0.00  0.00     0.000 C
ATOM     35   O  A00 X   2       9.209  52.933  69.7590  0.00  0.00     0.000 OA
ATOM     36   O  A00 X   2       7.129  53.751  70.3840  0.00  0.00     0.000 O
ATOM     37   O  A00 X   2       8.187  52.178  71.7540  0.00  0.00     0.000 OA
ATOM     38   S  A00 X   2       8.010  52.449  70.3600  0.00  0.00     0.000 S
ATOM     39   O  A00 X   2       7.288  51.486  69.5830  0.00  0.00     0.000 OA
ENDBRANCH 24 34
BRANCH 20 40
ATOM     40  O4  A00 X   3       6.325  55.756  73.9100  0.00  0.00     0.000 O
BRANCH 40 44
ATOM     41  C1  A00 X   3       9.334  54.439  75.4400  0.00  0.00     0.000 C
ATOM     42  C2  A00 X   3       8.382  55.458  76.1040  0.00  0.00     0.000 C
ATOM     43  C3  A00 X   3       8.102  56.654  75.1580  0.00  0.00     0.000 C
ATOM     44  C4  A00 X   3       7.669  56.261  73.7520  0.00  0.00     0.000 C
ATOM     45  C5  A00 X   3       8.676  55.241  73.1500  0.00  0.00     0.000 C
ATOM     46  O5  A00 X   3       8.918  54.136  74.0790  0.00  0.00     0.000 O
ATOM     47   O  A00 X   3       7.302  57.703  75.7010  0.00  0.00     0.000 O
ATOM     49  HD  A00 X   3       6.967  57.708  74.9020  0.00  0.00     0.000 HD
BRANCH 42 49
ATOM     49   O  A00 X   3       7.167  54.749  76.4330  0.00  0.00     0.000 O
ATOM     50   O  A00 X   3       5.059  55.294  77.4290  0.00  0.00     0.000 OA
ATOM     51   O  A00 X   3       7.031  56.209  78.3590  0.00  0.00     0.000 OA
ATOM     52   O  A00 X   3       6.666  53.883  78.5570  0.00  0.00     0.000 OA
ATOM     53   S  A00 X   3       6.424  55.042  77.7690  0.00  0.00     0.000 S
ENDBRANCH 42 49
BRANCH 45 54
ATOM     54   C  A00 X   3       9.964  55.926  72.6780  0.00  0.00     0.000 C
ATOM     55   O  A00 X   3      10.736  55.351  71.9390  0.00  0.00     0.000 OA
ATOM     56   O  A00 X   3      10.237  57.061  73.0390  0.00  0.00     0.000 OA
ENDBRANCH 45 54
BRANCH 41 57
ATOM     57  O4  A00 X   4      10.716  54.846  75.5550  0.00  0.00     0.000 O
BRANCH 57 61
ATOM     58  C1  A00 X   4      14.380  52.649  74.9370  0.00  0.00     0.000 C
ATOM     59  C2  A00 X   4      13.950  53.687  73.8710  0.00  0.00     0.000 C
ATOM     60  C3  A00 X   4      12.847  54.649  74.3600  0.00  0.00     0.000 C
ATOM     61  C4  A00 X   4      11.686  53.891  75.0390  0.00  0.00     0.000 C
ATOM     62  C5  A00 X   4      12.314  53.084  76.2030  0.00  0.00     0.000 C
ATOM     63  O5  A00 X   4      13.248  52.115  75.6610  0.00  0.00     0.000 O
BRANCH 59 66
ATOM     64   N  A00 X   4      13.598  53.814  72.4450  0.00  0.00     0.000 N
ATOM     66  HD  A00 X   4      12.931  53.345  72.1540  0.00  0.00     0.000 HD
ATOM     66   O  A00 X   4      15.641  52.642  71.9410  0.00  0.00     0.000 OA
ATOM     67   S  A00 X   4      14.753  53.599  71.3590  0.00  0.00     0.000 S
ATOM     68   O  A00 X   4      13.978  53.127  70.2490  0.00  0.00     0.000 OA
ATOM     69   O  A00 X   4      15.221  54.949  71.2170  0.00  0.00     0.000 OA
ENDBRANCH 59 66
BRANCH 62 70
ATOM     70   C  A00 X   4      11.284  52.336  77.0810  0.00  0.00     0.000 C
ATOM     71   O  A00 X   4       9.641  49.173  76.4440  0.00  0.00     0.000 OA
ATOM     72   O  A00 X   4       8.759  51.254  77.1060  0.00  0.00     0.000 OA
ATOM     73   O  A00 X   4      11.090  51.011  76.5610  0.00  0.00     0.000 O
ATOM     74   O  A00 X   4       9.455  50.922  74.7940  0.00  0.00     0.000 OA
ATOM     75   S  A00 X   4       9.633  50.582  76.1690  0.00  0.00     0.000 S
ENDBRANCH 62 70
ENDBRANCH 57 61
ENDBRANCH 41 57
ENDBRANCH 40 44
ENDBRANCH 20 40
ENDBRANCH 19 23
ENDBRANCH 1 19
TORSDOF 14
ENDMDL
MODEL 13
REMARK VINA RESULT:      -7.3     33.154     37.712
ROOT
ATOM      1  C1  A00 X   1      22.865  50.035  48.0830  0.00  0.00     0.000 C
ATOM      2  C2  A00 X   1      23.808  50.510  46.9470  0.00  0.00     0.000 C
ATOM      3  C3  A00 X   1      24.973  49.537  46.5680  0.00  0.00     0.000 C
ATOM      4  C4  A00 X   1      25.265  48.412  47.5940  0.00  0.00     0.000 C
ATOM      5  C5  A00 X   1      24.763  48.765  48.9950  0.00  0.00     0.000 C
ATOM      6  O5  A00 X   1      23.331  48.896  48.8490  0.00  0.00     0.000 O
ATOM      7   O  A00 X   1      26.176  50.291  46.4400  0.00  0.00     0.000 O
ATOM      9  HD  A00 X   1      26.377  49.557  46.8530  0.00  0.00     0.000 HD
ATOM      9   O  A00 X   1      24.702  47.168  47.1790  0.00  0.00     0.000 O
ATOM     11  HD  A00 X   1      24.904  46.434  47.5930  0.00  0.00     0.000 HD
ENDROOT
BRANCH 2 11
ATOM     11   O  A00 X   1      23.000  50.753  45.7780  0.00  0.00     0.000 O
ATOM     12   O  A00 X   1      23.788  52.087  43.9440  0.00  0.00     0.000 OA
ATOM     13   O  A00 X   1      23.473  53.124  46.1220  0.00  0.00     0.000 OA
ATOM     14   O  A00 X   1      21.599  52.379  44.8600  0.00  0.00     0.000 OA
ATOM     15   S  A00 X   1      22.996  52.186  45.1440  0.00  0.00     0.000 S
ENDBRANCH 2 11
BRANCH 5 16
ATOM     16   C  A00 X   1      25.429  49.988  49.6330  0.00  0.00     0.000 C
ATOM     17   O  A00 X   1      24.940  50.456  50.6400  0.00  0.00     0.000 OA
ATOM     18   O  A00 X   1      26.430  50.499  49.1720  0.00  0.00     0.000 OA
ENDBRANCH 5 16
BRANCH 1 19
ATOM     19  O4  A00 X   2      22.440  51.116  48.9490  0.00  0.00     0.000 O
BRANCH 19 23
ATOM     20  C1  A00 X   2      18.848  51.670  51.2200  0.00  0.00     0.000 C
ATOM     21  C2  A00 X   2      19.950  50.772  51.8330  0.00  0.00     0.000 C
ATOM     22  C3  A00 X   2      21.306  51.013  51.1380  0.00  0.00     0.000 C
ATOM     23  C4  A00 X   2      21.171  50.838  49.6080  0.00  0.00     0.000 C
ATOM     24  C5  A00 X   2      20.029  51.772  49.1220  0.00  0.00     0.000 C
ATOM     25  O5  A00 X   2      18.799  51.396  49.7940  0.00  0.00     0.000 O
ATOM     26   O  A00 X   2      22.306  50.210  51.7860  0.00  0.00     0.000 O
ATOM     28  HD  A00 X   2      21.831  49.488  51.7350  0.00  0.00     0.000 HD
BRANCH 21 30
ATOM     28   N  A00 X   2      20.798  50.550  53.0080  0.00  0.00     0.000 N
ATOM     30  HD  A00 X   2      20.004  50.273  53.2160  0.00  0.00     0.000 HD
ATOM     30   O  A00 X   2      19.689  49.071  54.4370  0.00  0.00     0.000 OA
ATOM     31   S  A00 X   2      20.111  50.427  54.4270  0.00  0.00     0.000 S
ATOM     32   O  A00 X   2      21.166  50.737  55.3410  0.00  0.00     0.000 OA
ATOM     33   O  A00 X   2      19.088  51.427  54.4900  0.00  0.00     0.000 OA
ENDBRANCH 21 30
BRANCH 24 34
ATOM     34   C  A00 X   2      19.844  51.958  47.5980  0.00  0.00     0.000 C
ATOM     35   O  A00 X   2      17.134  50.469  45.6750  0.00  0.00     0.000 OA
ATOM     36   O  A00 X   2      18.922  50.989  47.0610  0.00  0.00     0.000 O
ATOM     37   O  A00 X   2      16.808  51.855  47.5640  0.00  0.00     0.000 OA
ATOM     38   S  A00 X   2      17.619  51.587  46.4150  0.00  0.00     0.000 S
ATOM     39   O  A00 X   2      18.037  52.705  45.6230  0.00  0.00     0.000 OA
ENDBRANCH 24 34
BRANCH 20 40
ATOM     40  O4  A00 X   3      19.284  53.020  51.4340  0.00  0.00     0.000 O
BRANCH 40 44
ATOM     41  C1  A00 X   3      18.462  55.693  49.1300  0.00  0.00     0.000 C
ATOM     42  C2  A00 X   3      19.606  55.745  50.1670  0.00  0.00     0.000 C
ATOM     43  C3  A00 X   3      19.094  55.357  51.5780  0.00  0.00     0.000 C
ATOM     44  C4  A00 X   3      18.300  54.058  51.6290  0.00  0.00     0.000 C
ATOM     45  C5  A00 X   3      17.168  54.084  50.5640  0.00  0.00     0.000 C
ATOM     46  O5  A00 X   3      17.694  54.464  49.2510  0.00  0.00     0.000 O
ATOM     47   O  A00 X   3      20.046  55.454  52.6350  0.00  0.00     0.000 O
ATOM     49  HD  A00 X   3      19.658  54.727  52.9010  0.00  0.00     0.000 HD
BRANCH 42 49
ATOM     49   O  A00 X   3      20.632  54.837  49.7100  0.00  0.00     0.000 O
ATOM     50   O  A00 X   3      22.794  54.143  50.4700  0.00  0.00     0.000 OA
ATOM     51   O  A00 X   3      22.214  56.430  50.6150  0.00  0.00     0.000 OA
ATOM     52   O  A00 X   3      22.522  55.479  48.4730  0.00  0.00     0.000 OA
ATOM     53   S  A00 X   3      22.134  55.231  49.8190  0.00  0.00     0.000 S
ENDBRANCH 42 49
BRANCH 45 54
ATOM     54   C  A00 X   3      15.985  54.950  51.0130  0.00  0.00     0.000 C
ATOM     55   O  A00 X   3      14.877  54.772  50.5500  0.00  0.00     0.000 OA
ATOM     56   O  A00 X   3      16.136  55.833  51.8430  0.00  0.00     0.000 OA
ENDBRANCH 45 54
BRANCH 41 57
ATOM     57  O4  A00 X   4      17.658  56.893  49.1620  0.00  0.00     0.000 O
BRANCH 57 61
ATOM     58  C1  A00 X   4      15.395  59.012  46.1570  0.00  0.00     0.000 C
ATOM     59  C2  A00 X   4      14.899  57.617  46.6120  0.00  0.00     0.000 C
ATOM     60  C3  A00 X   4      15.559  57.125  47.9160  0.00  0.00     0.000 C
ATOM     61  C4  A00 X   4      17.094  57.293  47.8810  0.00  0.00     0.000 C
ATOM     62  C5  A00 X   4      17.362  58.796  47.6220  0.00  0.00     0.000 C
ATOM     63  O5  A00 X   4      16.824  59.160  46.3250  0.00  0.00     0.000 O
BRANCH 59 66
ATOM     64   N  A00 X   4      15.497  57.527  45.2680  0.00  0.00     0.000 N
ATOM     66  HD  A00 X   4      15.851  58.245  44.9390  0.00  0.00     0.000 HD
ATOM     66   O  A00 X   4      13.263  57.301  44.3980  0.00  0.00     0.000 OA
ATOM     67   S  A00 X   4      14.607  56.930  44.0810  0.00  0.00     0.000 S
ATOM     68   O  A00 X   4      15.186  57.607  42.9580  0.00  0.00     0.000 OA
ATOM     69   O  A00 X   4      14.957  55.541  44.1760  0.00  0.00     0.000 OA
ENDBRANCH 59 66
BRANCH 62 70
ATOM     70   C  A00 X   4      18.859  59.187  47.6610  0.00  0.00     0.000 C
ATOM     71   O  A00 X   4      21.317  58.988  45.0100  0.00  0.00     0.000 OA
ATOM     72   O  A00 X   4      21.407  58.251  47.2450  0.00  0.00     0.000 OA
ATOM     73   O  A00 X   4      19.387  59.177  46.3240  0.00  0.00     0.000 O
ATOM     74   O  A00 X   4      20.108  56.991  45.6130  0.00  0.00     0.000 OA
ATOM     75   S  A00 X   4      20.621  58.256  46.0310  0.00  0.00     0.000 S
ENDBRANCH 62 70
ENDBRANCH 57 61
ENDBRANCH 41 57
ENDBRANCH 40 44
ENDBRANCH 20 40
ENDBRANCH 19 23
ENDBRANCH 1 19
TORSDOF 14
ENDMDL
MODEL 14
REMARK VINA RESULT:      -7.2     28.107     32.711
ROOT
ATOM      1  C1  A00 X   1      19.782  51.402  58.7180  0.00  0.00     0.000 C
ATOM      2  C2  A00 X   1      19.605  52.523  59.7760  0.00  0.00     0.000 C
ATOM      3  C3  A00 X   1      18.682  52.181  60.9910  0.00  0.00     0.000 C
ATOM      4  C4  A00 X   1      17.779  50.934  60.8150  0.00  0.00     0.000 C
ATOM      5  C5  A00 X   1      17.545  50.593  59.3430  0.00  0.00     0.000 C
ATOM      6  O5  A00 X   1      18.860  50.289  58.8240  0.00  0.00     0.000 O
ATOM      7   O  A00 X   1      17.808  53.283  61.2270  0.00  0.00     0.000 O
ATOM      9  HD  A00 X   1      17.339  52.561  61.3190  0.00  0.00     0.000 HD
ATOM      9   O  A00 X   1      18.318  49.799  61.4930  0.00  0.00     0.000 O
ATOM     11  HD  A00 X   1      17.848  49.077  61.5850  0.00  0.00     0.000 HD
ENDROOT
BRANCH 2 11
ATOM     11   O  A00 X   1      20.914  52.876  60.2650  0.00  0.00     0.000 O
ATOM     12   O  A00 X   1      21.215  54.296  62.1770  0.00  0.00     0.000 OA
ATOM     13   O  A00 X   1      20.162  55.198  60.1780  0.00  0.00     0.000 OA
ATOM     14   O  A00 X   1      22.468  54.615  60.1670  0.00  0.00     0.000 OA
ATOM     15   S  A00 X   1      21.176  54.347  60.7380  0.00  0.00     0.000 S
ENDBRANCH 2 11
BRANCH 5 16
ATOM     16   C  A00 X   1      16.802  51.666  58.5400  0.00  0.00     0.000 C
ATOM     17   O  A00 X   1      16.862  51.630  57.3280  0.00  0.00     0.000 OA
ATOM     18   O  A00 X   1      16.152  52.544  59.0710  0.00  0.00     0.000 OA
ENDBRANCH 5 16
BRANCH 1 19
ATOM     19  O4  A00 X   2      19.840  51.912  57.3630  0.00  0.00     0.000 O
BRANCH 19 23
ATOM     20  C1  A00 X   2      23.193  52.825  54.8540  0.00  0.00     0.000 C
ATOM     21  C2  A00 X   2      23.171  51.438  55.5420  0.00  0.00     0.000 C
ATOM     22  C3  A00 X   2      21.751  51.092  56.0360  0.00  0.00     0.000 C
ATOM     23  C4  A00 X   2      21.200  52.218  56.9390  0.00  0.00     0.000 C
ATOM     24  C5  A00 X   2      21.292  53.550  56.1460  0.00  0.00     0.000 C
ATOM     25  O5  A00 X   2      22.682  53.796  55.8060  0.00  0.00     0.000 O
ATOM     26   O  A00 X   2      21.770  49.771  56.6030  0.00  0.00     0.000 O
ATOM     28  HD  A00 X   2      22.454  49.942  57.1050  0.00  0.00     0.000 HD
BRANCH 21 30
ATOM     28   N  A00 X   2      24.632  51.518  55.6380  0.00  0.00     0.000 N
ATOM     30  HD  A00 X   2      24.416  50.694  55.7910  0.00  0.00     0.000 HD
ATOM     30   O  A00 X   2      25.489  49.348  55.5230  0.00  0.00     0.000 OA
ATOM     31   S  A00 X   2      25.400  50.409  56.4620  0.00  0.00     0.000 S
ATOM     32   O  A00 X   2      26.646  51.032  56.7890  0.00  0.00     0.000 OA
ATOM     33   O  A00 X   2      24.640  50.163  57.6510  0.00  0.00     0.000 OA
ENDBRANCH 21 30
BRANCH 24 34
ATOM     34   C  A00 X   2      20.593  54.797  56.7380  0.00  0.00     0.000 C
ATOM     35   O  A00 X   2      18.129  56.796  54.9510  0.00  0.00     0.000 OA
ATOM     36   O  A00 X   2      19.954  55.576  55.7070  0.00  0.00     0.000 O
ATOM     37   O  A00 X   2      17.936  54.465  55.3040  0.00  0.00     0.000 OA
ATOM     38   S  A00 X   2      18.393  55.711  55.8390  0.00  0.00     0.000 S
ATOM     39   O  A00 X   2      18.124  55.979  57.2200  0.00  0.00     0.000 OA
ENDBRANCH 24 34
BRANCH 20 40
ATOM     40  O4  A00 X   3      22.290  52.721  53.7440  0.00  0.00     0.000 O
BRANCH 40 44
ATOM     41  C1  A00 X   3      19.726  53.884  51.4640  0.00  0.00     0.000 C
ATOM     42  C2  A00 X   3      20.476  52.541  51.3340  0.00  0.00     0.000 C
ATOM     43  C3  A00 X   3      22.010  52.751  51.4110  0.00  0.00     0.000 C
ATOM     44  C4  A00 X   3      22.476  53.582  52.6000  0.00  0.00     0.000 C
ATOM     45  C5  A00 X   3      21.681  54.917  52.6600  0.00  0.00     0.000 C
ATOM     46  O5  A00 X   3      20.240  54.672  52.5740  0.00  0.00     0.000 O
ATOM     47   O  A00 X   3      22.809  51.586  51.2150  0.00  0.00     0.000 O
ATOM     49  HD  A00 X   3      23.286  51.945  51.8430  0.00  0.00     0.000 HD
BRANCH 42 49
ATOM     49   O  A00 X   3      20.006  51.688  52.4010  0.00  0.00     0.000 O
ATOM     50   O  A00 X   3      18.993  49.526  52.5730  0.00  0.00     0.000 OA
ATOM     51   O  A00 X   3      18.275  50.990  50.8600  0.00  0.00     0.000 OA
ATOM     52   O  A00 X   3      17.769  51.544  53.1020  0.00  0.00     0.000 OA
ATOM     53   S  A00 X   3      18.685  50.881  52.2380  0.00  0.00     0.000 S
ENDBRANCH 42 49
BRANCH 45 54
ATOM     54   C  A00 X   3      22.185  55.925  51.6200  0.00  0.00     0.000 C
ATOM     55   O  A00 X   3      21.809  57.079  51.6450  0.00  0.00     0.000 OA
ATOM     56   O  A00 X   3      22.971  55.585  50.7490  0.00  0.00     0.000 OA
ENDBRANCH 45 54
BRANCH 41 57
ATOM     57  O4  A00 X   4      19.686  54.597  50.2070  0.00  0.00     0.000 O
BRANCH 57 61
ATOM     58  C1  A00 X   4      16.656  56.968  48.2490  0.00  0.00     0.000 C
ATOM     59  C2  A00 X   4      17.448  57.599  49.4210  0.00  0.00     0.000 C
ATOM     60  C3  A00 X   4      18.721  56.813  49.7960  0.00  0.00     0.000 C
ATOM     61  C4  A00 X   4      18.441  55.301  49.9360  0.00  0.00     0.000 C
ATOM     62  C5  A00 X   4      17.848  54.841  48.5810  0.00  0.00     0.000 C
ATOM     63  O5  A00 X   4      16.592  55.527  48.3520  0.00  0.00     0.000 O
BRANCH 59 66
ATOM     64   N  A00 X   4      16.486  57.511  50.5350  0.00  0.00     0.000 N
ATOM     66  HD  A00 X   4      15.863  56.911  50.4780  0.00  0.00     0.000 HD
ATOM     66   O  A00 X   4      15.591  59.621  49.7970  0.00  0.00     0.000 OA
ATOM     67   S  A00 X   4      15.729  58.844  50.9890  0.00  0.00     0.000 S
ATOM     68   O  A00 X   4      14.513  58.287  51.5070  0.00  0.00     0.000 OA
ATOM     69   O  A00 X   4      16.634  59.319  51.9960  0.00  0.00     0.000 OA
ENDBRANCH 59 66
BRANCH 62 70
ATOM     70   C  A00 X   4      17.600  53.316  48.4850  0.00  0.00     0.000 C
ATOM     71   O  A00 X   4      19.040  50.932  46.1720  0.00  0.00     0.000 OA
ATOM     72   O  A00 X   4      16.801  51.301  46.8000  0.00  0.00     0.000 OA
ATOM     73   O  A00 X   4      18.563  52.734  47.5910  0.00  0.00     0.000 O
ATOM     74   O  A00 X   4      17.896  52.858  45.2790  0.00  0.00     0.000 OA
ATOM     75   S  A00 X   4      18.024  51.931  46.3560  0.00  0.00     0.000 S
ENDBRANCH 62 70
ENDBRANCH 57 61
ENDBRANCH 41 57
ENDBRANCH 40 44
ENDBRANCH 20 40
ENDBRANCH 19 23
ENDBRANCH 1 19
TORSDOF 14
ENDMDL
MODEL 15
REMARK VINA RESULT:      -7.2     32.644     37.159
ROOT
ATOM      1  C1  A00 X   1      17.928  51.795  50.3860  0.00  0.00     0.000 C
ATOM      2  C2  A00 X   1      19.423  51.741  49.9730  0.00  0.00     0.000 C
ATOM      3  C3  A00 X   1      20.345  50.827  50.8450  0.00  0.00     0.000 C
ATOM      4  C4  A00 X   1      19.753  50.386  52.2080  0.00  0.00     0.000 C
ATOM      5  C5  A00 X   1      18.651  51.329  52.6910  0.00  0.00     0.000 C
ATOM      6  O5  A00 X   1      17.617  51.231  51.6850  0.00  0.00     0.000 O
ATOM      7   O  A00 X   1      21.548  51.535  51.1360  0.00  0.00     0.000 O
ATOM      9  HD  A00 X   1      21.313  51.122  51.8600  0.00  0.00     0.000 HD
ATOM      9   O  A00 X   1      19.254  49.050  52.1530  0.00  0.00     0.000 O
ATOM     11  HD  A00 X   1      19.019  48.637  52.8770  0.00  0.00     0.000 HD
ENDROOT
BRANCH 2 11
ATOM     11   O  A00 X   1      19.484  51.298  48.6030  0.00  0.00     0.000 O
ATOM     12   O  A00 X   1      21.555  50.674  47.5600  0.00  0.00     0.000 OA
ATOM     13   O  A00 X   1      21.235  52.972  48.2900  0.00  0.00     0.000 OA
ATOM     14   O  A00 X   1      19.979  52.101  46.4670  0.00  0.00     0.000 OA
ATOM     15   S  A00 X   1      20.661  51.796  47.6960  0.00  0.00     0.000 S
ENDBRANCH 2 11
BRANCH 5 16
ATOM     16   C  A00 X   1      19.103  52.767  52.9660  0.00  0.00     0.000 C
ATOM     17   O  A00 X   1      18.260  53.601  53.2250  0.00  0.00     0.000 OA
ATOM     18   O  A00 X   1      20.271  53.098  52.9420  0.00  0.00     0.000 OA
ENDBRANCH 5 16
BRANCH 1 19
ATOM     19  O4  A00 X   2      17.350  53.114  50.2310  0.00  0.00     0.000 O
BRANCH 19 23
ATOM     20  C1  A00 X   2      17.753  55.993  47.0830  0.00  0.00     0.000 C
ATOM     21  C2  A00 X   2      17.404  54.540  46.6810  0.00  0.00     0.000 C
ATOM     22  C3  A00 X   2      16.875  53.747  47.8940  0.00  0.00     0.000 C
ATOM     23  C4  A00 X   2      17.874  53.820  49.0710  0.00  0.00     0.000 C
ATOM     24  C5  A00 X   2      18.155  55.320  49.3620  0.00  0.00     0.000 C
ATOM     25  O5  A00 X   2      18.715  55.931  48.1700  0.00  0.00     0.000 O
ATOM     26   O  A00 X   2      16.501  52.429  47.4570  0.00  0.00     0.000 O
ATOM     28  HD  A00 X   2      17.255  52.295  47.0520  0.00  0.00     0.000 HD
BRANCH 21 30
ATOM     28   N  A00 X   2      17.049  55.108  45.3770  0.00  0.00     0.000 N
ATOM     30  HD  A00 X   2      17.467  54.366  45.2220  0.00  0.00     0.000 HD
ATOM     30   O  A00 X   2      17.262  53.427  43.7690  0.00  0.00     0.000 OA
ATOM     31   S  A00 X   2      17.876  54.662  44.1060  0.00  0.00     0.000 S
ATOM     32   O  A00 X   2      17.655  55.721  43.1700  0.00  0.00     0.000 OA
ATOM     33   O  A00 X   2      19.255  54.619  44.4910  0.00  0.00     0.000 OA
ENDBRANCH 21 30
BRANCH 24 34
ATOM     34   C  A00 X   2      18.946  55.675  50.6430  0.00  0.00     0.000 C
ATOM     35   O  A00 X   2      21.761  57.984  50.7280  0.00  0.00     0.000 OA
ATOM     36   O  A00 X   2      20.197  56.317  50.3230  0.00  0.00     0.000 O
ATOM     37   O  A00 X   2      19.618  58.543  49.8980  0.00  0.00     0.000 OA
ATOM     38   S  A00 X   2      20.355  57.785  50.8630  0.00  0.00     0.000 S
ATOM     39   O  A00 X   2      19.870  57.775  52.2100  0.00  0.00     0.000 OA
ENDBRANCH 24 34
BRANCH 20 40
ATOM     40  O4  A00 X   3      16.528  56.569  47.5590  0.00  0.00     0.000 O
BRANCH 40 44
ATOM     41  C1  A00 X   3      13.696  58.625  48.4970  0.00  0.00     0.000 C
ATOM     42  C2  A00 X   3      14.417  58.689  47.1330  0.00  0.00     0.000 C
ATOM     43  C3  A00 X   3      15.949  58.834  47.3210  0.00  0.00     0.000 C
ATOM     44  C4  A00 X   3      16.568  57.821  48.2770  0.00  0.00     0.000 C
ATOM     45  C5  A00 X   3      15.793  57.818  49.6240  0.00  0.00     0.000 C
ATOM     46  O5  A00 X   3      14.352  57.691  49.3980  0.00  0.00     0.000 O
ATOM     47   O  A00 X   3      16.712  58.990  46.1260  0.00  0.00     0.000 O
ATOM     49  HD  A00 X   3      17.267  58.476  46.5470  0.00  0.00     0.000 HD
BRANCH 42 49
ATOM     49   O  A00 X   3      14.085  57.477  46.4210  0.00  0.00     0.000 O
ATOM     50   O  A00 X   3      14.576  56.540  44.2730  0.00  0.00     0.000 OA
ATOM     51   O  A00 X   3      14.078  58.846  44.4240  0.00  0.00     0.000 OA
ATOM     52   O  A00 X   3      12.351  57.290  44.8490  0.00  0.00     0.000 OA
ATOM     53   S  A00 X   3      13.752  57.525  44.9010  0.00  0.00     0.000 S
ENDBRANCH 42 49
BRANCH 45 54
ATOM     54   C  A00 X   3      16.163  59.026  50.4940  0.00  0.00     0.000 C
ATOM     55   O  A00 X   3      16.005  58.994  51.6970  0.00  0.00     0.000 OA
ATOM     56   O  A00 X   3      16.620  60.041  49.9920  0.00  0.00     0.000 OA
ENDBRANCH 45 54
BRANCH 41 57
ATOM     57  O4  A00 X   4      13.497  59.941  49.0580  0.00  0.00     0.000 O
BRANCH 57 61
ATOM     58  C1  A00 X   4      10.620  61.561  51.8400  0.00  0.00     0.000 C
ATOM     59  C2  A00 X   4      11.654  60.531  52.3590  0.00  0.00     0.000 C
ATOM     60  C3  A00 X   4      12.832  60.302  51.3900  0.00  0.00     0.000 C
ATOM     61  C4  A00 X   4      12.348  60.068  49.9430  0.00  0.00     0.000 C
ATOM     62  C5  A00 X   4      11.510  61.313  49.5580  0.00  0.00     0.000 C
ATOM     63  O5  A00 X   4      10.352  61.396  50.4290  0.00  0.00     0.000 O
BRANCH 59 66
ATOM     64   N  A00 X   4      10.812  59.322  52.4190  0.00  0.00     0.000 N
ATOM     66  HD  A00 X   4      10.099  59.307  51.9290  0.00  0.00     0.000 HD
ATOM     66   O  A00 X   4      10.197  59.985  54.6510  0.00  0.00     0.000 OA
ATOM     67   S  A00 X   4      10.331  58.805  53.8540  0.00  0.00     0.000 S
ATOM     68   O  A00 X   4       9.103  58.158  53.4980  0.00  0.00     0.000 OA
ATOM     69   O  A00 X   4      11.402  57.903  54.1700  0.00  0.00     0.000 OA
ENDBRANCH 59 66
BRANCH 62 70
ATOM     70   C  A00 X   4      11.022  61.317  48.0900  0.00  0.00     0.000 C
ATOM     71   O  A00 X   4       7.808  60.298  46.7720  0.00  0.00     0.000 OA
ATOM     72   O  A00 X   4       9.992  59.742  46.0900  0.00  0.00     0.000 OA
ATOM     73   O  A00 X   4       9.607  61.069  48.0590  0.00  0.00     0.000 O
ATOM     74   O  A00 X   4       9.061  58.722  48.0990  0.00  0.00     0.000 OA
ATOM     75   S  A00 X   4       9.095  59.847  47.2200  0.00  0.00     0.000 S
ENDBRANCH 62 70
ENDBRANCH 57 61
ENDBRANCH 41 57
ENDBRANCH 40 44
ENDBRANCH 20 40
ENDBRANCH 19 23
ENDBRANCH 1 19
TORSDOF 14
ENDMDL
MODEL 16
REMARK VINA RESULT:      -7.1      9.596     15.590
ROOT
ATOM      1  C1  A00 X   1       3.810  52.552  75.6250  0.00  0.00     0.000 C
ATOM      2  C2  A00 X   1       3.511  52.673  74.1070  0.00  0.00     0.000 C
ATOM      3  C3  A00 X   1       2.233  51.929  73.5960  0.00  0.00     0.000 C
ATOM      4  C4  A00 X   1       1.638  50.878  74.5680  0.00  0.00     0.000 C
ATOM      5  C5  A00 X   1       2.672  50.372  75.5740  0.00  0.00     0.000 C
ATOM      6  O5  A00 X   1       3.048  51.543  76.3340  0.00  0.00     0.000 O
ATOM      7   O  A00 X   1       2.559  51.231  72.3960  0.00  0.00     0.000 O
ATOM      9  HD  A00 X   1       2.056  50.707  72.8670  0.00  0.00     0.000 HD
ATOM      9   O  A00 X   1       0.502  51.393  75.2620  0.00  0.00     0.000 O
ATOM     11  HD  A00 X   1      -0.001  50.869  75.7330  0.00  0.00     0.000 HD
ENDROOT
BRANCH 2 11
ATOM     11   O  A00 X   1       3.394  54.075  73.7930  0.00  0.00     0.000 O
ATOM     12   O  A00 X   1       2.310  54.843  71.7930  0.00  0.00     0.000 OA
ATOM     13   O  A00 X   1       4.341  53.518  71.6120  0.00  0.00     0.000 OA
ATOM     14   O  A00 X   1       4.417  55.724  72.4960  0.00  0.00     0.000 OA
ATOM     15   S  A00 X   1       3.619  54.542  72.3140  0.00  0.00     0.000 S
ENDBRANCH 2 11
BRANCH 5 16
ATOM     16   C  A00 X   1       3.863  49.630  74.9610  0.00  0.00     0.000 C
ATOM     17   O  A00 X   1       4.781  49.305  75.6860  0.00  0.00     0.000 OA
ATOM     18   O  A00 X   1       3.919  49.350  73.7800  0.00  0.00     0.000 OA
ENDBRANCH 5 16
BRANCH 1 19
ATOM     19  O4  A00 X   2       5.225  52.443  75.9110  0.00  0.00     0.000 O
BRANCH 19 23
ATOM     20  C1  A00 X   2       8.475  55.149  75.2150  0.00  0.00     0.000 C
ATOM     21  C2  A00 X   2       7.324  55.635  76.1280  0.00  0.00     0.000 C
ATOM     22  C3  A00 X   2       6.478  54.445  76.6260  0.00  0.00     0.000 C
ATOM     23  C4  A00 X   2       5.981  53.594  75.4360  0.00  0.00     0.000 C
ATOM     24  C5  A00 X   2       7.221  53.187  74.5930  0.00  0.00     0.000 C
ATOM     25  O5  A00 X   2       7.884  54.391  74.1260  0.00  0.00     0.000 O
ATOM     26   O  A00 X   2       5.468  54.940  77.5220  0.00  0.00     0.000 O
ATOM     28  HD  A00 X   2       5.206  55.552  76.9680  0.00  0.00     0.000 HD
BRANCH 21 30
ATOM     28   N  A00 X   2       6.968  56.188  77.4380  0.00  0.00     0.000 N
ATOM     30  HD  A00 X   2       7.319  56.834  76.9800  0.00  0.00     0.000 HD
ATOM     30   O  A00 X   2       6.986  58.519  77.2730  0.00  0.00     0.000 OA
ATOM     31   S  A00 X   2       7.708  57.492  77.9380  0.00  0.00     0.000 S
ATOM     32   O  A00 X   2       7.538  57.456  79.3570  0.00  0.00     0.000 OA
ATOM     33   O  A00 X   2       9.093  57.349  77.5990  0.00  0.00     0.000 OA
ENDBRANCH 21 30
BRANCH 24 34
ATOM     34   C  A00 X   2       7.024  52.140  73.4720  0.00  0.00     0.000 C
ATOM     35   O  A00 X   2       8.034  52.644  70.0100  0.00  0.00     0.000 OA
ATOM     36   O  A00 X   2       7.184  52.734  72.1680  0.00  0.00     0.000 O
ATOM     37   O  A00 X   2       9.500  52.837  71.8560  0.00  0.00     0.000 OA
ATOM     38   S  A00 X   2       8.367  52.156  71.3080  0.00  0.00     0.000 S
ATOM     39   O  A00 X   2       8.315  50.732  71.4530  0.00  0.00     0.000 OA
ENDBRANCH 24 34
BRANCH 20 40
ATOM     40  O4  A00 X   3       9.273  54.277  76.0280  0.00  0.00     0.000 O
BRANCH 40 44
ATOM     41  C1  A00 X   3      11.298  51.491  77.1530  0.00  0.00     0.000 C
ATOM     42  C2  A00 X   3      11.185  52.848  77.8820  0.00  0.00     0.000 C
ATOM     43  C3  A00 X   3      11.438  54.025  76.9050  0.00  0.00     0.000 C
ATOM     44  C4  A00 X   3      10.623  53.968  75.6190  0.00  0.00     0.000 C
ATOM     45  C5  A00 X   3      10.791  52.578  74.9440  0.00  0.00     0.000 C
ATOM     46  O5  A00 X   3      10.554  51.498  75.9040  0.00  0.00     0.000 O
ATOM     47   O  A00 X   3      11.445  55.327  77.4870  0.00  0.00     0.000 O
ATOM     49  HD  A00 X   3      11.033  55.534  76.7540  0.00  0.00     0.000 HD
BRANCH 42 49
ATOM     49   O  A00 X   3       9.860  52.912  78.4540  0.00  0.00     0.000 O
ATOM     50   O  A00 X   3       8.575  54.523  79.6720  0.00  0.00     0.000 OA
ATOM     51   O  A00 X   3      10.860  54.243  80.2100  0.00  0.00     0.000 OA
ATOM     52   O  A00 X   3       9.362  52.485  80.7080  0.00  0.00     0.000 OA
ATOM     53   S  A00 X   3       9.635  53.579  79.8420  0.00  0.00     0.000 S
ENDBRANCH 42 49
BRANCH 45 54
ATOM     54   C  A00 X   3      12.139  52.457  74.2220  0.00  0.00     0.000 C
ATOM     55   O  A00 X   3      12.304  51.623  73.3560  0.00  0.00     0.000 OA
ATOM     56   O  A00 X   3      13.069  53.197  74.5050  0.00  0.00     0.000 OA
ENDBRANCH 45 54
BRANCH 41 57
ATOM     57  O4  A00 X   4      12.674  51.072  77.0150  0.00  0.00     0.000 O
BRANCH 57 61
ATOM     58  C1  A00 X   4      14.359  47.278  75.8290  0.00  0.00     0.000 C
ATOM     59  C2  A00 X   4      14.455  48.472  74.8460  0.00  0.00     0.000 C
ATOM     60  C3  A00 X   4      14.155  49.835  75.5020  0.00  0.00     0.000 C
ATOM     61  C4  A00 X   4      12.867  49.790  76.3520  0.00  0.00     0.000 C
ATOM     62  C5  A00 X   4      13.075  48.670  77.4020  0.00  0.00     0.000 C
ATOM     63  O5  A00 X   4      13.226  47.399  76.7200  0.00  0.00     0.000 O
BRANCH 59 66
ATOM     64   N  A00 X   4      14.173  48.952  73.4810  0.00  0.00     0.000 N
ATOM     66  HD  A00 X   4      13.342  49.028  73.2480  0.00  0.00     0.000 HD
ATOM     66   O  A00 X   4      15.006  46.842  72.6740  0.00  0.00     0.000 OA
ATOM     67   S  A00 X   4      14.873  48.202  72.2540  0.00  0.00     0.000 S
ATOM     68   O  A00 X   4      13.906  48.437  71.2220  0.00  0.00     0.000 OA
ATOM     69   O  A00 X   4      16.070  48.984  72.1290  0.00  0.00     0.000 OA
ENDBRANCH 59 66
BRANCH 62 70
ATOM     70   C  A00 X   4      11.924  48.544  78.4280  0.00  0.00     0.000 C
ATOM     71   O  A00 X   4       8.740  46.860  78.0590  0.00  0.00     0.000 OA
ATOM     72   O  A00 X   4       9.251  49.024  78.8340  0.00  0.00     0.000 OA
ATOM     73   O  A00 X   4      10.965  47.587  77.9500  0.00  0.00     0.000 O
ATOM     74   O  A00 X   4       9.346  48.547  76.4460  0.00  0.00     0.000 OA
ATOM     75   S  A00 X   4       9.479  48.059  77.7810  0.00  0.00     0.000 S
ENDBRANCH 62 70
ENDBRANCH 57 61
ENDBRANCH 41 57
ENDBRANCH 40 44
ENDBRANCH 20 40
ENDBRANCH 19 23
ENDBRANCH 1 19
TORSDOF 14
ENDMDL
MODEL 17
REMARK VINA RESULT:      -7.1     28.811     33.806
ROOT
ATOM      1  C1  A00 X   1      19.064  51.870  55.8650  0.00  0.00     0.000 C
ATOM      2  C2  A00 X   1      18.752  50.926  57.0560  0.00  0.00     0.000 C
ATOM      3  C3  A00 X   1      19.903  49.956  57.4840  0.00  0.00     0.000 C
ATOM      4  C4  A00 X   1      21.055  49.793  56.4590  0.00  0.00     0.000 C
ATOM      5  C5  A00 X   1      20.620  50.154  55.0390  0.00  0.00     0.000 C
ATOM      6  O5  A00 X   1      20.260  51.552  55.1100  0.00  0.00     0.000 O
ATOM      7   O  A00 X   1      19.354  48.656  57.6850  0.00  0.00     0.000 O
ATOM      9  HD  A00 X   1      20.109  48.553  57.2730  0.00  0.00     0.000 HD
ATOM      9   O  A00 X   1      22.194  50.570  56.8270  0.00  0.00     0.000 O
ATOM     11  HD  A00 X   1      22.949  50.468  56.4150  0.00  0.00     0.000 HD
ENDROOT
BRANCH 2 11
ATOM     11   O  A00 X   1      18.388  51.747  58.1830  0.00  0.00     0.000 O
ATOM     12   O  A00 X   1      16.973  50.931  59.9440  0.00  0.00     0.000 OA
ATOM     13   O  A00 X   1      16.073  51.137  57.6930  0.00  0.00     0.000 OA
ATOM     14   O  A00 X   1      16.630  53.078  58.9510  0.00  0.00     0.000 OA
ATOM     15   S  A00 X   1      16.916  51.688  58.7190  0.00  0.00     0.000 S
ENDBRANCH 2 11
BRANCH 5 16
ATOM     16   C  A00 X   1      19.518  49.266  54.4530  0.00  0.00     0.000 C
ATOM     17   O  A00 X   1      19.029  49.575  53.3860  0.00  0.00     0.000 OA
ATOM     18   O  A00 X   1      19.123  48.263  55.0130  0.00  0.00     0.000 OA
ENDBRANCH 5 16
BRANCH 1 19
ATOM     19  O4  A00 X   2      17.925  52.067  54.9920  0.00  0.00     0.000 O
BRANCH 19 23
ATOM     20  C1  A00 X   2      19.337  55.671  53.1510  0.00  0.00     0.000 C
ATOM     21  C2  A00 X   2      18.692  55.790  54.5530  0.00  0.00     0.000 C
ATOM     22  C3  A00 X   2      18.638  54.415  55.2520  0.00  0.00     0.000 C
ATOM     23  C4  A00 X   2      17.931  53.376  54.3520  0.00  0.00     0.000 C
ATOM     24  C5  A00 X   2      18.656  53.366  52.9790  0.00  0.00     0.000 C
ATOM     25  O5  A00 X   2      18.573  54.693  52.3970  0.00  0.00     0.000 O
ATOM     26   O  A00 X   2      18.096  54.589  56.5720  0.00  0.00     0.000 O
ATOM     28  HD  A00 X   2      17.414  55.041  56.2870  0.00  0.00     0.000 HD
BRANCH 21 30
ATOM     28   N  A00 X   2      18.898  56.280  55.9200  0.00  0.00     0.000 N
ATOM     30  HD  A00 X   2      18.722  56.971  55.4290  0.00  0.00     0.000 HD
ATOM     30   O  A00 X   2      18.041  58.449  56.0510  0.00  0.00     0.000 OA
ATOM     31   S  A00 X   2      19.298  57.795  56.1300  0.00  0.00     0.000 S
ATOM     32   O  A00 X   2      19.906  57.808  57.4250  0.00  0.00     0.000 OA
ATOM     33   O  A00 X   2      20.264  58.121  55.1240  0.00  0.00     0.000 OA
ENDBRANCH 21 30
BRANCH 24 34
ATOM     34   C  A00 X   2      18.289  52.249  51.9730  0.00  0.00     0.000 C
ATOM     35   O  A00 X   2      17.041  52.862  48.6080  0.00  0.00     0.000 OA
ATOM     36   O  A00 X   2      17.504  52.766  50.8800  0.00  0.00     0.000 O
ATOM     37   O  A00 X   2      19.074  53.736  49.4430  0.00  0.00     0.000 OA
ATOM     38   S  A00 X   2      18.162  52.632  49.4590  0.00  0.00     0.000 S
ATOM     39   O  A00 X   2      18.716  51.313  49.3910  0.00  0.00     0.000 OA
ENDBRANCH 24 34
BRANCH 20 40
ATOM     40  O4  A00 X   3      20.664  55.173  53.3760  0.00  0.00     0.000 O
BRANCH 40 44
ATOM     41  C1  A00 X   3      23.575  53.091  52.8110  0.00  0.00     0.000 C
ATOM     42  C2  A00 X   3      23.517  54.272  53.8040  0.00  0.00     0.000 C
ATOM     43  C3  A00 X   3      22.968  55.549  53.1160  0.00  0.00     0.000 C
ATOM     44  C4  A00 X   3      21.666  55.347  52.3510  0.00  0.00     0.000 C
ATOM     45  C5  A00 X   3      21.805  54.147  51.3720  0.00  0.00     0.000 C
ATOM     46  O5  A00 X   3      22.335  52.969  52.0610  0.00  0.00     0.000 O
ATOM     47   O  A00 X   3      22.952  56.729  53.9160  0.00  0.00     0.000 O
ATOM     49  HD  A00 X   3      22.197  56.857  53.5110  0.00  0.00     0.000 HD
BRANCH 42 49
ATOM     49   O  A00 X   3      22.674  53.861  54.9020  0.00  0.00     0.000 O
ATOM     50   O  A00 X   3      21.742  54.892  56.8510  0.00  0.00     0.000 OA
ATOM     51   O  A00 X   3      23.977  55.383  56.2590  0.00  0.00     0.000 OA
ATOM     52   O  A00 X   3      23.464  53.203  57.0130  0.00  0.00     0.000 OA
ATOM     53   S  A00 X   3      22.968  54.358  56.3480  0.00  0.00     0.000 S
ENDBRANCH 42 49
BRANCH 45 54
ATOM     54   C  A00 X   3      22.606  54.526  50.1210  0.00  0.00     0.000 C
ATOM     55   O  A00 X   3      22.483  53.893  49.0920  0.00  0.00     0.000 OA
ATOM     56   O  A00 X   3      23.383  55.468  50.1370  0.00  0.00     0.000 OA
ENDBRANCH 45 54
BRANCH 41 57
ATOM     57  O4  A00 X   4      24.758  53.146  51.9840  0.00  0.00     0.000 O
BRANCH 57 61
ATOM     58  C1  A00 X   4      27.066  50.138  49.9190  0.00  0.00     0.000 C
ATOM     59  C2  A00 X   4      25.672  50.517  49.3590  0.00  0.00     0.000 C
ATOM     60  C3  A00 X   4      25.108  51.826  49.9480  0.00  0.00     0.000 C
ATOM     61  C4  A00 X   4      25.226  51.860  51.4870  0.00  0.00     0.000 C
ATOM     62  C5  A00 X   4      26.728  51.672  51.8140  0.00  0.00     0.000 C
ATOM     63  O5  A00 X   4      27.160  50.370  51.3430  0.00  0.00     0.000 O
BRANCH 59 66
ATOM     64   N  A00 X   4      24.389  49.798  49.2590  0.00  0.00     0.000 N
ATOM     66  HD  A00 X   4      24.112  49.376  49.9630  0.00  0.00     0.000 HD
ATOM     66   O  A00 X   4      25.498  48.227  47.8090  0.00  0.00     0.000 OA
ATOM     67   S  A00 X   4      24.195  48.760  48.0580  0.00  0.00     0.000 S
ATOM     68   O  A00 X   4      23.259  47.849  48.6520  0.00  0.00     0.000 OA
ATOM     69   O  A00 X   4      23.624  49.625  47.0650  0.00  0.00     0.000 OA
ENDBRANCH 59 66
BRANCH 62 70
ATOM     70   C  A00 X   4      27.066  51.788  53.3190  0.00  0.00     0.000 C
ATOM     71   O  A00 X   4      26.228  49.510  56.0060  0.00  0.00     0.000 OA
ATOM     72   O  A00 X   4      25.977  51.846  55.8400  0.00  0.00     0.000 OA
ATOM     73   O  A00 X   4      26.756  50.546  53.9720  0.00  0.00     0.000 O
ATOM     74   O  A00 X   4      24.446  50.381  54.6350  0.00  0.00     0.000 OA
ATOM     75   S  A00 X   4      25.752  50.581  55.1760  0.00  0.00     0.000 S
ENDBRANCH 62 70
ENDBRANCH 57 61
ENDBRANCH 41 57
ENDBRANCH 40 44
ENDBRANCH 20 40
ENDBRANCH 19 23
ENDBRANCH 1 19
TORSDOF 14
ENDMDL
MODEL 18
REMARK VINA RESULT:      -7.0     50.658     55.131
ROOT
ATOM      1  C1  A00 X   1       8.871  63.096  28.7200  0.00  0.00     0.000 C
ATOM      2  C2  A00 X   1       9.112  63.472  27.2340  0.00  0.00     0.000 C
ATOM      3  C3  A00 X   1       8.983  64.990  26.8790  0.00  0.00     0.000 C
ATOM      4  C4  A00 X   1       8.282  65.869  27.9470  0.00  0.00     0.000 C
ATOM      5  C5  A00 X   1       7.382  65.048  28.8700  0.00  0.00     0.000 C
ATOM      6  O5  A00 X   1       8.279  64.134  29.5400  0.00  0.00     0.000 O
ATOM      7   O  A00 X   1       8.217  65.117  25.6840  0.00  0.00     0.000 O
ATOM      9  HD  A00 X   1       7.955  65.742  26.2220  0.00  0.00     0.000 HD
ATOM      9   O  A00 X   1       9.229  66.601  28.7240  0.00  0.00     0.000 O
ATOM     11  HD  A00 X   1       8.967  67.227  29.2620  0.00  0.00     0.000 HD
ENDROOT
BRANCH 2 11
ATOM     11   O  A00 X   1      10.432  63.017  26.8750  0.00  0.00     0.000 O
ATOM     12   O  A00 X   1      11.047  62.577  24.5960  0.00  0.00     0.000 OA
ATOM     13   O  A00 X   1       9.321  61.223  25.6450  0.00  0.00     0.000 OA
ATOM     14   O  A00 X   1      11.584  61.053  26.3570  0.00  0.00     0.000 OA
ATOM     15   S  A00 X   1      10.578  61.904  25.7810  0.00  0.00     0.000 S
ENDBRANCH 2 11
BRANCH 5 16
ATOM     16   C  A00 X   1       6.205  64.353  28.1770  0.00  0.00     0.000 C
ATOM     17   O  A00 X   1       5.715  63.376  28.7050  0.00  0.00     0.000 OA
ATOM     18   O  A00 X   1       5.743  64.748  27.1250  0.00  0.00     0.000 OA
ENDBRANCH 5 16
BRANCH 1 19
ATOM     19  O4  A00 X   2       8.171  61.838  28.8750  0.00  0.00     0.000 O
BRANCH 19 23
ATOM     20  C1  A00 X   2       9.758  60.944  32.7540  0.00  0.00     0.000 C
ATOM     21  C2  A00 X   2      10.606  60.538  31.5240  0.00  0.00     0.000 C
ATOM     22  C3  A00 X   2      10.137  61.290  30.2610  0.00  0.00     0.000 C
ATOM     23  C4  A00 X   2       8.621  61.086  30.0380  0.00  0.00     0.000 C
ATOM     24  C5  A00 X   2       7.889  61.509  31.3410  0.00  0.00     0.000 C
ATOM     25  O5  A00 X   2       8.366  60.682  32.4340  0.00  0.00     0.000 O
ATOM     26   O  A00 X   2      10.996  60.932  29.1650  0.00  0.00     0.000 O
ATOM     28  HD  A00 X   2      10.911  60.082  29.3100  0.00  0.00     0.000 HD
BRANCH 21 30
ATOM     28   N  A00 X   2      11.062  59.368  32.2810  0.00  0.00     0.000 N
ATOM     30  HD  A00 X   2      11.597  59.453  31.6050  0.00  0.00     0.000 HD
ATOM     30   O  A00 X   2      13.231  58.851  31.5830  0.00  0.00     0.000 OA
ATOM     31   S  A00 X   2      11.933  58.277  31.5390  0.00  0.00     0.000 S
ATOM     32   O  A00 X   2      11.763  57.105  32.3410  0.00  0.00     0.000 OA
ATOM     33   O  A00 X   2      11.354  58.082  30.2430  0.00  0.00     0.000 OA
ENDBRANCH 21 30
BRANCH 24 34
ATOM     34   C  A00 X   2       6.347  61.619  31.3040  0.00  0.00     0.000 C
ATOM     35   O  A00 X   2       4.129  60.028  33.7140  0.00  0.00     0.000 OA
ATOM     36   O  A00 X   2       5.731  60.621  32.1430  0.00  0.00     0.000 O
ATOM     37   O  A00 X   2       5.880  61.504  34.3040  0.00  0.00     0.000 OA
ATOM     38   S  A00 X   2       4.875  61.183  33.3360  0.00  0.00     0.000 S
ATOM     39   O  A00 X   2       4.098  62.261  32.8050  0.00  0.00     0.000 OA
ENDBRANCH 24 34
BRANCH 20 40
ATOM     40  O4  A00 X   3       9.956  62.356  32.9120  0.00  0.00     0.000 O
BRANCH 40 44
ATOM     41  C1  A00 X   3       9.073  65.782  33.6910  0.00  0.00     0.000 C
ATOM     42  C2  A00 X   3      10.503  65.292  33.3730  0.00  0.00     0.000 C
ATOM     43  C3  A00 X   3      10.874  64.063  34.2410  0.00  0.00     0.000 C
ATOM     44  C4  A00 X   3       9.842  62.942  34.2270  0.00  0.00     0.000 C
ATOM     45  C5  A00 X   3       8.434  63.511  34.5600  0.00  0.00     0.000 C
ATOM     46  O5  A00 X   3       8.130  64.676  33.7260  0.00  0.00     0.000 O
ATOM     47   O  A00 X   3      12.207  63.576  34.0930  0.00  0.00     0.000 O
ATOM     49  HD  A00 X   3      11.813  62.807  34.1580  0.00  0.00     0.000 HD
BRANCH 42 49
ATOM     49   O  A00 X   3      10.537  64.974  31.9640  0.00  0.00     0.000 O
ATOM     50   O  A00 X   3      12.141  64.082  30.4280  0.00  0.00     0.000 OA
ATOM     51   O  A00 X   3      12.855  65.667  32.0300  0.00  0.00     0.000 OA
ATOM     52   O  A00 X   3      11.411  66.384  30.3020  0.00  0.00     0.000 OA
ATOM     53   S  A00 X   3      11.805  65.288  31.1180  0.00  0.00     0.000 S
ENDBRANCH 42 49
BRANCH 45 54
ATOM     54   C  A00 X   3       8.274  63.786  36.0600  0.00  0.00     0.000 C
ATOM     55   O  A00 X   3       7.175  63.968  36.5420  0.00  0.00     0.000 OA
ATOM     56   O  A00 X   3       9.248  63.828  36.7960  0.00  0.00     0.000 OA
ENDBRANCH 45 54
BRANCH 41 57
ATOM     57  O4  A00 X   4       9.045  66.614  34.8720  0.00  0.00     0.000 O
BRANCH 57 61
ATOM     58  C1  A00 X   4       6.005  69.220  36.4870  0.00  0.00     0.000 C
ATOM     59  C2  A00 X   4       6.167  67.805  37.0950  0.00  0.00     0.000 C
ATOM     60  C3  A00 X   4       7.488  67.114  36.6990  0.00  0.00     0.000 C
ATOM     61  C4  A00 X   4       7.751  67.206  35.1810  0.00  0.00     0.000 C
ATOM     62  C5  A00 X   4       7.754  68.715  34.8300  0.00  0.00     0.000 C
ATOM     63  O5  A00 X   4       6.445  69.273  35.1100  0.00  0.00     0.000 O
BRANCH 59 66
ATOM     64   N  A00 X   4       5.285  66.627  37.0090  0.00  0.00     0.000 N
ATOM     66  HD  A00 X   4       4.937  66.444  36.2380  0.00  0.00     0.000 HD
ATOM     66   O  A00 X   4       3.674  67.866  38.3020  0.00  0.00     0.000 OA
ATOM     67   S  A00 X   4       4.068  66.516  38.0410  0.00  0.00     0.000 S
ATOM     68   O  A00 X   4       3.142  65.742  37.2670  0.00  0.00     0.000 OA
ATOM     69   O  A00 X   4       4.702  65.787  39.1030  0.00  0.00     0.000 OA
ENDBRANCH 59 66
BRANCH 62 70
ATOM     70   C  A00 X   4       8.114  69.021  33.3560  0.00  0.00     0.000 C
ATOM     71   O  A00 X   4       6.025  68.735  30.4130  0.00  0.00     0.000 OA
ATOM     72   O  A00 X   4       8.207  67.952  30.8280  0.00  0.00     0.000 OA
ATOM     73   O  A00 X   4       6.916  69.006  32.5630  0.00  0.00     0.000 O
ATOM     74   O  A00 X   4       6.304  66.797  31.8210  0.00  0.00     0.000 OA
ATOM     75   S  A00 X   4       6.857  68.023  31.3420  0.00  0.00     0.000 S
ENDBRANCH 62 70
ENDBRANCH 57 61
ENDBRANCH 41 57
ENDBRANCH 40 44
ENDBRANCH 20 40
ENDBRANCH 19 23
ENDBRANCH 1 19
TORSDOF 14
ENDMDL
MODEL 19
REMARK VINA RESULT:      -7.0     23.943     28.965
ROOT
ATOM      1  C1  A00 X   1       3.772  57.963  62.6750  0.00  0.00     0.000 C
ATOM      2  C2  A00 X   1       3.598  57.170  63.9980  0.00  0.00     0.000 C
ATOM      3  C3  A00 X   1       4.499  55.902  64.1630  0.00  0.00     0.000 C
ATOM      4  C4  A00 X   1       5.171  55.386  62.8640  0.00  0.00     0.000 C
ATOM      5  C5  A00 X   1       4.431  55.847  61.6090  0.00  0.00     0.000 C
ATOM      6  O5  A00 X   1       4.525  57.289  61.6360  0.00  0.00     0.000 O
ATOM      7   O  A00 X   1       3.696  54.831  64.6550  0.00  0.00     0.000 O
ATOM      9  HD  A00 X   1       4.220  54.500  64.0500  0.00  0.00     0.000 HD
ATOM      9   O  A00 X   1       6.540  55.785  62.7920  0.00  0.00     0.000 O
ATOM     11  HD  A00 X   1       7.063  55.454  62.1870  0.00  0.00     0.000 HD
ENDROOT
BRANCH 2 11
ATOM     11   O  A00 X   1       3.858  58.075  65.0890  0.00  0.00     0.000 O
ATOM     12   O  A00 X   1       3.370  57.492  67.3670  0.00  0.00     0.000 OA
ATOM     13   O  A00 X   1       1.545  57.687  65.7710  0.00  0.00     0.000 OA
ATOM     14   O  A00 X   1       2.758  59.615  66.4560  0.00  0.00     0.000 OA
ATOM     15   S  A00 X   1       2.804  58.194  66.2430  0.00  0.00     0.000 S
ENDBRANCH 2 11
BRANCH 5 16
ATOM     16   C  A00 X   1       2.996  55.328  61.4760  0.00  0.00     0.000 C
ATOM     17   O  A00 X   1       2.642  54.410  62.1860  0.00  0.00     0.000 OA
ATOM     18   O  A00 X   1       2.200  55.806  60.6920  0.00  0.00     0.000 OA
ENDBRANCH 5 16
BRANCH 1 19
ATOM     19  O4  A00 X   2       2.521  58.486  62.1660  0.00  0.00     0.000 O
BRANCH 19 23
ATOM     20  C1  A00 X   2       4.235  62.256  61.0620  0.00  0.00     0.000 C
ATOM     21  C2  A00 X   2       3.323  62.224  62.3130  0.00  0.00     0.000 C
ATOM     22  C3  A00 X   2       3.144  60.780  62.8260  0.00  0.00     0.000 C
ATOM     23  C4  A00 X   2       2.641  59.858  61.6930  0.00  0.00     0.000 C
ATOM     24  C5  A00 X   2       3.625  59.994  60.4980  0.00  0.00     0.000 C
ATOM     25  O5  A00 X   2       3.646  61.379  60.0650  0.00  0.00     0.000 O
ATOM     26   O  A00 X   2       2.349  60.811  64.0230  0.00  0.00     0.000 O
ATOM     28  HD  A00 X   2       1.733  61.301  63.6620  0.00  0.00     0.000 HD
BRANCH 21 30
ATOM     28   N  A00 X   2       2.856  63.569  61.9620  0.00  0.00     0.000 N
ATOM     30  HD  A00 X   2       2.626  63.431  62.7850  0.00  0.00     0.000 HD
ATOM     30   O  A00 X   2       2.360  64.706  63.9410  0.00  0.00     0.000 OA
ATOM     31   S  A00 X   2       1.678  64.206  62.8010  0.00  0.00     0.000 S
ATOM     32   O  A00 X   2       1.144  65.207  61.9290  0.00  0.00     0.000 OA
ATOM     33   O  A00 X   2       0.710  63.173  63.0240  0.00  0.00     0.000 OA
ENDBRANCH 21 30
BRANCH 24 34
ATOM     34   C  A00 X   2       3.477  59.002  59.3200  0.00  0.00     0.000 C
ATOM     35   O  A00 X   2       0.367  58.424  57.5180  0.00  0.00     0.000 OA
ATOM     36   O  A00 X   2       2.090  58.722  59.0440  0.00  0.00     0.000 O
ATOM     37   O  A00 X   2       1.369  60.550  57.7760  0.00  0.00     0.000 OA
ATOM     38   S  A00 X   2       1.593  59.146  57.6130  0.00  0.00     0.000 S
ATOM     39   O  A00 X   2       2.611  58.739  56.6930  0.00  0.00     0.000 OA
ENDBRANCH 24 34
BRANCH 20 40
ATOM     40  O4  A00 X   3       5.496  61.719  61.4890  0.00  0.00     0.000 O
BRANCH 40 44
ATOM     41  C1  A00 X   3       8.503  59.794  60.8770  0.00  0.00     0.000 C
ATOM     42  C2  A00 X   3       8.182  60.529  62.1960  0.00  0.00     0.000 C
ATOM     43  C3  A00 X   3       7.786  62.004  61.9270  0.00  0.00     0.000 C
ATOM     44  C4  A00 X   3       6.710  62.187  60.8640  0.00  0.00     0.000 C
ATOM     45  C5  A00 X   3       7.107  61.424  59.5690  0.00  0.00     0.000 C
ATOM     46  O5  A00 X   3       7.482  60.041  59.8710  0.00  0.00     0.000 O
ATOM     47   O  A00 X   3       7.551  62.807  63.0820  0.00  0.00     0.000 O
ATOM     49  HD  A00 X   3       6.913  63.126  62.5920  0.00  0.00     0.000 HD
BRANCH 42 49
ATOM     49   O  A00 X   3       7.110  59.803  62.8350  0.00  0.00     0.000 O
ATOM     50   O  A00 X   3       5.916  59.943  64.9060  0.00  0.00     0.000 OA
ATOM     51   O  A00 X   3       8.259  60.261  64.9150  0.00  0.00     0.000 OA
ATOM     52   O  A00 X   3       7.417  58.107  64.4300  0.00  0.00     0.000 OA
ATOM     53   S  A00 X   3       7.163  59.505  64.3620  0.00  0.00     0.000 S
ENDBRANCH 42 49
BRANCH 45 54
ATOM     54   C  A00 X   3       8.176  62.179  58.7700  0.00  0.00     0.000 C
ATOM     55   O  A00 X   3       8.358  61.934  57.5950  0.00  0.00     0.000 OA
ATOM     56   O  A00 X   3       8.863  63.037  59.3010  0.00  0.00     0.000 OA
ENDBRANCH 45 54
BRANCH 41 57
ATOM     57  O4  A00 X   4       9.849  60.067  60.4270  0.00  0.00     0.000 O
BRANCH 57 61
ATOM     58  C1  A00 X   4      12.617  57.899  57.9220  0.00  0.00     0.000 C
ATOM     59  C2  A00 X   4      11.308  58.434  57.2900  0.00  0.00     0.000 C
ATOM     60  C3  A00 X   4      10.586  59.479  58.1640  0.00  0.00     0.000 C
ATOM     61  C4  A00 X   4      10.460  59.013  59.6300  0.00  0.00     0.000 C
ATOM     62  C5  A00 X   4      11.902  58.735  60.1240  0.00  0.00     0.000 C
ATOM     63  O5  A00 X   4      12.475  57.657  59.3400  0.00  0.00     0.000 O
BRANCH 59 66
ATOM     64   N  A00 X   4      10.534  58.737  56.0730  0.00  0.00     0.000 N
ATOM     66  HD  A00 X   4       9.675  58.633  56.1090  0.00  0.00     0.000 HD
ATOM     66   O  A00 X   4      11.507  56.769  55.0830  0.00  0.00     0.000 OA
ATOM     67   S  A00 X   4      10.973  58.039  54.7020  0.00  0.00     0.000 S
ATOM     68   O  A00 X   4       9.713  57.998  54.0180  0.00  0.00     0.000 OA
ATOM     69   O  A00 X   4      11.885  59.025  54.1960  0.00  0.00     0.000 OA
ENDBRANCH 59 66
BRANCH 62 70
ATOM     70   C  A00 X   4      11.995  58.357  61.6220  0.00  0.00     0.000 C
ATOM     71   O  A00 X   4      10.844  55.346  63.2700  0.00  0.00     0.000 OA
ATOM     72   O  A00 X   4      10.522  57.613  63.8170  0.00  0.00     0.000 OA
ATOM     73   O  A00 X   4      11.639  56.974  61.7850  0.00  0.00     0.000 O
ATOM     74   O  A00 X   4       9.263  56.629  61.9780  0.00  0.00     0.000 OA
ATOM     75   S  A00 X   4      10.458  56.631  62.7580  0.00  0.00     0.000 S
ENDBRANCH 62 70
ENDBRANCH 57 61
ENDBRANCH 41 57
ENDBRANCH 40 44
ENDBRANCH 20 40
ENDBRANCH 19 23
ENDBRANCH 1 19
TORSDOF 14
ENDMDL
MODEL 20
REMARK VINA RESULT:      -7.0      9.849     16.837
ROOT
ATOM      1  C1  A00 X   1       5.147  53.049  73.4510  0.00  0.00     0.000 C
ATOM      2  C2  A00 X   1       3.788  52.351  73.7230  0.00  0.00     0.000 C
ATOM      3  C3  A00 X   1       3.851  51.019  74.5420  0.00  0.00     0.000 C
ATOM      4  C4  A00 X   1       5.256  50.374  74.6610  0.00  0.00     0.000 C
ATOM      5  C5  A00 X   1       6.195  50.826  73.5430  0.00  0.00     0.000 C
ATOM      6  O5  A00 X   1       6.326  52.253  73.7290  0.00  0.00     0.000 O
ATOM      7   O  A00 X   1       3.014  50.054  73.9100  0.00  0.00     0.000 O
ATOM      9  HD  A00 X   1       3.736  49.644  74.1550  0.00  0.00     0.000 HD
ATOM      9   O  A00 X   1       5.849  50.646  75.9300  0.00  0.00     0.000 O
ATOM     11  HD  A00 X   1       6.572  50.236  76.1750  0.00  0.00     0.000 HD
ENDROOT
BRANCH 2 11
ATOM     11   O  A00 X   1       2.945  53.290  74.4190  0.00  0.00     0.000 O
ATOM     12   O  A00 X   1       0.549  53.190  74.2800  0.00  0.00     0.000 OA
ATOM     13   O  A00 X   1       1.840  53.666  72.2730  0.00  0.00     0.000 OA
ATOM     14   O  A00 X   1       1.736  55.252  74.0430  0.00  0.00     0.000 OA
ATOM     15   S  A00 X   1       1.680  53.859  73.6880  0.00  0.00     0.000 S
ENDBRANCH 2 11
BRANCH 5 16
ATOM     16   C  A00 X   1       5.759  50.430  72.1290  0.00  0.00     0.000 C
ATOM     17   O  A00 X   1       6.358  50.899  71.1830  0.00  0.00     0.000 OA
ATOM     18   O  A00 X   1       4.842  49.660  71.9220  0.00  0.00     0.000 OA
ENDBRANCH 5 16
BRANCH 1 19
ATOM     19  O4  A00 X   2       5.215  53.651  72.1350  0.00  0.00     0.000 O
BRANCH 19 23
ATOM     20  C1  A00 X   2       8.336  56.432  73.0780  0.00  0.00     0.000 C
ATOM     21  C2  A00 X   2       6.887  56.831  73.4500  0.00  0.00     0.000 C
ATOM     22  C3  A00 X   2       5.962  55.596  73.4560  0.00  0.00     0.000 C
ATOM     23  C4  A00 X   2       6.050  54.844  72.1090  0.00  0.00     0.000 C
ATOM     24  C5  A00 X   2       7.546  54.519  71.8440  0.00  0.00     0.000 C
ATOM     25  O5  A00 X   2       8.291  55.763  71.7890  0.00  0.00     0.000 O
ATOM     26   O  A00 X   2       4.649  56.006  73.8730  0.00  0.00     0.000 O
ATOM     28  HD  A00 X   2       4.618  56.661  73.3060  0.00  0.00     0.000 HD
BRANCH 21 30
ATOM     28   N  A00 X   2       7.237  58.223  73.1510  0.00  0.00     0.000 N
ATOM     30  HD  A00 X   2       6.497  58.241  73.6000  0.00  0.00     0.000 HD
ATOM     30   O  A00 X   2       5.975  59.606  74.5500  0.00  0.00     0.000 OA
ATOM     31   S  A00 X   2       6.092  59.313  73.1650  0.00  0.00     0.000 S
ATOM     32   O  A00 X   2       6.623  60.373  72.3660  0.00  0.00     0.000 OA
ATOM     33   O  A00 X   2       4.948  58.733  72.5260  0.00  0.00     0.000 OA
ENDBRANCH 21 30
BRANCH 24 34
ATOM     34   C  A00 X   2       7.885  53.568  70.6720  0.00  0.00     0.000 C
ATOM     35   O  A00 X   2       6.656  53.999  67.2720  0.00  0.00     0.000 OA
ATOM     36   O  A00 X   2       6.995  53.774  69.5570  0.00  0.00     0.000 O
ATOM     37   O  A00 X   2       7.857  55.652  68.4630  0.00  0.00     0.000 OA
ATOM     38   S  A00 X   2       7.684  54.252  68.2270  0.00  0.00     0.000 S
ATOM     39   O  A00 X   2       8.864  53.454  68.0740  0.00  0.00     0.000 OA
ENDBRANCH 24 34
BRANCH 20 40
ATOM     40  O4  A00 X   3       8.754  55.502  74.0870  0.00  0.00     0.000 O
BRANCH 40 44
ATOM     41  C1  A00 X   3      10.010  52.576  75.8150  0.00  0.00     0.000 C
ATOM     42  C2  A00 X   3       9.894  53.984  76.4380  0.00  0.00     0.000 C
ATOM     43  C3  A00 X   3      10.554  55.050  75.5270  0.00  0.00     0.000 C
ATOM     44  C4  A00 X   3      10.108  55.003  74.0710  0.00  0.00     0.000 C
ATOM     45  C5  A00 X   3      10.259  53.559  73.5150  0.00  0.00     0.000 C
ATOM     46  O5  A00 X   3       9.631  52.586  74.4110  0.00  0.00     0.000 O
ATOM     47   O  A00 X   3      10.584  56.379  76.0440  0.00  0.00     0.000 O
ATOM     49  HD  A00 X   3      10.413  56.583  75.2200  0.00  0.00     0.000 HD
BRANCH 42 49
ATOM     49   O  A00 X   3       8.487  54.249  76.6270  0.00  0.00     0.000 O
ATOM     50   O  A00 X   3       7.162  56.049  77.4860  0.00  0.00     0.000 OA
ATOM     51   O  A00 X   3       9.146  55.447  78.6230  0.00  0.00     0.000 OA
ATOM     52   O  A00 X   3       7.331  53.934  78.6460  0.00  0.00     0.000 OA
ATOM     53   S  A00 X   3       7.987  54.963  77.9160  0.00  0.00     0.000 S
ENDBRANCH 42 49
BRANCH 45 54
ATOM     54   C  A00 X   3      11.720  53.225  73.1910  0.00  0.00     0.000 C
ATOM     55   O  A00 X   3      12.620  53.934  73.5910  0.00  0.00     0.000 OA
ATOM     56   O  A00 X   3      12.003  52.242  72.5230  0.00  0.00     0.000 OA
ENDBRANCH 45 54
BRANCH 41 57
ATOM     57  O4  A00 X   4      11.303  51.984  76.0700  0.00  0.00     0.000 O
BRANCH 57 61
ATOM     58  C1  A00 X   4      12.525  47.856  75.7500  0.00  0.00     0.000 C
ATOM     59  C2  A00 X   4      13.206  48.904  74.8340  0.00  0.00     0.000 C
ATOM     60  C3  A00 X   4      12.960  50.360  75.2780  0.00  0.00     0.000 C
ATOM     61  C4  A00 X   4      11.469  50.624  75.5770  0.00  0.00     0.000 C
ATOM     62  C5  A00 X   4      11.055  49.604  76.6670  0.00  0.00     0.000 C
ATOM     63  O5  A00 X   4      11.193  48.260  76.1390  0.00  0.00     0.000 O
BRANCH 59 66
ATOM     64   N  A00 X   4      13.442  49.249  73.4210  0.00  0.00     0.000 N
ATOM     66  HD  A00 X   4      12.748  49.388  72.9220  0.00  0.00     0.000 HD
ATOM     66   O  A00 X   4      14.182  46.981  73.0940  0.00  0.00     0.000 OA
ATOM     67   S  A00 X   4      14.382  48.289  72.5530  0.00  0.00     0.000 S
ATOM     68   O  A00 X   4      13.836  48.507  71.2450  0.00  0.00     0.000 OA
ATOM     69   O  A00 X   4      15.655  48.917  72.7710  0.00  0.00     0.000 OA
ENDBRANCH 59 66
BRANCH 62 70
ATOM     70   C  A00 X   4       9.608  49.784  77.1830  0.00  0.00     0.000 C
ATOM     71   O  A00 X   4       7.843  47.851  79.6850  0.00  0.00     0.000 OA
ATOM     72   O  A00 X   4       7.198  48.510  77.5190  0.00  0.00     0.000 OA
ATOM     73   O  A00 X   4       9.412  48.959  78.3440  0.00  0.00     0.000 O
ATOM     74   O  A00 X   4       8.799  46.694  77.7970  0.00  0.00     0.000 OA
ATOM     75   S  A00 X   4       8.249  47.908  78.3090  0.00  0.00     0.000 S
ENDBRANCH 62 70
ENDBRANCH 57 61
ENDBRANCH 41 57
ENDBRANCH 40 44
ENDBRANCH 20 40
ENDBRANCH 19 23
ENDBRANCH 1 19
TORSDOF 14
ENDMDL
MODEL 21
REMARK VINA RESULT:      -7.0     12.038     16.741
ROOT
ATOM      1  C1  A00 X   1       4.239  51.948  73.7420  0.00  0.00     0.000 C
ATOM      2  C2  A00 X   1       3.338  50.843  74.3550  0.00  0.00     0.000 C
ATOM      3  C3  A00 X   1       4.073  49.738  75.1820  0.00  0.00     0.000 C
ATOM      4  C4  A00 X   1       5.610  49.667  74.9880  0.00  0.00     0.000 C
ATOM      5  C5  A00 X   1       6.053  50.289  73.6640  0.00  0.00     0.000 C
ATOM      6  O5  A00 X   1       5.663  51.677  73.7610  0.00  0.00     0.000 O
ATOM      7   O  A00 X   1       3.558  48.463  74.8030  0.00  0.00     0.000 O
ATOM      9  HD  A00 X   1       4.416  48.378  74.8840  0.00  0.00     0.000 HD
ATOM      9   O  A00 X   1       6.302  50.291  76.0690  0.00  0.00     0.000 O
ATOM     11  HD  A00 X   1       7.160  50.206  76.1500  0.00  0.00     0.000 HD
ENDROOT
BRANCH 2 11
ATOM     11   O  A00 X   1       2.363  51.489  75.1960  0.00  0.00     0.000 O
ATOM     12   O  A00 X   1       0.371  50.363  75.9260  0.00  0.00     0.000 OA
ATOM     13   O  A00 X   1       0.696  50.789  73.5530  0.00  0.00     0.000 OA
ATOM     14   O  A00 X   1       0.308  52.589  75.0580  0.00  0.00     0.000 OA
ATOM     15   S  A00 X   1       0.840  51.262  74.9020  0.00  0.00     0.000 S
ENDBRANCH 2 11
BRANCH 5 16
ATOM     16   C  A00 X   1       5.520  49.589  72.4090  0.00  0.00     0.000 C
ATOM     17   O  A00 X   1       5.510  50.202  71.3620  0.00  0.00     0.000 OA
ATOM     18   O  A00 X   1       5.115  48.444  72.4240  0.00  0.00     0.000 OA
ENDBRANCH 5 16
BRANCH 1 19
ATOM     19  O4  A00 X   2       3.799  52.366  72.4270  0.00  0.00     0.000 O
BRANCH 19 23
ATOM     20  C1  A00 X   2       5.237  56.392  72.7300  0.00  0.00     0.000 C
ATOM     21  C2  A00 X   2       3.860  56.076  73.3620  0.00  0.00     0.000 C
ATOM     22  C3  A00 X   2       3.681  54.556  73.5580  0.00  0.00     0.000 C
ATOM     23  C4  A00 X   2       3.918  53.804  72.2280  0.00  0.00     0.000 C
ATOM     24  C5  A00 X   2       5.316  54.218  71.6920  0.00  0.00     0.000 C
ATOM     25  O5  A00 X   2       5.329  55.654  71.4820  0.00  0.00     0.000 O
ATOM     26   O  A00 X   2       2.421  54.319  74.2080  0.00  0.00     0.000 O
ATOM     28  HD  A00 X   2       1.982  54.814  73.6480  0.00  0.00     0.000 HD
BRANCH 21 30
ATOM     28   N  A00 X   2       3.398  57.410  72.9670  0.00  0.00     0.000 N
ATOM     30  HD  A00 X   2       2.843  57.119  73.5640  0.00  0.00     0.000 HD
ATOM     30   O  A00 X   2       1.879  58.159  74.5760  0.00  0.00     0.000 OA
ATOM     31   S  A00 X   2       1.882  57.789  73.2050  0.00  0.00     0.000 S
ATOM     32   O  A00 X   2       1.653  58.862  72.2890  0.00  0.00     0.000 OA
ATOM     33   O  A00 X   2       1.097  56.647  72.8400  0.00  0.00     0.000 OA
ENDBRANCH 21 30
BRANCH 24 34
ATOM     34   C  A00 X   2       5.893  53.434  70.4900  0.00  0.00     0.000 C
ATOM     35   O  A00 X   2       9.452  53.076  69.8070  0.00  0.00     0.000 OA
ATOM     36   O  A00 X   2       7.282  53.755  70.2750  0.00  0.00     0.000 O
ATOM     37   O  A00 X   2       8.429  52.460  71.8490  0.00  0.00     0.000 OA
ATOM     38   S  A00 X   2       8.281  52.550  70.4280  0.00  0.00     0.000 S
ATOM     39   O  A00 X   2       7.681  51.439  69.7520  0.00  0.00     0.000 OA
ENDBRANCH 24 34
BRANCH 20 40
ATOM     40  O4  A00 X   3       6.213  55.891  73.6550  0.00  0.00     0.000 O
BRANCH 40 44
ATOM     41  C1  A00 X   3       8.958  55.023  75.8540  0.00  0.00     0.000 C
ATOM     42  C2  A00 X   3       7.981  56.196  76.0860  0.00  0.00     0.000 C
ATOM     43  C3  A00 X   3       7.868  57.083  74.8200  0.00  0.00     0.000 C
ATOM     44  C4  A00 X   3       7.587  56.318  73.5330  0.00  0.00     0.000 C
ATOM     45  C5  A00 X   3       8.611  55.160  73.3680  0.00  0.00     0.000 C
ATOM     46  O5  A00 X   3       8.692  54.356  74.5900  0.00  0.00     0.000 O
ATOM     47   O  A00 X   3       7.058  58.250  74.9470  0.00  0.00     0.000 O
ATOM     49  HD  A00 X   3       6.820  58.035  74.1420  0.00  0.00     0.000 HD
BRANCH 42 49
ATOM     49   O  A00 X   3       6.706  55.621  76.4430  0.00  0.00     0.000 O
ATOM     50   O  A00 X   3       4.492  56.434  76.8550  0.00  0.00     0.000 OA
ATOM     51   O  A00 X   3       6.331  57.646  77.7140  0.00  0.00     0.000 OA
ATOM     52   O  A00 X   3       5.856  55.520  78.6300  0.00  0.00     0.000 OA
ATOM     53   S  A00 X   3       5.779  56.337  77.4690  0.00  0.00     0.000 S
ENDBRANCH 42 49
BRANCH 45 54
ATOM     54   C  A00 X   3       9.975  55.672  72.8910  0.00  0.00     0.000 C
ATOM     55   O  A00 X   3      10.769  54.920  72.3650  0.00  0.00     0.000 OA
ATOM     56   O  A00 X   3      10.287  56.844  73.0330  0.00  0.00     0.000 OA
ENDBRANCH 45 54
BRANCH 41 57
ATOM     57  O4  A00 X   4      10.334  55.432  76.0250  0.00  0.00     0.000 O
BRANCH 57 61
ATOM     58  C1  A00 X   4      13.924  53.317  77.1540  0.00  0.00     0.000 C
ATOM     59  C2  A00 X   4      13.268  52.988  75.7900  0.00  0.00     0.000 C
ATOM     60  C3  A00 X   4      12.228  54.034  75.3400  0.00  0.00     0.000 C
ATOM     61  C4  A00 X   4      11.239  54.383  76.4730  0.00  0.00     0.000 C
ATOM     62  C5  A00 X   4      12.097  54.887  77.6600  0.00  0.00     0.000 C
ATOM     63  O5  A00 X   4      12.962  53.814  78.1120  0.00  0.00     0.000 O
BRANCH 59 66
ATOM     64   N  A00 X   4      12.650  51.738  76.2670  0.00  0.00     0.000 N
ATOM     66  HD  A00 X   4      12.571  51.632  77.1230  0.00  0.00     0.000 HD
ATOM     66   O  A00 X   4      14.636  50.593  75.5300  0.00  0.00     0.000 OA
ATOM     67   S  A00 X   4      13.243  50.350  75.7370  0.00  0.00     0.000 S
ATOM     68   O  A00 X   4      12.923  49.494  76.8420  0.00  0.00     0.000 OA
ATOM     69   O  A00 X   4      12.419  50.148  74.5790  0.00  0.00     0.000 OA
ENDBRANCH 59 66
BRANCH 62 70
ATOM     70   C  A00 X   4      11.271  55.394  78.8660  0.00  0.00     0.000 C
ATOM     71   O  A00 X   4       9.554  53.463  81.4030  0.00  0.00     0.000 OA
ATOM     72   O  A00 X   4       8.811  55.265  80.0820  0.00  0.00     0.000 OA
ATOM     73   O  A00 X   4      10.984  54.291  79.7420  0.00  0.00     0.000 O
ATOM     74   O  A00 X   4       9.025  53.051  79.0870  0.00  0.00     0.000 OA
ATOM     75   S  A00 X   4       9.481  53.984  80.0670  0.00  0.00     0.000 S
ENDBRANCH 62 70
ENDBRANCH 57 61
ENDBRANCH 41 57
ENDBRANCH 40 44
ENDBRANCH 20 40
ENDBRANCH 19 23
ENDBRANCH 1 19
TORSDOF 14
ENDMDL
MODEL 22
REMARK VINA RESULT:      -6.9     23.463     28.165
ROOT
ATOM      1  C1  A00 X   1       2.868  57.647  61.9470  0.00  0.00     0.000 C
ATOM      2  C2  A00 X   1       2.704  57.278  63.4460  0.00  0.00     0.000 C
ATOM      3  C3  A00 X   1       3.106  55.820  63.8420  0.00  0.00     0.000 C
ATOM      4  C4  A00 X   1       3.264  54.825  62.6630  0.00  0.00     0.000 C
ATOM      5  C5  A00 X   1       2.492  55.274  61.4220  0.00  0.00     0.000 C
ATOM      6  O5  A00 X   1       3.097  56.533  61.0490  0.00  0.00     0.000 O
ATOM      7   O  A00 X   1       2.097  55.282  64.6930  0.00  0.00     0.000 O
ATOM      9  HD  A00 X   1       2.329  54.653  64.1440  0.00  0.00     0.000 HD
ATOM      9   O  A00 X   1       4.638  54.625  62.3300  0.00  0.00     0.000 O
ATOM     11  HD  A00 X   1       4.870  53.996  61.7810  0.00  0.00     0.000 HD
ENDROOT
BRANCH 2 11
ATOM     11   O  A00 X   1       3.490  58.208  64.2150  0.00  0.00     0.000 O
ATOM     12   O  A00 X   1       4.056  57.796  66.5130  0.00  0.00     0.000 OA
ATOM     13   O  A00 X   1       1.722  58.090  65.8960  0.00  0.00     0.000 OA
ATOM     14   O  A00 X   1       3.237  59.920  65.7830  0.00  0.00     0.000 OA
ATOM     15   S  A00 X   1       3.088  58.492  65.7030  0.00  0.00     0.000 S
ENDBRANCH 2 11
BRANCH 5 16
ATOM     16   C  A00 X   1       0.972  55.353  61.5980  0.00  0.00     0.000 C
ATOM     17   O  A00 X   1       0.310  55.854  60.7130  0.00  0.00     0.000 OA
ATOM     18   O  A00 X   1       0.408  54.927  62.5860  0.00  0.00     0.000 OA
ENDBRANCH 5 16
BRANCH 1 19
ATOM     19  O4  A00 X   2       1.809  58.508  61.4620  0.00  0.00     0.000 O
BRANCH 19 23
ATOM     20  C1  A00 X   2       4.499  61.681  60.4320  0.00  0.00     0.000 C
ATOM     21  C2  A00 X   2       3.503  61.936  61.5890  0.00  0.00     0.000 C
ATOM     22  C3  A00 X   2       2.925  60.608  62.1200  0.00  0.00     0.000 C
ATOM     23  C4  A00 X   2       2.309  59.784  60.9670  0.00  0.00     0.000 C
ATOM     24  C5  A00 X   2       3.395  59.614  59.8700  0.00  0.00     0.000 C
ATOM     25  O5  A00 X   2       3.799  60.929  59.4060  0.00  0.00     0.000 O
ATOM     26   O  A00 X   2       2.062  60.892  63.2340  0.00  0.00     0.000 O
ATOM     28  HD  A00 X   2       1.621  61.500  62.8020  0.00  0.00     0.000 HD
BRANCH 21 30
ATOM     28   N  A00 X   2       3.456  63.339  61.1660  0.00  0.00     0.000 N
ATOM     30  HD  A00 X   2       3.102  63.304  61.9550  0.00  0.00     0.000 HD
ATOM     30   O  A00 X   2       3.051  64.655  63.0530  0.00  0.00     0.000 OA
ATOM     31   S  A00 X   2       2.400  64.301  61.8420  0.00  0.00     0.000 S
ATOM     32   O  A00 X   2       2.259  65.366  60.8980  0.00  0.00     0.000 OA
ATOM     33   O  A00 X   2       1.173  63.570  61.9540  0.00  0.00     0.000 OA
ENDBRANCH 21 30
BRANCH 24 34
ATOM     34   C  A00 X   2       3.108  58.633  58.7090  0.00  0.00     0.000 C
ATOM     35   O  A00 X   2       0.550  59.165  56.1740  0.00  0.00     0.000 OA
ATOM     36   O  A00 X   2       1.838  58.916  58.0880  0.00  0.00     0.000 O
ATOM     37   O  A00 X   2       2.280  60.706  56.6490  0.00  0.00     0.000 OA
ATOM     38   S  A00 X   2       1.910  59.326  56.5720  0.00  0.00     0.000 S
ATOM     39   O  A00 X   2       2.834  58.425  55.9520  0.00  0.00     0.000 OA
ENDBRANCH 24 34
BRANCH 20 40
ATOM     40  O4  A00 X   3       5.544  60.872  60.9920  0.00  0.00     0.000 O
BRANCH 40 44
ATOM     41  C1  A00 X   3       8.476  59.045  62.0830  0.00  0.00     0.000 C
ATOM     42  C2  A00 X   3       8.126  60.486  62.5140  0.00  0.00     0.000 C
ATOM     43  C3  A00 X   3       7.820  61.376  61.2820  0.00  0.00     0.000 C
ATOM     44  C4  A00 X   3       6.812  60.782  60.3070  0.00  0.00     0.000 C
ATOM     45  C5  A00 X   3       7.234  59.338  59.9170  0.00  0.00     0.000 C
ATOM     46  O5  A00 X   3       7.522  58.538  61.1090  0.00  0.00     0.000 O
ATOM     47   O  A00 X   3       7.568  62.753  61.5550  0.00  0.00     0.000 O
ATOM     49  HD  A00 X   3       6.973  62.650  60.9340  0.00  0.00     0.000 HD
BRANCH 42 49
ATOM     49   O  A00 X   3       6.986  60.398  63.3970  0.00  0.00     0.000 O
ATOM     50   O  A00 X   3       5.638  61.933  64.6450  0.00  0.00     0.000 OA
ATOM     51   O  A00 X   3       7.981  62.247  64.6010  0.00  0.00     0.000 OA
ATOM     52   O  A00 X   3       7.117  60.366  65.7420  0.00  0.00     0.000 OA
ATOM     53   S  A00 X   3       6.911  61.284  64.6750  0.00  0.00     0.000 S
ENDBRANCH 42 49
BRANCH 45 54
ATOM     54   C  A00 X   3       8.381  59.338  58.8990  0.00  0.00     0.000 C
ATOM     55   O  A00 X   3       8.974  58.312  58.6350  0.00  0.00     0.000 OA
ATOM     56   O  A00 X   3       8.718  60.368  58.3360  0.00  0.00     0.000 OA
ENDBRANCH 45 54
BRANCH 41 57
ATOM     57  O4  A00 X   4       9.856  58.933  61.6680  0.00  0.00     0.000 O
BRANCH 57 61
ATOM     58  C1  A00 X   4      12.607  56.101  63.4150  0.00  0.00     0.000 C
ATOM     59  C2  A00 X   4      12.721  56.408  61.9010  0.00  0.00     0.000 C
ATOM     60  C3  A00 X   4      11.949  57.672  61.4700  0.00  0.00     0.000 C
ATOM     61  C4  A00 X   4      10.511  57.685  62.0320  0.00  0.00     0.000 C
ATOM     62  C5  A00 X   4      10.644  57.579  63.5720  0.00  0.00     0.000 C
ATOM     63  O5  A00 X   4      11.265  56.313  63.9110  0.00  0.00     0.000 O
BRANCH 59 66
ATOM     64   N  A00 X   4      13.970  56.519  61.1260  0.00  0.00     0.000 N
ATOM     66  HD  A00 X   4      13.902  56.697  60.2810  0.00  0.00     0.000 HD
ATOM     66   O  A00 X   4      14.229  54.140  61.3930  0.00  0.00     0.000 OA
ATOM     67   S  A00 X   4      15.021  55.316  61.2070  0.00  0.00     0.000 S
ATOM     68   O  A00 X   4      15.652  55.438  59.9250  0.00  0.00     0.000 OA
ATOM     69   O  A00 X   4      15.830  55.760  62.3060  0.00  0.00     0.000 OA
ENDBRANCH 59 66
BRANCH 62 70
ATOM     70   C  A00 X   4       9.301  57.687  64.3310  0.00  0.00     0.000 C
ATOM     71   O  A00 X   4       6.979  55.050  65.2050  0.00  0.00     0.000 OA
ATOM     72   O  A00 X   4       6.614  57.137  64.1760  0.00  0.00     0.000 OA
ATOM     73   O  A00 X   4       8.840  56.369  64.6700  0.00  0.00     0.000 O
ATOM     74   O  A00 X   4       7.602  55.317  62.8910  0.00  0.00     0.000 OA
ATOM     75   S  A00 X   4       7.420  55.936  64.1640  0.00  0.00     0.000 S
ENDBRANCH 62 70
ENDBRANCH 57 61
ENDBRANCH 41 57
ENDBRANCH 40 44
ENDBRANCH 20 40
ENDBRANCH 19 23
ENDBRANCH 1 19
TORSDOF 14
ENDMDL
MODEL 23
REMARK VINA RESULT:      -6.9     27.159     31.503
ROOT
ATOM      1  C1  A00 X   1      22.434  50.372  51.8620  0.00  0.00     0.000 C
ATOM      2  C2  A00 X   1      21.280  50.918  50.9800  0.00  0.00     0.000 C
ATOM      3  C3  A00 X   1      21.250  50.417  49.4980  0.00  0.00     0.000 C
ATOM      4  C4  A00 X   1      22.554  49.746  48.9940  0.00  0.00     0.000 C
ATOM      5  C5  A00 X   1      23.774  50.170  49.8100  0.00  0.00     0.000 C
ATOM      6  O5  A00 X   1      23.502  49.700  51.1490  0.00  0.00     0.000 O
ATOM      7   O  A00 X   1      21.011  51.532  48.6420  0.00  0.00     0.000 O
ATOM      9  HD  A00 X   1      21.616  51.042  48.2610  0.00  0.00     0.000 HD
ATOM      9   O  A00 X   1      22.443  48.323  48.9960  0.00  0.00     0.000 O
ATOM     11  HD  A00 X   1      23.047  47.834  48.6150  0.00  0.00     0.000 HD
ENDROOT
BRANCH 2 11
ATOM     11   O  A00 X   1      20.036  50.568  51.6190  0.00  0.00     0.000 O
ATOM     12   O  A00 X   1      17.915  50.921  50.5490  0.00  0.00     0.000 OA
ATOM     13   O  A00 X   1      19.301  52.841  51.1070  0.00  0.00     0.000 OA
ATOM     14   O  A00 X   1      18.292  51.543  52.8260  0.00  0.00     0.000 OA
ATOM     15   S  A00 X   1      18.816  51.543  51.4870  0.00  0.00     0.000 S
ENDBRANCH 2 11
BRANCH 5 16
ATOM     16   C  A00 X   1      24.113  51.663  49.7410  0.00  0.00     0.000 C
ATOM     17   O  A00 X   1      23.657  52.321  48.8290  0.00  0.00     0.000 OA
ATOM     18   O  A00 X   1      24.814  52.211  50.5680  0.00  0.00     0.000 OA
ENDBRANCH 5 16
BRANCH 1 19
ATOM     19  O4  A00 X   2      22.955  51.363  52.7810  0.00  0.00     0.000 O
BRANCH 19 23
ATOM     20  C1  A00 X   2      24.454  50.993  56.7790  0.00  0.00     0.000 C
ATOM     21  C2  A00 X   2      25.419  50.649  55.6190  0.00  0.00     0.000 C
ATOM     22  C3  A00 X   2      24.906  51.231  54.2850  0.00  0.00     0.000 C
ATOM     23  C4  A00 X   2      23.455  50.773  54.0150  0.00  0.00     0.000 C
ATOM     24  C5  A00 X   2      22.597  51.157  55.2510  0.00  0.00     0.000 C
ATOM     25  O5  A00 X   2      23.139  50.490  56.4210  0.00  0.00     0.000 O
ATOM     26   O  A00 X   2      25.868  50.944  53.2560  0.00  0.00     0.000 O
ATOM     28  HD  A00 X   2      25.910  50.103  53.4600  0.00  0.00     0.000 HD
BRANCH 21 30
ATOM     28   N  A00 X   2      26.176  50.056  56.7250  0.00  0.00     0.000 N
ATOM     30  HD  A00 X   2      26.580  49.827  55.9940  0.00  0.00     0.000 HD
ATOM     30   O  A00 X   2      28.270  49.413  55.9120  0.00  0.00     0.000 OA
ATOM     31   S  A00 X   2      27.097  48.805  56.4310  0.00  0.00     0.000 S
ATOM     32   O  A00 X   2      27.251  48.189  57.7120  0.00  0.00     0.000 OA
ATOM     33   O  A00 X   2      26.369  47.942  55.5480  0.00  0.00     0.000 OA
ENDBRANCH 21 30
BRANCH 24 34
ATOM     34   C  A00 X   2      21.061  51.015  55.1410  0.00  0.00     0.000 C
ATOM     35   O  A00 X   2      19.094  48.601  57.0290  0.00  0.00     0.000 OA
ATOM     36   O  A00 X   2      20.608  49.773  55.7170  0.00  0.00     0.000 O
ATOM     37   O  A00 X   2      20.544  50.187  58.0180  0.00  0.00     0.000 OA
ATOM     38   S  A00 X   2      19.636  49.918  56.9440  0.00  0.00     0.000 S
ATOM     39   O  A00 X   2      18.696  50.940  56.5980  0.00  0.00     0.000 OA
ENDBRANCH 24 34
BRANCH 20 40
ATOM     40  O4  A00 X   3      24.419  52.427  56.8410  0.00  0.00     0.000 O
BRANCH 40 44
ATOM     41  C1  A00 X   3      21.630  54.674  57.3820  0.00  0.00     0.000 C
ATOM     42  C2  A00 X   3      23.019  55.105  56.8650  0.00  0.00     0.000 C
ATOM     43  C3  A00 X   3      24.145  54.562  57.7820  0.00  0.00     0.000 C
ATOM     44  C4  A00 X   3      24.055  53.071  58.0810  0.00  0.00     0.000 C
ATOM     45  C5  A00 X   3      22.633  52.717  58.6000  0.00  0.00     0.000 C
ATOM     46  O5  A00 X   3      21.603  53.257  57.7100  0.00  0.00     0.000 O
ATOM     47   O  A00 X   3      25.471  54.970  57.4500  0.00  0.00     0.000 O
ATOM     49  HD  A00 X   3      25.657  54.154  57.6710  0.00  0.00     0.000 HD
BRANCH 42 49
ATOM     49   O  A00 X   3      23.145  54.598  55.5180  0.00  0.00     0.000 O
ATOM     50   O  A00 X   3      24.799  54.668  53.7890  0.00  0.00     0.000 OA
ATOM     51   O  A00 X   3      24.380  56.626  55.0460  0.00  0.00     0.000 OA
ATOM     52   O  A00 X   3      22.698  55.846  53.5800  0.00  0.00     0.000 OA
ATOM     53   S  A00 X   3      23.794  55.474  54.4070  0.00  0.00     0.000 S
ENDBRANCH 42 49
BRANCH 45 54
ATOM     54   C  A00 X   3      22.443  53.131  60.0640  0.00  0.00     0.000 C
ATOM     55   O  A00 X   3      21.450  52.799  60.6780  0.00  0.00     0.000 OA
ATOM     56   O  A00 X   3      23.287  53.803  60.6380  0.00  0.00     0.000 OA
ENDBRANCH 45 54
BRANCH 41 57
ATOM     57  O4  A00 X   4      21.167  55.533  58.4480  0.00  0.00     0.000 O
BRANCH 57 61
ATOM     58  C1  A00 X   4      17.303  56.092  60.2910  0.00  0.00     0.000 C
ATOM     59  C2  A00 X   4      18.259  55.026  60.8820  0.00  0.00     0.000 C
ATOM     60  C3  A00 X   4      19.713  55.163  60.3880  0.00  0.00     0.000 C
ATOM     61  C4  A00 X   4      19.784  55.325  58.8540  0.00  0.00     0.000 C
ATOM     62  C5  A00 X   4      18.931  56.570  58.5070  0.00  0.00     0.000 C
ATOM     63  O5  A00 X   4      17.552  56.323  58.8850  0.00  0.00     0.000 O
BRANCH 59 66
ATOM     64   N  A00 X   4      18.256  53.556  60.9850  0.00  0.00     0.000 N
ATOM     66  HD  A00 X   4      18.084  53.105  60.2660  0.00  0.00     0.000 HD
ATOM     66   O  A00 X   4      16.230  53.750  62.2730  0.00  0.00     0.000 OA
ATOM     67   S  A00 X   4      17.352  52.878  62.1170  0.00  0.00     0.000 S
ATOM     68   O  A00 X   4      17.070  51.614  61.5000  0.00  0.00     0.000 OA
ATOM     69   O  A00 X   4      18.301  52.809  63.1920  0.00  0.00     0.000 OA
ENDBRANCH 59 66
BRANCH 62 70
ATOM     70   C  A00 X   4      18.967  56.964  57.0110  0.00  0.00     0.000 C
ATOM     71   O  A00 X   4      17.184  55.473  54.2350  0.00  0.00     0.000 OA
ATOM     72   O  A00 X   4      19.461  56.021  54.4800  0.00  0.00     0.000 OA
ATOM     73   O  A00 X   4      17.922  56.269  56.3110  0.00  0.00     0.000 O
ATOM     74   O  A00 X   4      18.568  54.056  55.6110  0.00  0.00     0.000 OA
ATOM     75   S  A00 X   4      18.329  55.365  55.0960  0.00  0.00     0.000 S
ENDBRANCH 62 70
ENDBRANCH 57 61
ENDBRANCH 41 57
ENDBRANCH 40 44
ENDBRANCH 20 40
ENDBRANCH 19 23
ENDBRANCH 1 19
TORSDOF 14
ENDMDL
MODEL 24
REMARK VINA RESULT:      -6.8      8.641     14.382
ROOT
ATOM      1  C1  A00 X   1       5.504  50.408  75.1030  0.00  0.00     0.000 C
ATOM      2  C2  A00 X   1       5.252  51.939  75.0910  0.00  0.00     0.000 C
ATOM      3  C3  A00 X   1       3.855  52.401  74.5590  0.00  0.00     0.000 C
ATOM      4  C4  A00 X   1       3.050  51.331  73.7770  0.00  0.00     0.000 C
ATOM      5  C5  A00 X   1       3.950  50.236  73.2050  0.00  0.00     0.000 C
ATOM      6  O5  A00 X   1       4.548  49.610  74.3620  0.00  0.00     0.000 O
ATOM      7   O  A00 X   1       4.046  53.497  73.6660  0.00  0.00     0.000 O
ATOM      9  HD  A00 X   1       3.443  52.984  73.3150  0.00  0.00     0.000 HD
ATOM      9   O  A00 X   1       2.035  50.745  74.5900  0.00  0.00     0.000 O
ATOM     11  HD  A00 X   1       1.431  50.232  74.2400  0.00  0.00     0.000 HD
ENDROOT
BRANCH 2 11
ATOM     11   O  A00 X   1       5.423  52.422  76.4380  0.00  0.00     0.000 O
ATOM     12   O  A00 X   1       4.843  54.666  77.0660  0.00  0.00     0.000 OA
ATOM     13   O  A00 X   1       6.628  54.305  75.4540  0.00  0.00     0.000 OA
ATOM     14   O  A00 X   1       6.913  53.673  77.7290  0.00  0.00     0.000 OA
ATOM     15   S  A00 X   1       5.975  53.873  76.6590  0.00  0.00     0.000 S
ENDBRANCH 2 11
BRANCH 5 16
ATOM     16   C  A00 X   1       4.974  50.714  72.1690  0.00  0.00     0.000 C
ATOM     17   O  A00 X   1       5.815  49.930  71.7800  0.00  0.00     0.000 OA
ATOM     18   O  A00 X   1       4.969  51.843  71.7210  0.00  0.00     0.000 OA
ENDBRANCH 5 16
BRANCH 1 19
ATOM     19  O4  A00 X   2       6.866  50.061  74.7520  0.00  0.00     0.000 O
BRANCH 19 23
ATOM     20  C1  A00 X   2      10.342  49.470  77.1870  0.00  0.00     0.000 C
ATOM     21  C2  A00 X   2       9.079  48.645  77.5330  0.00  0.00     0.000 C
ATOM     22  C3  A00 X   2       8.089  48.633  76.3490  0.00  0.00     0.000 C
ATOM     23  C4  A00 X   2       7.760  50.075  75.9010  0.00  0.00     0.000 C
ATOM     24  C5  A00 X   2       9.103  50.798  75.6040  0.00  0.00     0.000 C
ATOM     25  O5  A00 X   2       9.907  50.804  76.8120  0.00  0.00     0.000 O
ATOM     26   O  A00 X   2       6.969  47.801  76.6930  0.00  0.00     0.000 O
ATOM     28  HD  A00 X   2       6.845  48.195  77.4540  0.00  0.00     0.000 HD
BRANCH 21 30
ATOM     28   N  A00 X   2       8.059  47.685  77.9660  0.00  0.00     0.000 N
ATOM     30  HD  A00 X   2       8.763  47.537  78.4480  0.00  0.00     0.000 HD
ATOM     30   O  A00 X   2       8.717  46.807  80.0290  0.00  0.00     0.000 OA
ATOM     31   S  A00 X   2       8.524  46.361  78.6950  0.00  0.00     0.000 S
ATOM     32   O  A00 X   2       7.423  45.468  78.5090  0.00  0.00     0.000 OA
ATOM     33   O  A00 X   2       9.679  45.878  77.9980  0.00  0.00     0.000 OA
ENDBRANCH 21 30
BRANCH 24 34
ATOM     34   C  A00 X   2       9.045  52.183  74.9180  0.00  0.00     0.000 C
ATOM     35   O  A00 X   2      10.439  52.892  71.6300  0.00  0.00     0.000 OA
ATOM     36   O  A00 X   2       9.967  52.258  73.8120  0.00  0.00     0.000 O
ATOM     37   O  A00 X   2       8.856  51.188  72.0540  0.00  0.00     0.000 OA
ATOM     38   S  A00 X   2       9.308  52.499  72.4050  0.00  0.00     0.000 S
ATOM     39   O  A00 X   2       8.317  53.516  72.5910  0.00  0.00     0.000 OA
ENDBRANCH 24 34
BRANCH 20 40
ATOM     40  O4  A00 X   3      10.931  48.820  76.0520  0.00  0.00     0.000 O
BRANCH 40 44
ATOM     41  C1  A00 X   3      13.997  47.480  74.6630  0.00  0.00     0.000 C
ATOM     42  C2  A00 X   3      13.853  48.051  76.0910  0.00  0.00     0.000 C
ATOM     43  C3  A00 X   3      13.194  49.453  76.0640  0.00  0.00     0.000 C
ATOM     44  C4  A00 X   3      11.904  49.531  75.2570  0.00  0.00     0.000 C
ATOM     45  C5  A00 X   3      12.130  48.945  73.8350  0.00  0.00     0.000 C
ATOM     46  O5  A00 X   3      12.763  47.626  73.9080  0.00  0.00     0.000 O
ATOM     47   O  A00 X   3      13.088  50.116  77.3220  0.00  0.00     0.000 O
ATOM     49  HD  A00 X   3      12.321  50.359  77.0030  0.00  0.00     0.000 HD
BRANCH 42 49
ATOM     49   O  A00 X   3      13.060  47.108  76.8450  0.00  0.00     0.000 O
ATOM     50   O  A00 X   3      12.329  46.884  79.1130  0.00  0.00     0.000 OA
ATOM     51   O  A00 X   3      14.548  47.585  78.6940  0.00  0.00     0.000 OA
ATOM     52   O  A00 X   3      13.944  45.366  78.1470  0.00  0.00     0.000 OA
ATOM     53   S  A00 X   3      13.481  46.703  78.2880  0.00  0.00     0.000 S
ENDBRANCH 42 49
BRANCH 45 54
ATOM     54   C  A00 X   3      12.883  49.926  72.9290  0.00  0.00     0.000 C
ATOM     55   O  A00 X   3      12.933  51.108  73.2040  0.00  0.00     0.000 OA
ATOM     56   O  A00 X   3      13.443  49.538  71.9150  0.00  0.00     0.000 OA
ENDBRANCH 45 54
BRANCH 41 57
ATOM     57  O4  A00 X   4      15.163  48.009  73.9920  0.00  0.00     0.000 O
BRANCH 57 61
ATOM     58  C1  A00 X   4      18.315  45.834  71.9990  0.00  0.00     0.000 C
ATOM     59  C2  A00 X   4      17.513  46.884  71.1900  0.00  0.00     0.000 C
ATOM     60  C3  A00 X   4      16.680  47.834  72.0740  0.00  0.00     0.000 C
ATOM     61  C4  A00 X   4      15.864  47.064  73.1340  0.00  0.00     0.000 C
ATOM     62  C5  A00 X   4      16.886  46.245  73.9600  0.00  0.00     0.000 C
ATOM     63  O5  A00 X   4      17.543  45.287  73.0920  0.00  0.00     0.000 O
BRANCH 59 66
ATOM     64   N  A00 X   4      17.888  47.807  70.1040  0.00  0.00     0.000 N
ATOM     66  HD  A00 X   4      17.254  48.264  69.7300  0.00  0.00     0.000 HD
ATOM     66   O  A00 X   4      18.342  45.869  68.7490  0.00  0.00     0.000 OA
ATOM     67   S  A00 X   4      18.750  47.233  68.8850  0.00  0.00     0.000 S
ATOM     68   O  A00 X   4      18.328  48.111  67.8340  0.00  0.00     0.000 OA
ATOM     69   O  A00 X   4      20.077  47.490  69.3700  0.00  0.00     0.000 OA
ENDBRANCH 59 66
BRANCH 62 70
ATOM     70   C  A00 X   4      16.266  45.482  75.1550  0.00  0.00     0.000 C
ATOM     71   O  A00 X   4      17.947  43.637  77.7780  0.00  0.00     0.000 OA
ATOM     72   O  A00 X   4      16.135  43.037  76.3980  0.00  0.00     0.000 OA
ATOM     73   O  A00 X   4      17.307  45.112  76.0740  0.00  0.00     0.000 O
ATOM     74   O  A00 X   4      18.394  43.045  75.4830  0.00  0.00     0.000 OA
ATOM     75   S  A00 X   4      17.470  43.592  76.4240  0.00  0.00     0.000 S
ENDBRANCH 62 70
ENDBRANCH 57 61
ENDBRANCH 41 57
ENDBRANCH 40 44
ENDBRANCH 20 40
ENDBRANCH 19 23
ENDBRANCH 1 19
TORSDOF 14
ENDMDL
MODEL 25
REMARK VINA RESULT:      -6.8      3.799     11.920
ROOT
ATOM      1  C1  A00 X   1      10.573  49.531  76.7250  0.00  0.00     0.000 C
ATOM      2  C2  A00 X   1      10.907  49.691  75.2180  0.00  0.00     0.000 C
ATOM      3  C3  A00 X   1      10.253  50.914  74.4950  0.00  0.00     0.000 C
ATOM      4  C4  A00 X   1       9.082  51.592  75.2540  0.00  0.00     0.000 C
ATOM      5  C5  A00 X   1       8.432  50.652  76.2690  0.00  0.00     0.000 C
ATOM      6  O5  A00 X   1       9.483  50.350  77.2150  0.00  0.00     0.000 O
ATOM      7   O  A00 X   1       9.725  50.478  73.2440  0.00  0.00     0.000 O
ATOM      9  HD  A00 X   1       9.145  51.020  73.5910  0.00  0.00     0.000 HD
ATOM      9   O  A00 X   1       9.507  52.788  75.9060  0.00  0.00     0.000 O
ATOM     11  HD  A00 X   1       8.927  53.330  76.2530  0.00  0.00     0.000 HD
ENDROOT
BRANCH 2 11
ATOM     11   O  A00 X   1      12.339  49.784  75.0930  0.00  0.00     0.000 O
ATOM     12   O  A00 X   1      13.419  49.969  72.9560  0.00  0.00     0.000 OA
ATOM     13   O  A00 X   1      12.173  47.949  73.4890  0.00  0.00     0.000 OA
ATOM     14   O  A00 X   1      14.200  48.451  74.6290  0.00  0.00     0.000 OA
ATOM     15   S  A00 X   1      13.054  48.988  73.9470  0.00  0.00     0.000 S
ENDBRANCH 2 11
BRANCH 5 16
ATOM     16   C  A00 X   1       7.771  49.407  75.6690  0.00  0.00     0.000 C
ATOM     17   O  A00 X   1       7.397  49.447  74.5150  0.00  0.00     0.000 OA
ATOM     18   O  A00 X   1       7.615  48.382  76.3030  0.00  0.00     0.000 OA
ENDBRANCH 5 16
BRANCH 1 19
ATOM     19  O4  A00 X   2      10.413  48.147  77.1210  0.00  0.00     0.000 O
BRANCH 19 23
ATOM     20  C1  A00 X   2      11.050  46.211  80.8910  0.00  0.00     0.000 C
ATOM     21  C2  A00 X   2       9.677  46.886  80.6570  0.00  0.00     0.000 C
ATOM     22  C3  A00 X   2       9.440  47.145  79.1540  0.00  0.00     0.000 C
ATOM     23  C4  A00 X   2      10.614  47.947  78.5490  0.00  0.00     0.000 C
ATOM     24  C5  A00 X   2      11.927  47.180  78.8660  0.00  0.00     0.000 C
ATOM     25  O5  A00 X   2      12.067  47.068  80.3060  0.00  0.00     0.000 O
ATOM     26   O  A00 X   2       8.128  47.707  78.9840  0.00  0.00     0.000 O
ATOM     28  HD  A00 X   2       8.255  48.313  79.5890  0.00  0.00     0.000 HD
BRANCH 21 30
ATOM     28   N  A00 X   2       9.596  46.711  82.1100  0.00  0.00     0.000 N
ATOM     30  HD  A00 X   2       8.907  47.180  81.8750  0.00  0.00     0.000 HD
ATOM     30   O  A00 X   2       7.423  47.240  82.7860  0.00  0.00     0.000 OA
ATOM     31   S  A00 X   2       8.742  47.741  82.9520  0.00  0.00     0.000 S
ATOM     32   O  A00 X   2       9.272  47.620  84.2750  0.00  0.00     0.000 OA
ATOM     33   O  A00 X   2       9.012  49.045  82.4250  0.00  0.00     0.000 OA
ENDBRANCH 21 30
BRANCH 24 34
ATOM     34   C  A00 X   2      13.228  47.651  78.1740  0.00  0.00     0.000 C
ATOM     35   O  A00 X   2      14.938  50.770  78.9530  0.00  0.00     0.000 OA
ATOM     36   O  A00 X   2      13.473  49.051  78.4200  0.00  0.00     0.000 O
ATOM     37   O  A00 X   2      14.423  49.110  80.5560  0.00  0.00     0.000 OA
ATOM     38   S  A00 X   2      14.799  49.373  79.2000  0.00  0.00     0.000 S
ATOM     39   O  A00 X   2      15.819  48.550  78.6230  0.00  0.00     0.000 OA
ENDBRANCH 24 34
BRANCH 20 40
ATOM     40  O4  A00 X   3      10.999  44.969  80.1730  0.00  0.00     0.000 O
BRANCH 40 44
ATOM     41  C1  A00 X   3      11.295  41.359  80.1430  0.00  0.00     0.000 C
ATOM     42  C2  A00 X   3      11.311  42.232  81.4160  0.00  0.00     0.000 C
ATOM     43  C3  A00 X   3      12.336  43.388  81.2830  0.00  0.00     0.000 C
ATOM     44  C4  A00 X   3      12.210  44.202  80.0020  0.00  0.00     0.000 C
ATOM     45  C5  A00 X   3      12.207  43.256  78.7680  0.00  0.00     0.000 C
ATOM     46  O5  A00 X   3      11.233  42.176  78.9410  0.00  0.00     0.000 O
ATOM     47   O  A00 X   3      12.499  44.211  82.4370  0.00  0.00     0.000 O
ATOM     49  HD  A00 X   3      12.549  44.839  81.8430  0.00  0.00     0.000 HD
BRANCH 42 49
ATOM     49   O  A00 X   3       9.969  42.735  81.6000  0.00  0.00     0.000 O
ATOM     50   O  A00 X   3       8.862  44.190  83.1450  0.00  0.00     0.000 OA
ATOM     51   O  A00 X   3      10.430  42.628  83.9740  0.00  0.00     0.000 OA
ATOM     52   O  A00 X   3       8.396  41.818  83.0830  0.00  0.00     0.000 OA
ATOM     53   S  A00 X   3       9.365  42.858  83.0300  0.00  0.00     0.000 S
ENDBRANCH 42 49
BRANCH 45 54
ATOM     54   C  A00 X   3      13.616  42.751  78.4370  0.00  0.00     0.000 C
ATOM     55   O  A00 X   3      14.580  43.157  79.0530  0.00  0.00     0.000 OA
ATOM     56   O  A00 X   3      13.794  41.933  77.5470  0.00  0.00     0.000 OA
ENDBRANCH 45 54
BRANCH 41 57
ATOM     57  O4  A00 X   4      12.372  40.395  80.1430  0.00  0.00     0.000 O
BRANCH 57 61
ATOM     58  C1  A00 X   4      12.383  36.394  78.5220  0.00  0.00     0.000 C
ATOM     59  C2  A00 X   4      13.434  37.406  78.0040  0.00  0.00     0.000 C
ATOM     60  C3  A00 X   4      13.570  38.661  78.8910  0.00  0.00     0.000 C
ATOM     61  C4  A00 X   4      12.194  39.268  79.2390  0.00  0.00     0.000 C
ATOM     62  C5  A00 X   4      11.385  38.145  79.9350  0.00  0.00     0.000 C
ATOM     63  O5  A00 X   4      11.188  37.051  79.0030  0.00  0.00     0.000 O
BRANCH 59 66
ATOM     64   N  A00 X   4      14.667  37.671  77.2400  0.00  0.00     0.000 N
ATOM     66  HD  A00 X   4      14.708  38.410  76.7910  0.00  0.00     0.000 HD
ATOM     66   O  A00 X   4      14.004  35.901  75.7490  0.00  0.00     0.000 OA
ATOM     67   S  A00 X   4      15.185  36.548  76.2260  0.00  0.00     0.000 S
ATOM     68   O  A00 X   4      15.873  37.363  75.2680  0.00  0.00     0.000 OA
ATOM     69   O  A00 X   4      16.052  35.803  77.0950  0.00  0.00     0.000 OA
ENDBRANCH 59 66
BRANCH 62 70
ATOM     70   C  A00 X   4      10.002  38.597  80.4630  0.00  0.00     0.000 C
ATOM     71   O  A00 X   4       8.727  38.485  83.8490  0.00  0.00     0.000 OA
ATOM     72   O  A00 X   4       7.767  37.763  81.8240  0.00  0.00     0.000 OA
ATOM     73   O  A00 X   4      10.020  38.601  81.8990  0.00  0.00     0.000 O
ATOM     74   O  A00 X   4       9.537  36.443  82.8550  0.00  0.00     0.000 OA
ATOM     75   S  A00 X   4       8.954  37.730  82.6490  0.00  0.00     0.000 S
ENDBRANCH 62 70
ENDBRANCH 57 61
ENDBRANCH 41 57
ENDBRANCH 40 44
ENDBRANCH 20 40
ENDBRANCH 19 23
ENDBRANCH 1 19
TORSDOF 14
ENDMDL
MODEL 26
REMARK VINA RESULT:      -6.8     27.092     31.911
ROOT
ATOM      1  C1  A00 X   1      16.347  53.405  59.9560  0.00  0.00     0.000 C
ATOM      2  C2  A00 X   1      17.505  53.673  60.9550  0.00  0.00     0.000 C
ATOM      3  C3  A00 X   1      17.082  54.050  62.4120  0.00  0.00     0.000 C
ATOM      4  C4  A00 X   1      15.600  54.468  62.5920  0.00  0.00     0.000 C
ATOM      5  C5  A00 X   1      14.975  54.955  61.2840  0.00  0.00     0.000 C
ATOM      6  O5  A00 X   1      15.030  53.811  60.4030  0.00  0.00     0.000 O
ATOM      7   O  A00 X   1      17.869  55.158  62.8450  0.00  0.00     0.000 O
ATOM      9  HD  A00 X   1      17.059  55.299  63.1170  0.00  0.00     0.000 HD
ATOM      9   O  A00 X   1      14.819  53.402  63.1310  0.00  0.00     0.000 O
ATOM     11  HD  A00 X   1      14.009  53.543  63.4030  0.00  0.00     0.000 HD
ENDROOT
BRANCH 2 11
ATOM     11   O  A00 X   1      18.330  52.492  60.9960  0.00  0.00     0.000 O
ATOM     12   O  A00 X   1      17.550  50.369  60.1890  0.00  0.00     0.000 OA
ATOM     13   O  A00 X   1      16.448  51.393  62.1000  0.00  0.00     0.000 OA
ATOM     14   O  A00 X   1      18.675  50.577  62.2870  0.00  0.00     0.000 OA
ATOM     15   S  A00 X   1      17.679  51.127  61.4080  0.00  0.00     0.000 S
ENDBRANCH 2 11
BRANCH 5 16
ATOM     16   C  A00 X   1      15.613  56.216  60.6920  0.00  0.00     0.000 C
ATOM     17   O  A00 X   1      15.307  56.548  59.5650  0.00  0.00     0.000 OA
ATOM     18   O  A00 X   1      16.406  56.897  61.3110  0.00  0.00     0.000 OA
ENDBRANCH 5 16
BRANCH 1 19
ATOM     19  O4  A00 X   2      16.629  53.900  58.6240  0.00  0.00     0.000 O
BRANCH 19 23
ATOM     20  C1  A00 X   2      19.711  52.830  55.8450  0.00  0.00     0.000 C
ATOM     21  C2  A00 X   2      18.922  51.679  56.5140  0.00  0.00     0.000 C
ATOM     22  C3  A00 X   2      17.604  52.199  57.1260  0.00  0.00     0.000 C
ATOM     23  C4  A00 X   2      17.878  53.377  58.0870  0.00  0.00     0.000 C
ATOM     24  C5  A00 X   2      18.686  54.449  57.3060  0.00  0.00     0.000 C
ATOM     25  O5  A00 X   2      19.930  53.856  56.8490  0.00  0.00     0.000 O
ATOM     26   O  A00 X   2      16.878  51.085  57.6730  0.00  0.00     0.000 O
ATOM     28  HD  A00 X   2      17.562  50.792  58.1160  0.00  0.00     0.000 HD
BRANCH 21 30
ATOM     28   N  A00 X   2      20.016  50.900  55.9270  0.00  0.00     0.000 N
ATOM     30  HD  A00 X   2      19.582  50.366  56.4530  0.00  0.00     0.000 HD
ATOM     30   O  A00 X   2      19.559  48.634  56.2680  0.00  0.00     0.000 OA
ATOM     31   S  A00 X   2      20.513  49.602  56.6810  0.00  0.00     0.000 S
ATOM     32   O  A00 X   2      21.835  49.402  56.1750  0.00  0.00     0.000 OA
ATOM     33   O  A00 X   2      20.557  49.915  58.0780  0.00  0.00     0.000 OA
ENDBRANCH 21 30
BRANCH 24 34
ATOM     34   C  A00 X   2      18.893  55.830  57.9720  0.00  0.00     0.000 C
ATOM     35   O  A00 X   2      18.698  59.002  56.1940  0.00  0.00     0.000 OA
ATOM     36   O  A00 X   2      19.110  56.859  56.9850  0.00  0.00     0.000 O
ATOM     37   O  A00 X   2      16.965  57.394  56.2210  0.00  0.00     0.000 OA
ATOM     38   S  A00 X   2      18.030  58.002  56.9590  0.00  0.00     0.000 S
ATOM     39   O  A00 X   2      17.776  58.350  58.3250  0.00  0.00     0.000 OA
ENDBRANCH 24 34
BRANCH 20 40
ATOM     40  O4  A00 X   3      18.852  53.342  54.8150  0.00  0.00     0.000 O
BRANCH 40 44
ATOM     41  C1  A00 X   3      17.805  54.119  51.4350  0.00  0.00     0.000 C
ATOM     42  C2  A00 X   3      18.939  53.137  51.8020  0.00  0.00     0.000 C
ATOM     43  C3  A00 X   3      19.944  53.791  52.7850  0.00  0.00     0.000 C
ATOM     44  C4  A00 X   3      19.304  54.446  54.0020  0.00  0.00     0.000 C
ATOM     45  C5  A00 X   3      18.180  55.421  53.5530  0.00  0.00     0.000 C
ATOM     46  O5  A00 X   3      17.262  54.765  52.6200  0.00  0.00     0.000 O
ATOM     47   O  A00 X   3      21.084  53.004  53.1260  0.00  0.00     0.000 O
ATOM     49  HD  A00 X   3      20.946  53.348  53.9090  0.00  0.00     0.000 HD
BRANCH 42 49
ATOM     49   O  A00 X   3      18.317  51.970  52.3820  0.00  0.00     0.000 O
ATOM     50   O  A00 X   3      19.048  49.839  53.1920  0.00  0.00     0.000 OA
ATOM     51   O  A00 X   3      19.995  50.688  51.1990  0.00  0.00     0.000 OA
ATOM     52   O  A00 X   3      17.721  50.042  51.1810  0.00  0.00     0.000 OA
ATOM     53   S  A00 X   3      18.789  50.543  51.9760  0.00  0.00     0.000 S
ENDBRANCH 42 49
BRANCH 45 54
ATOM     54   C  A00 X   3      18.752  56.737  53.0130  0.00  0.00     0.000 C
ATOM     55   O  A00 X   3      18.058  57.730  52.9400  0.00  0.00     0.000 OA
ATOM     56   O  A00 X   3      19.914  56.809  52.6440  0.00  0.00     0.000 OA
ENDBRANCH 45 54
BRANCH 41 57
ATOM     57  O4  A00 X   4      18.211  55.040  50.3980  0.00  0.00     0.000 O
BRANCH 57 61
ATOM     58  C1  A00 X   4      15.882  57.323  47.5690  0.00  0.00     0.000 C
ATOM     59  C2  A00 X   4      15.390  57.235  49.0350  0.00  0.00     0.000 C
ATOM     60  C3  A00 X   4      16.462  56.714  50.0140  0.00  0.00     0.000 C
ATOM     61  C4  A00 X   4      17.155  55.442  49.4800  0.00  0.00     0.000 C
ATOM     62  C5  A00 X   4      17.755  55.818  48.1030  0.00  0.00     0.000 C
ATOM     63  O5  A00 X   4      16.682  56.177  47.1960  0.00  0.00     0.000 O
BRANCH 59 66
ATOM     64   N  A00 X   4      14.388  57.412  50.1020  0.00  0.00     0.000 N
ATOM     66  HD  A00 X   4      14.090  56.699  50.4920  0.00  0.00     0.000 HD
ATOM     66   O  A00 X   4      12.825  58.061  48.3890  0.00  0.00     0.000 OA
ATOM     67   S  A00 X   4      13.082  58.277  49.7780  0.00  0.00     0.000 S
ATOM     68   O  A00 X   4      12.143  57.674  50.6800  0.00  0.00     0.000 OA
ATOM     69   O  A00 X   4      13.533  59.578  50.1820  0.00  0.00     0.000 OA
ENDBRANCH 59 66
BRANCH 62 70
ATOM     70   C  A00 X   4      18.593  54.692  47.4510  0.00  0.00     0.000 C
ATOM     71   O  A00 X   4      17.539  51.376  46.4520  0.00  0.00     0.000 OA
ATOM     72   O  A00 X   4      19.392  52.079  47.7230  0.00  0.00     0.000 OA
ATOM     73   O  A00 X   4      17.716  53.646  47.0020  0.00  0.00     0.000 O
ATOM     74   O  A00 X   4      17.175  52.062  48.7350  0.00  0.00     0.000 OA
ATOM     75   S  A00 X   4      17.961  52.198  47.5510  0.00  0.00     0.000 S
ENDBRANCH 62 70
ENDBRANCH 57 61
ENDBRANCH 41 57
ENDBRANCH 40 44
ENDBRANCH 20 40
ENDBRANCH 19 23
ENDBRANCH 1 19
TORSDOF 14
ENDMDL
MODEL 27
REMARK VINA RESULT:      -6.7      6.783     13.564
ROOT
ATOM      1  C1  A00 X   1       8.643  51.277  74.9150  0.00  0.00     0.000 C
ATOM      2  C2  A00 X   1       7.512  52.149  75.5230  0.00  0.00     0.000 C
ATOM      3  C3  A00 X   1       6.210  51.391  75.9440  0.00  0.00     0.000 C
ATOM      4  C4  A00 X   1       6.059  49.956  75.3770  0.00  0.00     0.000 C
ATOM      5  C5  A00 X   1       6.895  49.743  74.1140  0.00  0.00     0.000 C
ATOM      6  O5  A00 X   1       8.262  49.928  74.5440  0.00  0.00     0.000 O
ATOM      7   O  A00 X   1       5.081  52.129  75.4820  0.00  0.00     0.000 O
ATOM      9  HD  A00 X   1       4.914  51.291  75.3390  0.00  0.00     0.000 HD
ATOM      9   O  A00 X   1       6.399  48.970  76.3520  0.00  0.00     0.000 O
ATOM     11  HD  A00 X   1       6.233  48.133  76.2080  0.00  0.00     0.000 HD
ENDROOT
BRANCH 2 11
ATOM     11   O  A00 X   1       8.052  52.827  76.6740  0.00  0.00     0.000 O
ATOM     12   O  A00 X   1       6.639  53.806  78.3510  0.00  0.00     0.000 OA
ATOM     13   O  A00 X   1       6.584  54.689  76.0850  0.00  0.00     0.000 OA
ATOM     14   O  A00 X   1       8.512  54.982  77.4460  0.00  0.00     0.000 OA
ATOM     15   S  A00 X   1       7.373  54.153  77.1610  0.00  0.00     0.000 S
ENDBRANCH 2 11
BRANCH 5 16
ATOM     16   C  A00 X   1       6.503  50.622  72.9220  0.00  0.00     0.000 C
ATOM     17   O  A00 X   1       7.242  50.661  71.9610  0.00  0.00     0.000 OA
ATOM     18   O  A00 X   1       5.477  51.273  72.9020  0.00  0.00     0.000 OA
ENDBRANCH 5 16
BRANCH 1 19
ATOM     19  O4  A00 X   2       9.347  51.942  73.8390  0.00  0.00     0.000 O
BRANCH 19 23
ATOM     20  C1  A00 X   2      12.953  52.396  76.1090  0.00  0.00     0.000 C
ATOM     21  C2  A00 X   2      12.247  53.686  75.6240  0.00  0.00     0.000 C
ATOM     22  C3  A00 X   2      10.787  53.394  75.2190  0.00  0.00     0.000 C
ATOM     23  C4  A00 X   2      10.729  52.250  74.1810  0.00  0.00     0.000 C
ATOM     24  C5  A00 X   2      11.482  51.030  74.7770  0.00  0.00     0.000 C
ATOM     25  O5  A00 X   2      12.856  51.414  75.0440  0.00  0.00     0.000 O
ATOM     26   O  A00 X   2      10.157  54.630  74.8430  0.00  0.00     0.000 O
ATOM     28  HD  A00 X   2      10.798  54.851  74.3040  0.00  0.00     0.000 HD
BRANCH 21 30
ATOM     28   N  A00 X   2      13.567  54.302  75.4580  0.00  0.00     0.000 N
ATOM     30  HD  A00 X   2      12.988  54.945  75.4450  0.00  0.00     0.000 HD
ATOM     30   O  A00 X   2      13.360  56.591  75.8770  0.00  0.00     0.000 OA
ATOM     31   S  A00 X   2      13.659  55.730  74.7880  0.00  0.00     0.000 S
ATOM     32   O  A00 X   2      15.008  55.798  74.3170  0.00  0.00     0.000 OA
ATOM     33   O  A00 X   2      12.746  55.739  73.6830  0.00  0.00     0.000 OA
ENDBRANCH 21 30
BRANCH 24 34
ATOM     34   C  A00 X   2      11.374  49.677  74.0340  0.00  0.00     0.000 C
ATOM     35   O  A00 X   2      13.698  48.572  71.4580  0.00  0.00     0.000 OA
ATOM     36   O  A00 X   2      12.195  49.664  72.8490  0.00  0.00     0.000 O
ATOM     37   O  A00 X   2      14.350  49.216  73.6390  0.00  0.00     0.000 OA
ATOM     38   S  A00 X   2      13.342  48.589  72.8390  0.00  0.00     0.000 S
ATOM     39   O  A00 X   2      12.764  47.375  73.3320  0.00  0.00     0.000 OA
ENDBRANCH 24 34
BRANCH 20 40
ATOM     40  O4  A00 X   3      12.201  51.948  77.2460  0.00  0.00     0.000 O
BRANCH 40 44
ATOM     41  C1  A00 X   3      10.510  50.322  80.0070  0.00  0.00     0.000 C
ATOM     42  C2  A00 X   3      11.428  51.556  80.1410  0.00  0.00     0.000 C
ATOM     43  C3  A00 X   3      12.786  51.317  79.4320  0.00  0.00     0.000 C
ATOM     44  C4  A00 X   3      12.673  50.810  78.0000  0.00  0.00     0.000 C
ATOM     45  C5  A00 X   3      11.739  49.568  77.9480  0.00  0.00     0.000 C
ATOM     46  O5  A00 X   3      10.475  49.835  78.6370  0.00  0.00     0.000 O
ATOM     47   O  A00 X   3      13.751  52.359  79.5650  0.00  0.00     0.000 O
ATOM     49  HD  A00 X   3      13.914  52.160  78.7390  0.00  0.00     0.000 HD
BRANCH 42 49
ATOM     49   O  A00 X   3      10.721  52.675  79.5630  0.00  0.00     0.000 O
ATOM     50   O  A00 X   3      10.893  55.061  79.6430  0.00  0.00     0.000 OA
ATOM     51   O  A00 X   3      11.182  53.829  81.6400  0.00  0.00     0.000 OA
ATOM     52   O  A00 X   3       9.035  53.891  80.6550  0.00  0.00     0.000 OA
ATOM     53   S  A00 X   3      10.435  53.948  80.4130  0.00  0.00     0.000 S
ENDBRANCH 42 49
BRANCH 45 54
ATOM     54   C  A00 X   3      12.446  48.305  78.4530  0.00  0.00     0.000 C
ATOM     55   O  A00 X   3      12.091  47.206  78.0790  0.00  0.00     0.000 OA
ATOM     56   O  A00 X   3      13.377  48.381  79.2400  0.00  0.00     0.000 OA
ENDBRANCH 45 54
BRANCH 41 57
ATOM     57  O4  A00 X   4      10.834  49.307  80.9830  0.00  0.00     0.000 O
BRANCH 57 61
ATOM     58  C1  A00 X   4       8.621  45.991  82.6420  0.00  0.00     0.000 C
ATOM     59  C2  A00 X   4       9.039  45.932  81.1510  0.00  0.00     0.000 C
ATOM     60  C3  A00 X   4      10.112  46.973  80.7720  0.00  0.00     0.000 C
ATOM     61  C4  A00 X   4       9.754  48.381  81.2940  0.00  0.00     0.000 C
ATOM     62  C5  A00 X   4       9.587  48.248  82.8280  0.00  0.00     0.000 C
ATOM     63  O5  A00 X   4       8.482  47.352  83.1120  0.00  0.00     0.000 O
BRANCH 59 66
ATOM     64   N  A00 X   4       7.926  46.205  80.2250  0.00  0.00     0.000 N
ATOM     66  HD  A00 X   4       7.296  46.731  80.5010  0.00  0.00     0.000 HD
ATOM     66   O  A00 X   4       7.222  43.926  80.5580  0.00  0.00     0.000 OA
ATOM     67   S  A00 X   4       7.160  44.961  79.5740  0.00  0.00     0.000 S
ATOM     68   O  A00 X   4       5.863  45.536  79.3640  0.00  0.00     0.000 OA
ATOM     69   O  A00 X   4       7.929  44.791  78.3730  0.00  0.00     0.000 OA
ENDBRANCH 59 66
BRANCH 62 70
ATOM     70   C  A00 X   4       9.330  49.590  83.5550  0.00  0.00     0.000 C
ATOM     71   O  A00 X   4       9.297  50.264  87.1120  0.00  0.00     0.000 OA
ATOM     72   O  A00 X   4       7.752  50.832  85.4280  0.00  0.00     0.000 OA
ATOM     73   O  A00 X   4       9.658  49.446  84.9460  0.00  0.00     0.000 O
ATOM     74   O  A00 X   4       7.847  48.540  86.2520  0.00  0.00     0.000 OA
ATOM     75   S  A00 X   4       8.540  49.762  86.0000  0.00  0.00     0.000 S
ENDBRANCH 62 70
ENDBRANCH 57 61
ENDBRANCH 41 57
ENDBRANCH 40 44
ENDBRANCH 20 40
ENDBRANCH 19 23
ENDBRANCH 1 19
TORSDOF 14
ENDMDL
MODEL 28
REMARK VINA RESULT:      -6.7      4.004     11.910
ROOT
ATOM      1  C1  A00 X   1      11.574  50.179  76.6560  0.00  0.00     0.000 C
ATOM      2  C2  A00 X   1      11.709  49.885  75.1380  0.00  0.00     0.000 C
ATOM      3  C3  A00 X   1      11.097  50.954  74.1740  0.00  0.00     0.000 C
ATOM      4  C4  A00 X   1      10.125  51.968  74.8300  0.00  0.00     0.000 C
ATOM      5  C5  A00 X   1       9.525  51.433  76.1310  0.00  0.00     0.000 C
ATOM      6  O5  A00 X   1      10.658  51.246  77.0080  0.00  0.00     0.000 O
ATOM      7   O  A00 X   1      10.356  50.282  73.1580  0.00  0.00     0.000 O
ATOM      9  HD  A00 X   1       9.892  50.974  73.3970  0.00  0.00     0.000 HD
ATOM      9   O  A00 X   1      10.764  53.221  75.0730  0.00  0.00     0.000 O
ATOM     11  HD  A00 X   1      10.300  53.912  75.3130  0.00  0.00     0.000 HD
ENDROOT
BRANCH 2 11
ATOM     11   O  A00 X   1      13.112  49.736  74.8440  0.00  0.00     0.000 O
ATOM     12   O  A00 X   1      13.931  49.627  72.5890  0.00  0.00     0.000 OA
ATOM     13   O  A00 X   1      12.464  47.869  73.4090  0.00  0.00     0.000 OA
ATOM     14   O  A00 X   1      14.670  48.095  74.2690  0.00  0.00     0.000 OA
ATOM     15   S  A00 X   1      13.545  48.774  73.6840  0.00  0.00     0.000 S
ENDBRANCH 2 11
BRANCH 5 16
ATOM     16   C  A00 X   1       8.655  50.181  75.9760  0.00  0.00     0.000 C
ATOM     17   O  A00 X   1       8.333  49.571  76.9750  0.00  0.00     0.000 OA
ATOM     18   O  A00 X   1       8.273  49.783  74.8940  0.00  0.00     0.000 OA
ENDBRANCH 5 16
BRANCH 1 19
ATOM     19  O4  A00 X   2      11.322  48.986  77.4380  0.00  0.00     0.000 O
BRANCH 19 23
ATOM     20  C1  A00 X   2      12.337  47.967  81.4750  0.00  0.00     0.000 C
ATOM     21  C2  A00 X   2      11.358  49.147  81.2610  0.00  0.00     0.000 C
ATOM     22  C3  A00 X   2      10.762  49.115  79.8380  0.00  0.00     0.000 C
ATOM     23  C4  A00 X   2      11.886  49.067  78.7780  0.00  0.00     0.000 C
ATOM     24  C5  A00 X   2      12.804  47.860  79.1130  0.00  0.00     0.000 C
ATOM     25  O5  A00 X   2      13.356  48.047  80.4430  0.00  0.00     0.000 O
ATOM     26   O  A00 X   2       9.811  50.186  79.7120  0.00  0.00     0.000 O
ATOM     28  HD  A00 X   2      10.363  50.779  80.0170  0.00  0.00     0.000 HD
BRANCH 21 30
ATOM     28   N  A00 X   2      10.024  49.515  81.7460  0.00  0.00     0.000 N
ATOM     30  HD  A00 X   2      10.590  49.770  82.3490  0.00  0.00     0.000 HD
ATOM     30   O  A00 X   2      10.282  51.061  83.4780  0.00  0.00     0.000 OA
ATOM     31   S  A00 X   2       9.815  49.732  83.2970  0.00  0.00     0.000 S
ATOM     32   O  A00 X   2       8.407  49.557  83.4770  0.00  0.00     0.000 OA
ATOM     33   O  A00 X   2      10.535  48.693  83.9710  0.00  0.00     0.000 OA
ENDBRANCH 21 30
BRANCH 24 34
ATOM     34   C  A00 X   2      13.875  47.452  78.0740  0.00  0.00     0.000 C
ATOM     35   O  A00 X   2      16.551  49.642  76.9350  0.00  0.00     0.000 OA
ATOM     36   O  A00 X   2      14.571  48.605  77.5610  0.00  0.00     0.000 O
ATOM     37   O  A00 X   2      16.158  49.106  79.2050  0.00  0.00     0.000 OA
ATOM     38   S  A00 X   2      16.116  48.640  77.8520  0.00  0.00     0.000 S
ATOM     39   O  A00 X   2      16.608  47.321  77.5890  0.00  0.00     0.000 OA
ENDBRANCH 24 34
BRANCH 20 40
ATOM     40  O4  A00 X   3      11.557  46.777  81.2880  0.00  0.00     0.000 O
BRANCH 40 44
ATOM     41  C1  A00 X   3      10.543  43.389  80.5000  0.00  0.00     0.000 C
ATOM     42  C2  A00 X   3       9.719  44.379  81.3520  0.00  0.00     0.000 C
ATOM     43  C3  A00 X   3      10.586  44.999  82.4780  0.00  0.00     0.000 C
ATOM     44  C4  A00 X   3      11.915  45.578  82.0080  0.00  0.00     0.000 C
ATOM     45  C5  A00 X   3      12.686  44.523  81.1640  0.00  0.00     0.000 C
ATOM     46  O5  A00 X   3      11.827  43.958  80.1220  0.00  0.00     0.000 O
ATOM     47   O  A00 X   3       9.905  45.865  83.3830  0.00  0.00     0.000 O
ATOM     49  HD  A00 X   3      10.641  46.318  83.3270  0.00  0.00     0.000 HD
BRANCH 42 49
ATOM     49   O  A00 X   3       9.216  45.393  80.4540  0.00  0.00     0.000 O
ATOM     50   O  A00 X   3       7.919  47.395  80.6540  0.00  0.00     0.000 OA
ATOM     51   O  A00 X   3       7.287  45.496  81.9110  0.00  0.00     0.000 OA
ATOM     52   O  A00 X   3       7.044  45.423  79.5610  0.00  0.00     0.000 OA
ATOM     53   S  A00 X   3       7.784  45.972  80.6450  0.00  0.00     0.000 S
ENDBRANCH 42 49
BRANCH 45 54
ATOM     54   C  A00 X   3      13.341  43.457  82.0500  0.00  0.00     0.000 C
ATOM     55   O  A00 X   3      13.009  43.327  83.2110  0.00  0.00     0.000 OA
ATOM     56   O  A00 X   3      14.208  42.721  81.6050  0.00  0.00     0.000 OA
ENDBRANCH 45 54
BRANCH 41 57
ATOM     57  O4  A00 X   4      10.638  42.093  81.1320  0.00  0.00     0.000 O
BRANCH 57 61
ATOM     58  C1  A00 X   4      11.084  38.097  79.5590  0.00  0.00     0.000 C
ATOM     59  C2  A00 X   4      12.162  39.154  79.2130  0.00  0.00     0.000 C
ATOM     60  C3  A00 X   4      12.097  40.412  80.1020  0.00  0.00     0.000 C
ATOM     61  C4  A00 X   4      10.658  40.960  80.2170  0.00  0.00     0.000 C
ATOM     62  C5  A00 X   4       9.795  39.803  80.7790  0.00  0.00     0.000 C
ATOM     63  O5  A00 X   4       9.800  38.702  79.8340  0.00  0.00     0.000 O
BRANCH 59 66
ATOM     64   N  A00 X   4      13.449  39.530  78.6000  0.00  0.00     0.000 N
ATOM     66  HD  A00 X   4      13.473  40.261  78.1380  0.00  0.00     0.000 HD
ATOM     66   O  A00 X   4      13.156  37.677  77.0900  0.00  0.00     0.000 OA
ATOM     67   S  A00 X   4      14.198  38.448  77.6910  0.00  0.00     0.000 S
ATOM     68   O  A00 X   4      14.918  39.312  76.8010  0.00  0.00     0.000 OA
ATOM     69   O  A00 X   4      15.018  37.809  78.6810  0.00  0.00     0.000 OA
ENDBRANCH 59 66
BRANCH 62 70
ATOM     70   C  A00 X   4       8.327  40.194  81.0710  0.00  0.00     0.000 C
ATOM     71   O  A00 X   4       5.709  38.192  82.5710  0.00  0.00     0.000 OA
ATOM     72   O  A00 X   4       5.711  39.495  80.6090  0.00  0.00     0.000 OA
ATOM     73   O  A00 X   4       7.721  39.183  81.8930  0.00  0.00     0.000 O
ATOM     74   O  A00 X   4       6.841  37.336  80.6210  0.00  0.00     0.000 OA
ATOM     75   S  A00 X   4       6.423  38.484  81.3590  0.00  0.00     0.000 S
ENDBRANCH 62 70
ENDBRANCH 57 61
ENDBRANCH 41 57
ENDBRANCH 40 44
ENDBRANCH 20 40
ENDBRANCH 19 23
ENDBRANCH 1 19
TORSDOF 14
ENDMDL
MODEL 29
REMARK VINA RESULT:      -6.7     33.994     38.857
ROOT
ATOM      1  C1  A00 X   1      24.922  53.029  50.9730  0.00  0.00     0.000 C
ATOM      2  C2  A00 X   1      26.128  53.583  50.1680  0.00  0.00     0.000 C
ATOM      3  C3  A00 X   1      27.296  54.192  51.0120  0.00  0.00     0.000 C
ATOM      4  C4  A00 X   1      26.958  54.504  52.4930  0.00  0.00     0.000 C
ATOM      5  C5  A00 X   1      25.456  54.677  52.7180  0.00  0.00     0.000 C
ATOM      6  O5  A00 X   1      24.884  53.395  52.3740  0.00  0.00     0.000 O
ATOM      7   O  A00 X   1      27.693  55.427  50.4190  0.00  0.00     0.000 O
ATOM      9  HD  A00 X   1      27.689  55.545  51.2770  0.00  0.00     0.000 HD
ATOM      9   O  A00 X   1      27.464  53.496  53.3670  0.00  0.00     0.000 O
ATOM     11  HD  A00 X   1      27.461  53.614  54.2250  0.00  0.00     0.000 HD
ENDROOT
BRANCH 2 11
ATOM     11   O  A00 X   1      26.646  52.509  49.3590  0.00  0.00     0.000 O
ATOM     12   O  A00 X   1      28.695  52.721  48.1250  0.00  0.00     0.000 OA
ATOM     13   O  A00 X   1      26.807  54.142  47.5500  0.00  0.00     0.000 OA
ATOM     14   O  A00 X   1      26.724  51.802  47.1350  0.00  0.00     0.000 OA
ATOM     15   S  A00 X   1      27.269  52.845  47.9610  0.00  0.00     0.000 S
ENDBRANCH 2 11
BRANCH 5 16
ATOM     16   C  A00 X   1      24.820  55.853  51.9710  0.00  0.00     0.000 C
ATOM     17   O  A00 X   1      23.609  55.917  51.9110  0.00  0.00     0.000 OA
ATOM     18   O  A00 X   1      25.481  56.725  51.4430  0.00  0.00     0.000 OA
ENDBRANCH 5 16
BRANCH 1 19
ATOM     19  O4  A00 X   2      23.651  53.284  50.3250  0.00  0.00     0.000 O
BRANCH 19 23
ATOM     20  C1  A00 X   2      19.966  51.096  50.3340  0.00  0.00     0.000 C
ATOM     21  C2  A00 X   2      20.372  51.819  51.6420  0.00  0.00     0.000 C
ATOM     22  C3  A00 X   2      21.451  52.887  51.3680  0.00  0.00     0.000 C
ATOM     23  C4  A00 X   2      22.656  52.264  50.6280  0.00  0.00     0.000 C
ATOM     24  C5  A00 X   2      22.118  51.559  49.3530  0.00  0.00     0.000 C
ATOM     25  O5  A00 X   2      21.171  50.533  49.7510  0.00  0.00     0.000 O
ATOM     26   O  A00 X   2      21.743  53.574  52.5960  0.00  0.00     0.000 O
ATOM     28  HD  A00 X   2      21.857  52.839  53.0390  0.00  0.00     0.000 HD
BRANCH 21 30
ATOM     28   N  A00 X   2      19.737  50.725  52.3830  0.00  0.00     0.000 N
ATOM     30  HD  A00 X   2      19.861  51.370  52.9470  0.00  0.00     0.000 HD
ATOM     30   O  A00 X   2      18.912  51.589  54.3910  0.00  0.00     0.000 OA
ATOM     31   S  A00 X   2      19.907  50.674  53.9540  0.00  0.00     0.000 S
ATOM     32   O  A00 X   2      19.652  49.304  54.2780  0.00  0.00     0.000 OA
ATOM     33   O  A00 X   2      21.269  51.008  54.2430  0.00  0.00     0.000 OA
ENDBRANCH 21 30
BRANCH 24 34
ATOM     34   C  A00 X   2      23.146  51.052  48.3150  0.00  0.00     0.000 C
ATOM     35   O  A00 X   2      25.627  48.474  48.9920  0.00  0.00     0.000 OA
ATOM     36   O  A00 X   2      24.207  50.309  48.9500  0.00  0.00     0.000 O
ATOM     37   O  A00 X   2      23.300  48.181  49.2960  0.00  0.00     0.000 OA
ATOM     38   S  A00 X   2      24.325  48.803  48.5140  0.00  0.00     0.000 S
ATOM     39   O  A00 X   2      24.177  48.780  47.0900  0.00  0.00     0.000 OA
ENDBRANCH 24 34
BRANCH 20 40
ATOM     40  O4  A00 X   3      19.448  52.119  49.4710  0.00  0.00     0.000 O
BRANCH 40 44
ATOM     41  C1  A00 X   3      19.024  53.923  46.3580  0.00  0.00     0.000 C
ATOM     42  C2  A00 X   3      18.232  54.204  47.6540  0.00  0.00     0.000 C
ATOM     43  C3  A00 X   3      17.617  52.900  48.2230  0.00  0.00     0.000 C
ATOM     44  C4  A00 X   3      18.601  51.745  48.3630  0.00  0.00     0.000 C
ATOM     45  C5  A00 X   3      19.353  51.521  47.0210  0.00  0.00     0.000 C
ATOM     46  O5  A00 X   3      19.907  52.779  46.5160  0.00  0.00     0.000 O
ATOM     47   O  A00 X   3      16.789  53.052  49.3740  0.00  0.00     0.000 O
ATOM     49  HD  A00 X   3      17.179  52.317  49.6130  0.00  0.00     0.000 HD
BRANCH 42 49
ATOM     49   O  A00 X   3      19.152  54.807  48.5900  0.00  0.00     0.000 O
ATOM     50   O  A00 X   3      19.056  55.602  50.8460  0.00  0.00     0.000 OA
ATOM     51   O  A00 X   3      17.252  56.074  49.3910  0.00  0.00     0.000 OA
ATOM     52   O  A00 X   3      19.334  57.115  48.9800  0.00  0.00     0.000 OA
ATOM     53   S  A00 X   3      18.685  55.968  49.5150  0.00  0.00     0.000 S
ENDBRANCH 42 49
BRANCH 45 54
ATOM     54   C  A00 X   3      18.478  50.792  45.9950  0.00  0.00     0.000 C
ATOM     55   O  A00 X   3      18.982  50.174  45.0790  0.00  0.00     0.000 OA
ATOM     56   O  A00 X   3      17.260  50.821  46.0790  0.00  0.00     0.000 OA
ENDBRANCH 45 54
BRANCH 41 57
ATOM     57  O4  A00 X   4      18.153  53.838  45.2080  0.00  0.00     0.000 O
BRANCH 57 61
ATOM     58  C1  A00 X   4      18.844  54.182  40.9600  0.00  0.00     0.000 C
ATOM     59  C2  A00 X   4      19.507  53.011  41.7270  0.00  0.00     0.000 C
ATOM     60  C3  A00 X   4      18.913  52.780  43.1310  0.00  0.00     0.000 C
ATOM     61  C4  A00 X   4      18.794  54.098  43.9270  0.00  0.00     0.000 C
ATOM     62  C5  A00 X   4      17.919  55.046  43.0710  0.00  0.00     0.000 C
ATOM     63  O5  A00 X   4      18.596  55.319  41.8180  0.00  0.00     0.000 O
BRANCH 59 66
ATOM     64   N  A00 X   4      19.851  51.620  41.3780  0.00  0.00     0.000 N
ATOM     66  HD  A00 X   4      20.319  51.169  41.9500  0.00  0.00     0.000 HD
ATOM     66   O  A00 X   4      21.333  52.512  39.7030  0.00  0.00     0.000 OA
ATOM     67   S  A00 X   4      20.552  51.344  39.9670  0.00  0.00     0.000 S
ATOM     68   O  A00 X   4      21.299  50.160  40.2770  0.00  0.00     0.000 OA
ATOM     69   O  A00 X   4      19.395  51.113  39.1500  0.00  0.00     0.000 OA
ENDBRANCH 59 66
BRANCH 62 70
ATOM     70   C  A00 X   4      17.591  56.394  43.7570  0.00  0.00     0.000 C
ATOM     71   O  A00 X   4      14.683  57.285  45.7200  0.00  0.00     0.000 OA
ATOM     72   O  A00 X   4      15.724  58.401  43.9270  0.00  0.00     0.000 OA
ATOM     73   O  A00 X   4      16.462  56.222  44.6280  0.00  0.00     0.000 O
ATOM     74   O  A00 X   4      14.351  56.436  43.4880  0.00  0.00     0.000 OA
ATOM     75   S  A00 X   4      15.208  57.133  44.3920  0.00  0.00     0.000 S
ENDBRANCH 62 70
ENDBRANCH 57 61
ENDBRANCH 41 57
ENDBRANCH 40 44
ENDBRANCH 20 40
ENDBRANCH 19 23
ENDBRANCH 1 19
TORSDOF 14
ENDMDL
MODEL 30
REMARK VINA RESULT:      -6.5     28.431     33.512
ROOT
ATOM      1  C1  A00 X   1      24.614  52.076  57.5420  0.00  0.00     0.000 C
ATOM      2  C2  A00 X   1      25.846  53.019  57.5660  0.00  0.00     0.000 C
ATOM      3  C3  A00 X   1      26.960  52.668  58.6060  0.00  0.00     0.000 C
ATOM      4  C4  A00 X   1      26.547  51.667  59.7160  0.00  0.00     0.000 C
ATOM      5  C5  A00 X   1      25.033  51.628  59.9240  0.00  0.00     0.000 C
ATOM      6  O5  A00 X   1      24.502  51.163  58.6620  0.00  0.00     0.000 O
ATOM      7   O  A00 X   1      27.361  53.865  59.2690  0.00  0.00     0.000 O
ATOM      9  HD  A00 X   1      27.315  53.243  59.8700  0.00  0.00     0.000 HD
ATOM      9   O  A00 X   1      27.031  50.353  59.4410  0.00  0.00     0.000 O
ATOM     11  HD  A00 X   1      26.984  49.731  60.0420  0.00  0.00     0.000 HD
ENDROOT
BRANCH 2 11
ATOM     11   O  A00 X   1      26.421  53.023  56.2450  0.00  0.00     0.000 O
ATOM     12   O  A00 X   1      28.599  53.937  55.8110  0.00  0.00     0.000 OA
ATOM     13   O  A00 X   1      26.823  55.408  56.5840  0.00  0.00     0.000 OA
ATOM     14   O  A00 X   1      26.725  54.439  54.4140  0.00  0.00     0.000 OA
ATOM     15   S  A00 X   1      27.203  54.292  55.7620  0.00  0.00     0.000 S
ENDBRANCH 2 11
BRANCH 5 16
ATOM     16   C  A00 X   1      24.410  52.943  60.4040  0.00  0.00     0.000 C
ATOM     17   O  A00 X   1      25.147  53.832  60.7770  0.00  0.00     0.000 OA
ATOM     18   O  A00 X   1      23.210  53.129  60.4170  0.00  0.00     0.000 OA
ENDBRANCH 5 16
BRANCH 1 19
ATOM     19  O4  A00 X   2      23.370  52.782  57.3110  0.00  0.00     0.000 O
BRANCH 19 23
ATOM     20  C1  A00 X   2      19.568  50.950  56.5690  0.00  0.00     0.000 C
ATOM     21  C2  A00 X   2      19.690  51.866  57.8110  0.00  0.00     0.000 C
ATOM     22  C3  A00 X   2      20.935  52.770  57.7070  0.00  0.00     0.000 C
ATOM     23  C4  A00 X   2      22.204  51.923  57.4590  0.00  0.00     0.000 C
ATOM     24  C5  A00 X   2      21.948  51.042  56.2050  0.00  0.00     0.000 C
ATOM     25  O5  A00 X   2      20.801  50.190  56.4590  0.00  0.00     0.000 O
ATOM     26   O  A00 X   2      20.966  53.646  58.8470  0.00  0.00     0.000 O
ATOM     28  HD  A00 X   2      20.855  52.998  59.4110  0.00  0.00     0.000 HD
BRANCH 21 30
ATOM     28   N  A00 X   2      18.805  50.970  58.5620  0.00  0.00     0.000 N
ATOM     30  HD  A00 X   2      18.809  51.727  58.9820  0.00  0.00     0.000 HD
ATOM     30   O  A00 X   2      17.512  52.270  60.0100  0.00  0.00     0.000 OA
ATOM     31   S  A00 X   2      18.528  51.280  60.0870  0.00  0.00     0.000 S
ATOM     32   O  A00 X   2      18.105  50.021  60.6170  0.00  0.00     0.000 OA
ATOM     33   O  A00 X   2      19.775  51.673  60.6720  0.00  0.00     0.000 OA
ENDBRANCH 21 30
BRANCH 24 34
ATOM     34   C  A00 X   2      23.146  50.267  55.6070  0.00  0.00     0.000 C
ATOM     35   O  A00 X   2      24.411  50.760  52.2280  0.00  0.00     0.000 OA
ATOM     36   O  A00 X   2      23.194  50.406  54.1730  0.00  0.00     0.000 O
ATOM     37   O  A00 X   2      24.191  52.492  53.8230  0.00  0.00     0.000 OA
ATOM     38   S  A00 X   2      24.483  51.108  53.6090  0.00  0.00     0.000 S
ATOM     39   O  A00 X   2      25.593  50.547  54.3200  0.00  0.00     0.000 OA
ENDBRANCH 24 34
BRANCH 20 40
ATOM     40  O4  A00 X   3      19.448  51.835  55.4450  0.00  0.00     0.000 O
BRANCH 40 44
ATOM     41  C1  A00 X   3      19.811  53.290  52.1470  0.00  0.00     0.000 C
ATOM     42  C2  A00 X   3      18.743  53.708  53.1810  0.00  0.00     0.000 C
ATOM     43  C3  A00 X   3      17.981  52.472  53.7240  0.00  0.00     0.000 C
ATOM     44  C4  A00 X   3      18.877  51.341  54.2150  0.00  0.00     0.000 C
ATOM     45  C5  A00 X   3      19.919  50.974  53.1200  0.00  0.00     0.000 C
ATOM     46  O5  A00 X   3      20.605  52.171  52.6300  0.00  0.00     0.000 O
ATOM     47   O  A00 X   3      16.910  52.746  54.6240  0.00  0.00     0.000 O
ATOM     49  HD  A00 X   3      17.215  52.042  55.0250  0.00  0.00     0.000 HD
BRANCH 42 49
ATOM     49   O  A00 X   3      19.431  54.411  54.2390  0.00  0.00     0.000 O
ATOM     50   O  A00 X   3      18.835  55.394  56.3390  0.00  0.00     0.000 OA
ATOM     51   O  A00 X   3      17.394  55.694  54.4890  0.00  0.00     0.000 OA
ATOM     52   O  A00 X   3      19.510  56.748  54.4530  0.00  0.00     0.000 OA
ATOM     53   S  A00 X   3      18.765  55.635  54.9320  0.00  0.00     0.000 S
ENDBRANCH 42 49
BRANCH 45 54
ATOM     54   C  A00 X   3      19.292  50.136  51.9990  0.00  0.00     0.000 C
ATOM     55   O  A00 X   3      18.104  49.888  52.0020  0.00  0.00     0.000 OA
ATOM     56   O  A00 X   3      19.977  49.703  51.0860  0.00  0.00     0.000 OA
ENDBRANCH 45 54
BRANCH 41 57
ATOM     57  O4  A00 X   4      19.233  53.078  50.8390  0.00  0.00     0.000 O
BRANCH 57 61
ATOM     58  C1  A00 X   4      20.988  52.956  46.8970  0.00  0.00     0.000 C
ATOM     59  C2  A00 X   4      20.691  51.617  47.6180  0.00  0.00     0.000 C
ATOM     60  C3  A00 X   4      19.754  51.769  48.8330  0.00  0.00     0.000 C
ATOM     61  C4  A00 X   4      20.195  52.925  49.7570  0.00  0.00     0.000 C
ATOM     62  C5  A00 X   4      20.220  54.199  48.8770  0.00  0.00     0.000 C
ATOM     63  O5  A00 X   4      21.211  54.037  47.8300  0.00  0.00     0.000 O
BRANCH 59 66
ATOM     64   N  A00 X   4      22.091  51.378  48.0120  0.00  0.00     0.000 N
ATOM     66  HD  A00 X   4      22.630  52.057  48.0060  0.00  0.00     0.000 HD
ATOM     66   O  A00 X   4      22.360  50.166  45.9490  0.00  0.00     0.000 OA
ATOM     67   S  A00 X   4      22.897  50.211  47.2730  0.00  0.00     0.000 S
ATOM     68   O  A00 X   4      24.236  50.715  47.3790  0.00  0.00     0.000 OA
ATOM     69   O  A00 X   4      22.612  49.111  48.1500  0.00  0.00     0.000 OA
ENDBRANCH 59 66
BRANCH 62 70
ATOM     70   C  A00 X   4      20.537  55.498  49.6560  0.00  0.00     0.000 C
ATOM     71   O  A00 X   4      23.752  56.753  50.7500  0.00  0.00     0.000 OA
ATOM     72   O  A00 X   4      21.727  56.491  51.9240  0.00  0.00     0.000 OA
ATOM     73   O  A00 X   4      21.957  55.717  49.6580  0.00  0.00     0.000 O
ATOM     74   O  A00 X   4      23.091  54.534  51.4240  0.00  0.00     0.000 OA
ATOM     75   S  A00 X   4      22.678  55.847  51.0440  0.00  0.00     0.000 S
ENDBRANCH 62 70
ENDBRANCH 57 61
ENDBRANCH 41 57
ENDBRANCH 40 44
ENDBRANCH 20 40
ENDBRANCH 19 23
ENDBRANCH 1 19
TORSDOF 14
ENDMDL
MODEL 31
REMARK VINA RESULT:      -6.5     33.203     37.958
ROOT
ATOM      1  C1  A00 X   1      25.112  51.186  51.0780  0.00  0.00     0.000 C
ATOM      2  C2  A00 X   1      26.143  50.784  49.9910  0.00  0.00     0.000 C
ATOM      3  C3  A00 X   1      27.648  51.009  50.3540  0.00  0.00     0.000 C
ATOM      4  C4  A00 X   1      27.911  51.927  51.5750  0.00  0.00     0.000 C
ATOM      5  C5  A00 X   1      26.734  52.861  51.8590  0.00  0.00     0.000 C
ATOM      6  O5  A00 X   1      25.633  51.978  52.1730  0.00  0.00     0.000 O
ATOM      7   O  A00 X   1      28.302  51.616  49.2430  0.00  0.00     0.000 O
ATOM      9  HD  A00 X   1      28.597  52.007  49.9570  0.00  0.00     0.000 HD
ATOM      9   O  A00 X   1      28.216  51.167  52.7440  0.00  0.00     0.000 O
ATOM     11  HD  A00 X   1      28.511  51.557  53.4590  0.00  0.00     0.000 HD
ENDROOT
BRANCH 2 11
ATOM     11   O  A00 X   1      25.937  49.392  49.6840  0.00  0.00     0.000 O
ATOM     12   O  A00 X   1      27.647  48.050  48.6630  0.00  0.00     0.000 OA
ATOM     13   O  A00 X   1      26.709  49.924  47.4280  0.00  0.00     0.000 OA
ATOM     14   O  A00 X   1      25.385  48.002  47.8910  0.00  0.00     0.000 OA
ATOM     15   S  A00 X   1      26.480  48.826  48.3270  0.00  0.00     0.000 S
ENDBRANCH 2 11
BRANCH 5 16
ATOM     16   C  A00 X   1      26.418  53.862  50.7440  0.00  0.00     0.000 C
ATOM     17   O  A00 X   1      27.262  54.076  49.8980  0.00  0.00     0.000 OA
ATOM     18   O  A00 X   1      25.353  54.443  50.6720  0.00  0.00     0.000 OA
ENDBRANCH 5 16
BRANCH 1 19
ATOM     19  O4  A00 X   2      23.912  51.778  50.5220  0.00  0.00     0.000 O
BRANCH 19 23
ATOM     20  C1  A00 X   2      19.768  50.801  51.0130  0.00  0.00     0.000 C
ATOM     21  C2  A00 X   2      20.524  51.349  52.2480  0.00  0.00     0.000 C
ATOM     22  C3  A00 X   2      21.834  52.046  51.8250  0.00  0.00     0.000 C
ATOM     23  C4  A00 X   2      22.700  51.101  50.9620  0.00  0.00     0.000 C
ATOM     24  C5  A00 X   2      21.827  50.609  49.7750  0.00  0.00     0.000 C
ATOM     25  O5  A00 X   2      20.670  49.910  50.3040  0.00  0.00     0.000 O
ATOM     26   O  A00 X   2      22.462  52.596  52.9960  0.00  0.00     0.000 O
ATOM     28  HD  A00 X   2      22.402  51.854  53.4380  0.00  0.00     0.000 HD
BRANCH 21 30
ATOM     28   N  A00 X   2      19.806  50.427  53.1330  0.00  0.00     0.000 N
ATOM     30  HD  A00 X   2      20.110  51.067  53.6310  0.00  0.00     0.000 HD
ATOM     30   O  A00 X   2      19.401  51.528  55.1540  0.00  0.00     0.000 OA
ATOM     31   S  A00 X   2      20.158  50.427  54.6740  0.00  0.00     0.000 S
ATOM     32   O  A00 X   2      19.711  49.145  55.1230  0.00  0.00     0.000 OA
ATOM     33   O  A00 X   2      21.583  50.522  54.7830  0.00  0.00     0.000 OA
ENDBRANCH 21 30
BRANCH 24 34
ATOM     34   C  A00 X   2      22.524  49.831  48.6350  0.00  0.00     0.000 C
ATOM     35   O  A00 X   2      21.564  50.050  45.1300  0.00  0.00     0.000 OA
ATOM     36   O  A00 X   2      21.725  49.834  47.4350  0.00  0.00     0.000 O
ATOM     37   O  A00 X   2      22.148  51.917  46.4590  0.00  0.00     0.000 OA
ATOM     38   S  A00 X   2      22.386  50.532  46.1900  0.00  0.00     0.000 S
ATOM     39   O  A00 X   2      23.747  50.087  46.1530  0.00  0.00     0.000 OA
ENDBRANCH 24 34
BRANCH 20 40
ATOM     40  O4  A00 X   3      19.482  51.945  50.1950  0.00  0.00     0.000 O
BRANCH 40 44
ATOM     41  C1  A00 X   3      18.395  54.573  47.9510  0.00  0.00     0.000 C
ATOM     42  C2  A00 X   3      17.809  54.318  49.3570  0.00  0.00     0.000 C
ATOM     43  C3  A00 X   3      17.410  52.829  49.5290  0.00  0.00     0.000 C
ATOM     44  C4  A00 X   3      18.497  51.833  49.1450  0.00  0.00     0.000 C
ATOM     45  C5  A00 X   3      19.032  52.152  47.7200  0.00  0.00     0.000 C
ATOM     46  O5  A00 X   3      19.386  53.568  47.6000  0.00  0.00     0.000 O
ATOM     47   O  A00 X   3      16.775  52.494  50.7620  0.00  0.00     0.000 O
ATOM     49  HD  A00 X   3      17.260  51.780  50.6870  0.00  0.00     0.000 HD
BRANCH 42 49
ATOM     49   O  A00 X   3      18.818  54.708  50.3130  0.00  0.00     0.000 O
ATOM     50   O  A00 X   3      19.049  54.682  52.6960  0.00  0.00     0.000 OA
ATOM     51   O  A00 X   3      16.978  55.327  51.7570  0.00  0.00     0.000 OA
ATOM     52   O  A00 X   3      18.840  56.753  51.4660  0.00  0.00     0.000 OA
ATOM     53   S  A00 X   3      18.412  55.408  51.6430  0.00  0.00     0.000 S
ENDBRANCH 42 49
BRANCH 45 54
ATOM     54   C  A00 X   3      18.062  51.678  46.6310  0.00  0.00     0.000 C
ATOM     55   O  A00 X   3      18.455  51.469  45.5020  0.00  0.00     0.000 OA
ATOM     56   O  A00 X   3      16.879  51.504  46.8800  0.00  0.00     0.000 OA
ENDBRANCH 45 54
BRANCH 41 57
ATOM     57  O4  A00 X   4      17.355  54.744  46.9620  0.00  0.00     0.000 O
BRANCH 57 61
ATOM     58  C1  A00 X   4      17.143  56.925  43.2420  0.00  0.00     0.000 C
ATOM     59  C2  A00 X   4      18.044  55.667  43.3140  0.00  0.00     0.000 C
ATOM     60  C3  A00 X   4      17.767  54.781  44.5450  0.00  0.00     0.000 C
ATOM     61  C4  A00 X   4      17.701  55.612  45.8450  0.00  0.00     0.000 C
ATOM     62  C5  A00 X   4      16.594  56.673  45.6280  0.00  0.00     0.000 C
ATOM     63  O5  A00 X   4      16.978  57.548  44.5370  0.00  0.00     0.000 O
BRANCH 59 66
ATOM     64   N  A00 X   4      19.162  54.819  42.8620  0.00  0.00     0.000 N
ATOM     66  HD  A00 X   4      19.883  54.818  43.3420  0.00  0.00     0.000 HD
ATOM     66   O  A00 X   4      19.460  56.358  41.0340  0.00  0.00     0.000 OA
ATOM     67   S  A00 X   4      19.676  54.982  41.3560  0.00  0.00     0.000 S
ATOM     68   O  A00 X   4      21.048  54.592  41.5080  0.00  0.00     0.000 OA
ATOM     69   O  A00 X   4      18.855  54.003  40.7010  0.00  0.00     0.000 OA
ENDBRANCH 59 66
BRANCH 62 70
ATOM     70   C  A00 X   4      16.299  57.542  46.8740  0.00  0.00     0.000 C
ATOM     71   O  A00 X   4      13.094  58.583  48.1990  0.00  0.00     0.000 OA
ATOM     72   O  A00 X   4      15.041  59.825  47.7390  0.00  0.00     0.000 OA
ATOM     73   O  A00 X   4      14.893  57.494  47.1650  0.00  0.00     0.000 O
ATOM     74   O  A00 X   4      13.614  59.099  45.9010  0.00  0.00     0.000 OA
ATOM     75   S  A00 X   4      14.108  58.851  47.2180  0.00  0.00     0.000 S
ENDBRANCH 62 70
ENDBRANCH 57 61
ENDBRANCH 41 57
ENDBRANCH 40 44
ENDBRANCH 20 40
ENDBRANCH 19 23
ENDBRANCH 1 19
TORSDOF 14
ENDMDL
MODEL 32
REMARK VINA RESULT:      -6.5     30.507     35.284
ROOT
ATOM      1  C1  A00 X   1      24.722  50.754  51.6370  0.00  0.00     0.000 C
ATOM      2  C2  A00 X   1      25.173  50.425  50.1890  0.00  0.00     0.000 C
ATOM      3  C3  A00 X   1      26.716  50.431  49.9310  0.00  0.00     0.000 C
ATOM      4  C4  A00 X   1      27.575  51.110  51.0290  0.00  0.00     0.000 C
ATOM      5  C5  A00 X   1      26.765  52.104  51.8620  0.00  0.00     0.000 C
ATOM      6  O5  A00 X   1      25.747  51.303  52.5030  0.00  0.00     0.000 O
ATOM      7   O  A00 X   1      26.975  51.137  48.7200  0.00  0.00     0.000 O
ATOM      9  HD  A00 X   1      27.582  51.375  49.2890  0.00  0.00     0.000 HD
ATOM      9   O  A00 X   1      28.184  50.145  51.8870  0.00  0.00     0.000 O
ATOM     11  HD  A00 X   1      28.791  50.384  52.4560  0.00  0.00     0.000 HD
ENDROOT
BRANCH 2 11
ATOM     11   O  A00 X   1      24.645  49.129  49.8490  0.00  0.00     0.000 O
ATOM     12   O  A00 X   1      25.347  47.948  47.8790  0.00  0.00     0.000 OA
ATOM     13   O  A00 X   1      24.168  50.062  47.6430  0.00  0.00     0.000 OA
ATOM     14   O  A00 X   1      23.040  48.139  48.4720  0.00  0.00     0.000 OA
ATOM     15   S  A00 X   1      24.301  48.819  48.3510  0.00  0.00     0.000 S
ENDBRANCH 2 11
BRANCH 5 16
ATOM     16   C  A00 X   1      26.205  53.298  51.0830  0.00  0.00     0.000 C
ATOM     17   O  A00 X   1      26.676  53.553  49.9930  0.00  0.00     0.000 OA
ATOM     18   O  A00 X   1      25.305  53.992  51.5120  0.00  0.00     0.000 OA
ENDBRANCH 5 16
BRANCH 1 19
ATOM     19  O4  A00 X   2      23.512  51.548  51.6820  0.00  0.00     0.000 O
BRANCH 19 23
ATOM     20  C1  A00 X   2      19.787  50.922  53.7060  0.00  0.00     0.000 C
ATOM     21  C2  A00 X   2      21.070  50.974  54.5710  0.00  0.00     0.000 C
ATOM     22  C3  A00 X   2      22.232  51.623  53.7900  0.00  0.00     0.000 C
ATOM     23  C4  A00 X   2      22.448  50.904  52.4390  0.00  0.00     0.000 C
ATOM     24  C5  A00 X   2      21.092  50.902  51.6810  0.00  0.00     0.000 C
ATOM     25  O5  A00 X   2      20.108  50.203  52.4850  0.00  0.00     0.000 O
ATOM     26   O  A00 X   2      23.377  51.710  54.6560  0.00  0.00     0.000 O
ATOM     28  HD  A00 X   2      23.325  50.879  54.8910  0.00  0.00     0.000 HD
BRANCH 21 30
ATOM     28   N  A00 X   2      20.123  51.029  55.6890  0.00  0.00     0.000 N
ATOM     30  HD  A00 X   2      20.797  50.554  55.9540  0.00  0.00     0.000 HD
ATOM     30   O  A00 X   2      21.247  50.363  57.6260  0.00  0.00     0.000 OA
ATOM     31   S  A00 X   2      20.191  49.902  56.7960  0.00  0.00     0.000 S
ATOM     32   O  A00 X   2      18.893  49.937  57.3950  0.00  0.00     0.000 OA
ATOM     33   O  A00 X   2      20.394  48.656  56.1190  0.00  0.00     0.000 OA
ENDBRANCH 21 30
BRANCH 24 34
ATOM     34   C  A00 X   2      21.089  50.446  50.2030  0.00  0.00     0.000 C
ATOM     35   O  A00 X   2      18.889  51.821  47.6480  0.00  0.00     0.000 OA
ATOM     36   O  A00 X   2      19.901  50.895  49.5200  0.00  0.00     0.000 O
ATOM     37   O  A00 X   2      20.350  53.124  48.9740  0.00  0.00     0.000 OA
ATOM     38   S  A00 X   2      20.149  51.871  48.3130  0.00  0.00     0.000 S
ATOM     39   O  A00 X   2      21.248  51.328  47.5720  0.00  0.00     0.000 OA
ENDBRANCH 24 34
BRANCH 20 40
ATOM     40  O4  A00 X   3      19.476  52.287  53.3910  0.00  0.00     0.000 O
BRANCH 40 44
ATOM     41  C1  A00 X   3      18.177  55.587  52.6510  0.00  0.00     0.000 C
ATOM     42  C2  A00 X   3      18.040  54.872  54.0130  0.00  0.00     0.000 C
ATOM     43  C3  A00 X   3      17.476  53.439  53.8330  0.00  0.00     0.000 C
ATOM     44  C4  A00 X   3      18.201  52.600  52.7880  0.00  0.00     0.000 C
ATOM     45  C5  A00 X   3      18.295  53.383  51.4480  0.00  0.00     0.000 C
ATOM     46  O5  A00 X   3      18.821  54.732  51.6670  0.00  0.00     0.000 O
ATOM     47   O  A00 X   3      17.225  52.713  55.0350  0.00  0.00     0.000 O
ATOM     49  HD  A00 X   3      17.535  52.053  54.5680  0.00  0.00     0.000 HD
BRANCH 42 49
ATOM     49   O  A00 X   3      19.353  54.852  54.6140  0.00  0.00     0.000 O
ATOM     50   O  A00 X   3      20.337  53.936  56.5950  0.00  0.00     0.000 OA
ATOM     51   O  A00 X   3      18.201  54.940  56.7410  0.00  0.00     0.000 OA
ATOM     52   O  A00 X   3      20.068  56.321  56.3000  0.00  0.00     0.000 OA
ATOM     53   S  A00 X   3      19.515  55.019  56.1530  0.00  0.00     0.000 S
ENDBRANCH 42 49
BRANCH 45 54
ATOM     54   C  A00 X   3      16.962  53.370  50.6900  0.00  0.00     0.000 C
ATOM     55   O  A00 X   3      15.917  53.180  51.2780  0.00  0.00     0.000 OA
ATOM     56   O  A00 X   3      16.929  53.549  49.4820  0.00  0.00     0.000 OA
ENDBRANCH 45 54
BRANCH 41 57
ATOM     57  O4  A00 X   4      16.918  56.143  52.2110  0.00  0.00     0.000 O
BRANCH 57 61
ATOM     58  C1  A00 X   4      15.876  59.180  49.3240  0.00  0.00     0.000 C
ATOM     59  C2  A00 X   4      16.238  57.763  48.8120  0.00  0.00     0.000 C
ATOM     60  C3  A00 X   4      16.237  56.690  49.9200  0.00  0.00     0.000 C
ATOM     61  C4  A00 X   4      17.019  57.154  51.1670  0.00  0.00     0.000 C
ATOM     62  C5  A00 X   4      16.356  58.474  51.6330  0.00  0.00     0.000 C
ATOM     63  O5  A00 X   4      16.503  59.474  50.5930  0.00  0.00     0.000 O
BRANCH 59 66
ATOM     64   N  A00 X   4      15.939  56.870  47.6780  0.00  0.00     0.000 N
ATOM     66  HD  A00 X   4      16.454  56.184  47.5620  0.00  0.00     0.000 HD
ATOM     66   O  A00 X   4      16.676  58.640  46.2200  0.00  0.00     0.000 OA
ATOM     67   S  A00 X   4      15.790  57.518  46.2230  0.00  0.00     0.000 S
ATOM     68   O  A00 X   4      16.193  56.412  45.4050  0.00  0.00     0.000 OA
ATOM     69   O  A00 X   4      14.379  57.780  46.2050  0.00  0.00     0.000 OA
ENDBRANCH 59 66
BRANCH 62 70
ATOM     70   C  A00 X   4      16.937  59.043  52.9490  0.00  0.00     0.000 C
ATOM     71   O  A00 X   4      20.090  60.740  53.4810  0.00  0.00     0.000 OA
ATOM     72   O  A00 X   4      19.096  58.951  54.6440  0.00  0.00     0.000 OA
ATOM     73   O  A00 X   4      18.091  59.846  52.6510  0.00  0.00     0.000 O
ATOM     74   O  A00 X   4      20.116  58.553  52.4670  0.00  0.00     0.000 OA
ATOM     75   S  A00 X   4      19.447  59.464  53.3390  0.00  0.00     0.000 S
ENDBRANCH 62 70
ENDBRANCH 57 61
ENDBRANCH 41 57
ENDBRANCH 40 44
ENDBRANCH 20 40
ENDBRANCH 19 23
ENDBRANCH 1 19
TORSDOF 14
ENDMDL
MODEL 33
REMARK VINA RESULT:      -6.5     20.107     26.435
ROOT
ATOM      1  C1  A00 X   1       6.272  56.044  65.8270  0.00  0.00     0.000 C
ATOM      2  C2  A00 X   1       7.389  55.262  66.5680  0.00  0.00     0.000 C
ATOM      3  C3  A00 X   1       8.856  55.724  66.2840  0.00  0.00     0.000 C
ATOM      4  C4  A00 X   1       9.042  56.638  65.0450  0.00  0.00     0.000 C
ATOM      5  C5  A00 X   1       7.902  56.482  64.0380  0.00  0.00     0.000 C
ATOM      6  O5  A00 X   1       6.720  56.907  64.7530  0.00  0.00     0.000 O
ATOM      7   O  A00 X   1       9.665  54.571  66.0610  0.00  0.00     0.000 O
ATOM      9  HD  A00 X   1       9.904  55.167  65.4800  0.00  0.00     0.000 HD
ATOM      9   O  A00 X   1       9.169  58.009  65.4210  0.00  0.00     0.000 O
ATOM     11  HD  A00 X   1       9.408  58.604  64.8400  0.00  0.00     0.000 HD
ENDROOT
BRANCH 2 11
ATOM     11   O  A00 X   1       7.131  55.362  67.9820  0.00  0.00     0.000 O
ATOM     12   O  A00 X   1       8.296  54.007  69.5860  0.00  0.00     0.000 OA
ATOM     13   O  A00 X   1       6.842  52.937  67.9550  0.00  0.00     0.000 OA
ATOM     14   O  A00 X   1       5.925  54.299  69.6750  0.00  0.00     0.000 OA
ATOM     15   S  A00 X   1       7.066  54.050  68.8360  0.00  0.00     0.000 S
ENDBRANCH 2 11
BRANCH 5 16
ATOM     16   C  A00 X   1       7.774  55.088  63.4150  0.00  0.00     0.000 C
ATOM     17   O  A00 X   1       8.685  54.300  63.5620  0.00  0.00     0.000 OA
ATOM     18   O  A00 X   1       6.792  54.742  62.7880  0.00  0.00     0.000 OA
ENDBRANCH 5 16
BRANCH 1 19
ATOM     19  O4  A00 X   2       5.180  55.193  65.4000  0.00  0.00     0.000 O
BRANCH 19 23
ATOM     20  C1  A00 X   2       2.127  58.188  65.6660  0.00  0.00     0.000 C
ATOM     21  C2  A00 X   2       2.540  57.471  66.9740  0.00  0.00     0.000 C
ATOM     22  C3  A00 X   2       3.902  56.766  66.8070  0.00  0.00     0.000 C
ATOM     23  C4  A00 X   2       3.879  55.819  65.5860  0.00  0.00     0.000 C
ATOM     24  C5  A00 X   2       3.434  56.649  64.3500  0.00  0.00     0.000 C
ATOM     25  O5  A00 X   2       2.114  57.196  64.6050  0.00  0.00     0.000 O
ATOM     26   O  A00 X   2       4.273  56.175  68.0640  0.00  0.00     0.000 O
ATOM     28  HD  A00 X   2       3.508  55.783  68.1630  0.00  0.00     0.000 HD
BRANCH 21 30
ATOM     28   N  A00 X   2       3.012  57.709  68.3420  0.00  0.00     0.000 N
ATOM     30  HD  A00 X   2       2.162  57.876  68.3370  0.00  0.00     0.000 HD
ATOM     30   O  A00 X   2       1.150  57.778  69.7510  0.00  0.00     0.000 OA
ATOM     31   S  A00 X   2       2.164  58.654  69.2830  0.00  0.00     0.000 S
ATOM     32   O  A00 X   2       3.103  59.076  70.2750  0.00  0.00     0.000 OA
ATOM     33   O  A00 X   2       1.742  59.771  68.4910  0.00  0.00     0.000 OA
ENDBRANCH 21 30
BRANCH 24 34
ATOM     34   C  A00 X   2       3.549  55.992  62.9550  0.00  0.00     0.000 C
ATOM     35   O  A00 X   2       1.425  53.270  61.8000  0.00  0.00     0.000 OA
ATOM     36   O  A00 X   2       2.841  54.737  62.9080  0.00  0.00     0.000 O
ATOM     37   O  A00 X   2       0.604  55.342  62.5910  0.00  0.00     0.000 OA
ATOM     38   S  A00 X   2       1.652  54.675  61.8810  0.00  0.00     0.000 S
ATOM     39   O  A00 X   2       2.127  55.284  60.6750  0.00  0.00     0.000 OA
ENDBRANCH 24 34
BRANCH 20 40
ATOM     40  O4  A00 X   3       3.158  59.151  65.4090  0.00  0.00     0.000 O
BRANCH 40 44
ATOM     41  C1  A00 X   3       5.445  61.187  63.4720  0.00  0.00     0.000 C
ATOM     42  C2  A00 X   3       5.209  61.331  64.9910  0.00  0.00     0.000 C
ATOM     43  C3  A00 X   3       3.695  61.436  65.3100  0.00  0.00     0.000 C
ATOM     44  C4  A00 X   3       2.837  60.351  64.6730  0.00  0.00     0.000 C
ATOM     45  C5  A00 X   3       3.127  60.270  63.1470  0.00  0.00     0.000 C
ATOM     46  O5  A00 X   3       4.566  60.183  62.8930  0.00  0.00     0.000 O
ATOM     47   O  A00 X   3       3.362  61.661  66.6780  0.00  0.00     0.000 O
ATOM     49  HD  A00 X   3       2.719  61.109  66.4950  0.00  0.00     0.000 HD
BRANCH 42 49
ATOM     49   O  A00 X   3       5.803  60.176  65.6230  0.00  0.00     0.000 O
ATOM     50   O  A00 X   3       5.933  59.292  67.8440  0.00  0.00     0.000 OA
ATOM     51   O  A00 X   3       6.191  61.621  67.5250  0.00  0.00     0.000 OA
ATOM     52   O  A00 X   3       7.880  60.179  66.7170  0.00  0.00     0.000 OA
ATOM     53   S  A00 X   3       6.495  60.309  67.0110  0.00  0.00     0.000 S
ENDBRANCH 42 49
BRANCH 45 54
ATOM     54   C  A00 X   3       2.446  61.410  62.3790  0.00  0.00     0.000 C
ATOM     55   O  A00 X   3       2.300  61.344  61.1760  0.00  0.00     0.000 OA
ATOM     56   O  A00 X   3       2.041  62.403  62.9630  0.00  0.00     0.000 OA
ENDBRANCH 45 54
BRANCH 41 57
ATOM     57  O4  A00 X   4       5.398  62.465  62.8000  0.00  0.00     0.000 O
BRANCH 57 61
ATOM     58  C1  A00 X   4       6.617  63.653  58.8320  0.00  0.00     0.000 C
ATOM     59  C2  A00 X   4       5.107  63.462  59.1170  0.00  0.00     0.000 C
ATOM     60  C3  A00 X   4       4.768  63.396  60.6210  0.00  0.00     0.000 C
ATOM     61  C4  A00 X   4       5.704  62.428  61.3770  0.00  0.00     0.000 C
ATOM     62  C5  A00 X   4       7.147  62.930  61.1250  0.00  0.00     0.000 C
ATOM     63  O5  A00 X   4       7.440  62.848  59.7070  0.00  0.00     0.000 O
BRANCH 59 66
ATOM     64   N  A00 X   4       4.006  62.583  58.6820  0.00  0.00     0.000 N
ATOM     66  HD  A00 X   4       4.133  61.728  58.7310  0.00  0.00     0.000 HD
ATOM     66   O  A00 X   4       4.458  63.300  56.4280  0.00  0.00     0.000 OA
ATOM     67   S  A00 X   4       3.377  62.819  57.2310  0.00  0.00     0.000 S
ATOM     68   O  A00 X   4       2.925  61.493  56.9260  0.00  0.00     0.000 OA
ATOM     69   O  A00 X   4       2.325  63.739  57.5570  0.00  0.00     0.000 OA
ENDBRANCH 59 66
BRANCH 62 70
ATOM     70   C  A00 X   4       8.233  62.146  61.8980  0.00  0.00     0.000 C
ATOM     71   O  A00 X   4       9.678  58.919  61.1190  0.00  0.00     0.000 OA
ATOM     72   O  A00 X   4       8.788  59.755  63.1320  0.00  0.00     0.000 OA
ATOM     73   O  A00 X   4       8.677  61.037  61.1000  0.00  0.00     0.000 O
ATOM     74   O  A00 X   4       7.283  59.087  61.3360  0.00  0.00     0.000 OA
ATOM     75   S  A00 X   4       8.561  59.598  61.7120  0.00  0.00     0.000 S
ENDBRANCH 62 70
ENDBRANCH 57 61
ENDBRANCH 41 57
ENDBRANCH 40 44
ENDBRANCH 20 40
ENDBRANCH 19 23
ENDBRANCH 1 19
TORSDOF 14
ENDMDL
MODEL 34
REMARK VINA RESULT:      -6.5     26.825     30.908
ROOT
ATOM      1  C1  A00 X   1      27.952  44.847  57.6860  0.00  0.00     0.000 C
ATOM      2  C2  A00 X   1      28.868  44.392  58.8530  0.00  0.00     0.000 C
ATOM      3  C3  A00 X   1      29.108  42.851  58.9780  0.00  0.00     0.000 C
ATOM      4  C4  A00 X   1      28.132  41.955  58.1730  0.00  0.00     0.000 C
ATOM      5  C5  A00 X   1      26.819  42.671  57.8570  0.00  0.00     0.000 C
ATOM      6  O5  A00 X   1      27.203  43.793  57.0310  0.00  0.00     0.000 O
ATOM      7   O  A00 X   1      28.967  42.476  60.3460  0.00  0.00     0.000 O
ATOM      9  HD  A00 X   1      28.580  41.863  59.8730  0.00  0.00     0.000 HD
ATOM      9   O  A00 X   1      28.730  41.487  56.9650  0.00  0.00     0.000 O
ATOM     11  HD  A00 X   1      28.342  40.874  56.4910  0.00  0.00     0.000 HD
ENDROOT
BRANCH 2 11
ATOM     11   O  A00 X   1      30.138  45.054  58.6970  0.00  0.00     0.000 O
ATOM     12   O  A00 X   1      31.794  45.050  60.4370  0.00  0.00     0.000 OA
ATOM     13   O  A00 X   1      29.662  46.155  60.8250  0.00  0.00     0.000 OA
ATOM     14   O  A00 X   1      31.214  47.048  59.2600  0.00  0.00     0.000 OA
ATOM     15   S  A00 X   1      30.727  45.860  59.9060  0.00  0.00     0.000 S
ENDBRANCH 2 11
BRANCH 5 16
ATOM     16   C  A00 X   1      25.985  43.067  59.0800  0.00  0.00     0.000 C
ATOM     17   O  A00 X   1      25.089  43.872  58.9360  0.00  0.00     0.000 OA
ATOM     18   O  A00 X   1      26.185  42.599  60.1830  0.00  0.00     0.000 OA
ENDBRANCH 5 16
BRANCH 1 19
ATOM     19  O4  A00 X   2      27.096  45.959  58.0440  0.00  0.00     0.000 O
BRANCH 19 23
ATOM     20  C1  A00 X   2      27.622  50.097  57.0620  0.00  0.00     0.000 C
ATOM     21  C2  A00 X   2      28.224  49.051  56.0930  0.00  0.00     0.000 C
ATOM     22  C3  A00 X   2      27.599  47.660  56.3290  0.00  0.00     0.000 C
ATOM     23  C4  A00 X   2      27.731  47.250  57.8130  0.00  0.00     0.000 C
ATOM     24  C5  A00 X   2      27.112  48.383  58.6760  0.00  0.00     0.000 C
ATOM     25  O5  A00 X   2      27.832  49.615  58.4160  0.00  0.00     0.000 O
ATOM     26   O  A00 X   2      28.137  46.742  55.3630  0.00  0.00     0.000 O
ATOM     28  HD  A00 X   2      28.957  46.966  55.5320  0.00  0.00     0.000 HD
BRANCH 21 30
ATOM     28   N  A00 X   2      29.321  49.988  55.8340  0.00  0.00     0.000 N
ATOM     30  HD  A00 X   2      29.351  49.389  55.2100  0.00  0.00     0.000 HD
ATOM     30   O  A00 X   2      30.053  49.663  53.6390  0.00  0.00     0.000 OA
ATOM     31   S  A00 X   2      30.545  49.500  54.9610  0.00  0.00     0.000 S
ATOM     32   O  A00 X   2      31.600  50.393  55.3270  0.00  0.00     0.000 OA
ATOM     33   O  A00 X   2      30.857  48.165  55.3770  0.00  0.00     0.000 OA
ENDBRANCH 21 30
BRANCH 24 34
ATOM     34   C  A00 X   2      26.910  48.117  60.1870  0.00  0.00     0.000 C
ATOM     35   O  A00 X   2      27.540  50.578  62.7940  0.00  0.00     0.000 OA
ATOM     36   O  A00 X   2      27.563  49.123  60.9860  0.00  0.00     0.000 O
ATOM     37   O  A00 X   2      26.082  50.933  60.9670  0.00  0.00     0.000 OA
ATOM     38   S  A00 X   2      26.608  49.980  61.8960  0.00  0.00     0.000 S
ATOM     39   O  A00 X   2      25.689  49.062  62.4970  0.00  0.00     0.000 OA
ENDBRANCH 24 34
BRANCH 20 40
ATOM     40  O4  A00 X   3      26.216  50.128  56.7760  0.00  0.00     0.000 O
BRANCH 40 44
ATOM     41  C1  A00 X   3      22.968  51.248  55.6290  0.00  0.00     0.000 C
ATOM     42  C2  A00 X   3      24.318  51.782  55.1050  0.00  0.00     0.000 C
ATOM     43  C3  A00 X   3      25.240  52.206  56.2770  0.00  0.00     0.000 C
ATOM     44  C4  A00 X   3      25.397  51.157  57.3710  0.00  0.00     0.000 C
ATOM     45  C5  A00 X   3      23.998  50.674  57.8490  0.00  0.00     0.000 C
ATOM     46  O5  A00 X   3      23.159  50.294  56.7100  0.00  0.00     0.000 O
ATOM     47   O  A00 X   3      26.485  52.797  55.9090  0.00  0.00     0.000 O
ATOM     49  HD  A00 X   3      26.776  52.331  56.5780  0.00  0.00     0.000 HD
BRANCH 42 49
ATOM     49   O  A00 X   3      24.914  50.727  54.3190  0.00  0.00     0.000 O
ATOM     50   O  A00 X   3      26.906  50.447  53.0200  0.00  0.00     0.000 OA
ATOM     51   O  A00 X   3      25.719  52.486  52.8650  0.00  0.00     0.000 OA
ATOM     52   O  A00 X   3      24.721  50.532  51.9870  0.00  0.00     0.000 OA
ATOM     53   S  A00 X   3      25.612  51.052  52.9660  0.00  0.00     0.000 S
ENDBRANCH 42 49
BRANCH 45 54
ATOM     54   C  A00 X   3      23.331  51.696  58.7760  0.00  0.00     0.000 C
ATOM     55   O  A00 X   3      22.183  51.543  59.1420  0.00  0.00     0.000 OA
ATOM     56   O  A00 X   3      23.940  52.682  59.1610  0.00  0.00     0.000 OA
ENDBRANCH 45 54
BRANCH 41 57
ATOM     57  O4  A00 X   4      22.057  52.323  55.9500  0.00  0.00     0.000 O
BRANCH 57 61
ATOM     58  C1  A00 X   4      17.767  52.695  55.6270  0.00  0.00     0.000 C
ATOM     59  C2  A00 X   4      18.373  52.240  56.9790  0.00  0.00     0.000 C
ATOM     60  C3  A00 X   4      19.891  52.488  57.0870  0.00  0.00     0.000 C
ATOM     61  C4  A00 X   4      20.644  51.991  55.8340  0.00  0.00     0.000 C
ATOM     62  C5  A00 X   4      20.016  52.732  54.6270  0.00  0.00     0.000 C
ATOM     63  O5  A00 X   4      18.620  52.356  54.5100  0.00  0.00     0.000 O
BRANCH 59 66
ATOM     64   N  A00 X   4      18.200  51.959  58.4150  0.00  0.00     0.000 N
ATOM     66  HD  A00 X   4      18.636  51.288  58.7470  0.00  0.00     0.000 HD
ATOM     66   O  A00 X   4      15.958  51.244  57.9040  0.00  0.00     0.000 OA
ATOM     67   S  A00 X   4      16.713  51.801  58.9830  0.00  0.00     0.000 S
ATOM     68   O  A00 X   4      16.951  50.920  60.0890  0.00  0.00     0.000 OA
ATOM     69   O  A00 X   4      16.440  53.158  59.3610  0.00  0.00     0.000 OA
ENDBRANCH 59 66
BRANCH 62 70
ATOM     70   C  A00 X   4      20.717  52.447  53.2770  0.00  0.00     0.000 C
ATOM     71   O  A00 X   4      19.381  50.808  50.3380  0.00  0.00     0.000 OA
ATOM     72   O  A00 X   4      21.396  50.460  51.5060  0.00  0.00     0.000 OA
ATOM     73   O  A00 X   4      19.741  52.004  52.3190  0.00  0.00     0.000 O
ATOM     74   O  A00 X   4      19.303  49.639  52.4450  0.00  0.00     0.000 OA
ATOM     75   S  A00 X   4      19.963  50.611  51.6350  0.00  0.00     0.000 S
ENDBRANCH 62 70
ENDBRANCH 57 61
ENDBRANCH 41 57
ENDBRANCH 40 44
ENDBRANCH 20 40
ENDBRANCH 19 23
ENDBRANCH 1 19
TORSDOF 14
ENDMDL
MODEL 35
REMARK VINA RESULT:      -6.5     15.960     20.356
ROOT
ATOM      1  C1  A00 X   1      22.980  45.013  65.4030  0.00  0.00     0.000 C
ATOM      2  C2  A00 X   1      24.216  45.496  64.5970  0.00  0.00     0.000 C
ATOM      3  C3  A00 X   1      24.698  44.552  63.4470  0.00  0.00     0.000 C
ATOM      4  C4  A00 X   1      24.134  43.108  63.4860  0.00  0.00     0.000 C
ATOM      5  C5  A00 X   1      23.667  42.709  64.8860  0.00  0.00     0.000 C
ATOM      6  O5  A00 X   1      22.597  43.631  65.1930  0.00  0.00     0.000 O
ATOM      7   O  A00 X   1      26.118  44.434  63.5180  0.00  0.00     0.000 O
ATOM      9  HD  A00 X   1      25.804  43.645  63.3450  0.00  0.00     0.000 HD
ATOM      9   O  A00 X   1      23.066  42.940  62.5550  0.00  0.00     0.000 O
ATOM     11  HD  A00 X   1      22.752  42.152  62.3820  0.00  0.00     0.000 HD
ENDROOT
BRANCH 2 11
ATOM     11   O  A00 X   1      23.900  46.788  64.0430  0.00  0.00     0.000 O
ATOM     12   O  A00 X   1      25.309  47.849  62.4130  0.00  0.00     0.000 OA
ATOM     13   O  A00 X   1      26.173  47.444  64.6510  0.00  0.00     0.000 OA
ATOM     14   O  A00 X   1      24.448  49.043  64.2960  0.00  0.00     0.000 OA
ATOM     15   S  A00 X   1      25.055  47.825  63.8320  0.00  0.00     0.000 S
ENDBRANCH 2 11
BRANCH 5 16
ATOM     16   C  A00 X   1      24.768  42.671  65.9500  0.00  0.00     0.000 C
ATOM     17   O  A00 X   1      24.453  42.474  67.1060  0.00  0.00     0.000 OA
ATOM     18   O  A00 X   1      25.943  42.824  65.6790  0.00  0.00     0.000 OA
ENDBRANCH 5 16
BRANCH 1 19
ATOM     19  O4  A00 X   2      23.073  45.327  66.8140  0.00  0.00     0.000 O
BRANCH 19 23
ATOM     20  C1  A00 X   2      19.930  44.814  69.6820  0.00  0.00     0.000 C
ATOM     21  C2  A00 X   2      21.251  44.044  69.9240  0.00  0.00     0.000 C
ATOM     22  C3  A00 X   2      22.399  44.646  69.0880  0.00  0.00     0.000 C
ATOM     23  C4  A00 X   2      22.008  44.712  67.5940  0.00  0.00     0.000 C
ATOM     24  C5  A00 X   2      20.667  45.489  67.4890  0.00  0.00     0.000 C
ATOM     25  O5  A00 X   2      19.657  44.783  68.2560  0.00  0.00     0.000 O
ATOM     26   O  A00 X   2      23.614  43.942  69.3980  0.00  0.00     0.000 O
ATOM     28  HD  A00 X   2      23.253  43.164  69.2780  0.00  0.00     0.000 HD
BRANCH 21 30
ATOM     28   N  A00 X   2      22.253  43.867  70.9800  0.00  0.00     0.000 N
ATOM     30  HD  A00 X   2      21.590  43.344  71.1730  0.00  0.00     0.000 HD
ATOM     30   O  A00 X   2      21.745  41.905  72.1430  0.00  0.00     0.000 OA
ATOM     31   S  A00 X   2      21.786  43.305  72.3810  0.00  0.00     0.000 S
ATOM     32   O  A00 X   2      22.814  43.735  73.2780  0.00  0.00     0.000 OA
ATOM     33   O  A00 X   2      20.546  43.945  72.7030  0.00  0.00     0.000 OA
ENDBRANCH 21 30
BRANCH 24 34
ATOM     34   C  A00 X   2      20.171  45.894  66.0810  0.00  0.00     0.000 C
ATOM     35   O  A00 X   2      19.591  49.333  65.0350  0.00  0.00     0.000 OA
ATOM     36   O  A00 X   2      19.699  47.256  66.0660  0.00  0.00     0.000 O
ATOM     37   O  A00 X   2      21.644  48.545  65.9040  0.00  0.00     0.000 OA
ATOM     38   S  A00 X   2      20.491  48.230  65.1180  0.00  0.00     0.000 S
ATOM     39   O  A00 X   2      20.697  47.522  63.8910  0.00  0.00     0.000 OA
ENDBRANCH 24 34
BRANCH 20 40
ATOM     40  O4  A00 X   3      20.189  46.165  70.0910  0.00  0.00     0.000 O
BRANCH 40 44
ATOM     41  C1  A00 X   3      20.137  49.782  70.2970  0.00  0.00     0.000 C
ATOM     42  C2  A00 X   3      20.675  48.845  71.4010  0.00  0.00     0.000 C
ATOM     43  C3  A00 X   3      19.642  47.742  71.7450  0.00  0.00     0.000 C
ATOM     44  C4  A00 X   3      19.092  46.990  70.5390  0.00  0.00     0.000 C
ATOM     45  C5  A00 X   3      18.566  47.998  69.4790  0.00  0.00     0.000 C
ATOM     46  O5  A00 X   3      19.569  49.026  69.1920  0.00  0.00     0.000 O
ATOM     47   O  A00 X   3      19.997  46.868  72.8150  0.00  0.00     0.000 O
ATOM     49  HD  A00 X   3      19.632  46.274  72.3010  0.00  0.00     0.000 HD
BRANCH 42 49
ATOM     49   O  A00 X   3      21.909  48.278  70.9090  0.00  0.00     0.000 O
ATOM     50   O  A00 X   3      23.528  46.702  71.7010  0.00  0.00     0.000 OA
ATOM     51   O  A00 X   3      22.642  48.286  73.2150  0.00  0.00     0.000 OA
ATOM     52   O  A00 X   3      24.051  49.052  71.4790  0.00  0.00     0.000 OA
ATOM     53   S  A00 X   3      23.113  48.059  71.8720  0.00  0.00     0.000 S
ENDBRANCH 42 49
BRANCH 45 54
ATOM     54   C  A00 X   3      17.203  48.578  69.8740  0.00  0.00     0.000 C
ATOM     55   O  A00 X   3      16.789  48.466  71.0090  0.00  0.00     0.000 OA
ATOM     56   O  A00 X   3      16.511  49.161  69.0540  0.00  0.00     0.000 OA
ENDBRANCH 45 54
BRANCH 41 57
ATOM     57  O4  A00 X   4      19.251  50.788  70.8370  0.00  0.00     0.000 O
BRANCH 57 61
ATOM     58  C1  A00 X   4      17.861  54.532  69.1960  0.00  0.00     0.000 C
ATOM     59  C2  A00 X   4      16.887  53.328  69.2260  0.00  0.00     0.000 C
ATOM     60  C3  A00 X   4      17.356  52.179  70.1420  0.00  0.00     0.000 C
ATOM     61  C4  A00 X   4      18.836  51.816  69.8930  0.00  0.00     0.000 C
ATOM     62  C5  A00 X   4      19.648  53.115  70.1230  0.00  0.00     0.000 C
ATOM     63  O5  A00 X   4      19.243  54.109  69.1470  0.00  0.00     0.000 O
BRANCH 59 66
ATOM     64   N  A00 X   4      16.791  52.753  67.8720  0.00  0.00     0.000 N
ATOM     66  HD  A00 X   4      17.472  52.852  67.3470  0.00  0.00     0.000 HD
ATOM     66   O  A00 X   4      15.175  54.465  67.3680  0.00  0.00     0.000 OA
ATOM     67   S  A00 X   4      15.524  53.136  66.9740  0.00  0.00     0.000 S
ATOM     68   O  A00 X   4      16.089  53.009  65.6620  0.00  0.00     0.000 OA
ATOM     69   O  A00 X   4      14.628  52.074  67.3340  0.00  0.00     0.000 OA
ENDBRANCH 59 66
BRANCH 62 70
ATOM     70   C  A00 X   4      21.181  52.927  70.0250  0.00  0.00     0.000 C
ATOM     71   O  A00 X   4      23.280  52.951  67.0760  0.00  0.00     0.000 OA
ATOM     72   O  A00 X   4      23.162  51.422  68.8620  0.00  0.00     0.000 OA
ATOM     73   O  A00 X   4      21.617  53.257  68.6970  0.00  0.00     0.000 O
ATOM     74   O  A00 X   4      21.423  51.416  67.1560  0.00  0.00     0.000 OA
ATOM     75   S  A00 X   4      22.395  52.163  67.8860  0.00  0.00     0.000 S
ENDBRANCH 62 70
ENDBRANCH 57 61
ENDBRANCH 41 57
ENDBRANCH 40 44
ENDBRANCH 20 40
ENDBRANCH 19 23
ENDBRANCH 1 19
TORSDOF 14
ENDMDL
MODEL 36
REMARK VINA RESULT:      -6.4     26.623     30.784
ROOT
ATOM      1  C1  A00 X   1      27.891  45.806  59.0710  0.00  0.00     0.000 C
ATOM      2  C2  A00 X   1      27.206  45.163  60.3070  0.00  0.00     0.000 C
ATOM      3  C3  A00 X   1      27.630  43.695  60.6410  0.00  0.00     0.000 C
ATOM      4  C4  A00 X   1      28.382  42.943  59.5130  0.00  0.00     0.000 C
ATOM      5  C5  A00 X   1      28.104  43.542  58.1340  0.00  0.00     0.000 C
ATOM      6  O5  A00 X   1      28.615  44.892  58.2110  0.00  0.00     0.000 O
ATOM      7   O  A00 X   1      26.458  42.934  60.9220  0.00  0.00     0.000 O
ATOM      9  HD  A00 X   1      26.977  42.435  60.4410  0.00  0.00     0.000 HD
ATOM      9   O  A00 X   1      29.789  42.917  59.7520  0.00  0.00     0.000 O
ATOM     11  HD  A00 X   1      30.308  42.418  59.2710  0.00  0.00     0.000 HD
ENDROOT
BRANCH 2 11
ATOM     11   O  A00 X   1      27.482  46.002  61.4460  0.00  0.00     0.000 O
ATOM     12   O  A00 X   1      26.861  45.359  63.6750  0.00  0.00     0.000 OA
ATOM     13   O  A00 X   1      25.121  45.748  62.0210  0.00  0.00     0.000 OA
ATOM     14   O  A00 X   1      26.433  47.556  62.8370  0.00  0.00     0.000 OA
ATOM     15   S  A00 X   1      26.391  46.145  62.5630  0.00  0.00     0.000 S
ENDBRANCH 2 11
BRANCH 5 16
ATOM     16   C  A00 X   1      26.643  43.465  57.6780  0.00  0.00     0.000 C
ATOM     17   O  A00 X   1      25.928  42.610  58.1600  0.00  0.00     0.000 OA
ATOM     18   O  A00 X   1      26.175  44.229  56.8580  0.00  0.00     0.000 OA
ENDBRANCH 5 16
BRANCH 1 19
ATOM     19  O4  A00 X   2      26.994  46.651  58.3090  0.00  0.00     0.000 O
BRANCH 19 23
ATOM     20  C1  A00 X   2      27.712  50.191  56.0030  0.00  0.00     0.000 C
ATOM     21  C2  A00 X   2      28.089  48.833  55.3640  0.00  0.00     0.000 C
ATOM     22  C3  A00 X   2      27.393  47.668  56.0970  0.00  0.00     0.000 C
ATOM     23  C4  A00 X   2      27.693  47.722  57.6120  0.00  0.00     0.000 C
ATOM     24  C5  A00 X   2      27.290  49.131  58.1260  0.00  0.00     0.000 C
ATOM     25  O5  A00 X   2      28.065  50.128  57.4110  0.00  0.00     0.000 O
ATOM     26   O  A00 X   2      27.719  46.439  55.4250  0.00  0.00     0.000 O
ATOM     28  HD  A00 X   2      28.569  46.605  55.4280  0.00  0.00     0.000 HD
BRANCH 21 30
ATOM     28   N  A00 X   2      28.314  49.663  54.1760  0.00  0.00     0.000 N
ATOM     30  HD  A00 X   2      28.891  49.018  54.1440  0.00  0.00     0.000 HD
ATOM     30   O  A00 X   2      29.610  48.437  52.6670  0.00  0.00     0.000 OA
ATOM     31   S  A00 X   2      29.725  49.605  53.4660  0.00  0.00     0.000 S
ATOM     32   O  A00 X   2      29.788  50.833  52.7360  0.00  0.00     0.000 OA
ATOM     33   O  A00 X   2      30.718  49.590  54.4990  0.00  0.00     0.000 OA
ENDBRANCH 21 30
BRANCH 24 34
ATOM     34   C  A00 X   2      27.276  49.369  59.6540  0.00  0.00     0.000 C
ATOM     35   O  A00 X   2      30.249  49.325  61.7550  0.00  0.00     0.000 OA
ATOM     36   O  A00 X   2      28.514  48.947  60.2610  0.00  0.00     0.000 O
ATOM     37   O  A00 X   2      29.991  50.716  59.8600  0.00  0.00     0.000 OA
ATOM     38   S  A00 X   2      29.337  50.086  60.9660  0.00  0.00     0.000 S
ATOM     39   O  A00 X   2      28.395  50.865  61.7120  0.00  0.00     0.000 OA
ENDBRANCH 24 34
BRANCH 20 40
ATOM     40  O4  A00 X   3      26.287  50.300  55.8710  0.00  0.00     0.000 O
BRANCH 40 44
ATOM     41  C1  A00 X   3      22.863  51.369  55.3650  0.00  0.00     0.000 C
ATOM     42  C2  A00 X   3      24.078  51.907  54.5790  0.00  0.00     0.000 C
ATOM     43  C3  A00 X   3      25.206  52.359  55.5420  0.00  0.00     0.000 C
ATOM     44  C4  A00 X   3      25.587  51.331  56.5990  0.00  0.00     0.000 C
ATOM     45  C5  A00 X   3      24.315  50.842  57.3490  0.00  0.00     0.000 C
ATOM     46  O5  A00 X   3      23.274  50.435  56.4020  0.00  0.00     0.000 O
ATOM     47   O  A00 X   3      26.347  52.956  54.9290  0.00  0.00     0.000 O
ATOM     49  HD  A00 X   3      26.769  52.504  55.5350  0.00  0.00     0.000 HD
BRANCH 42 49
ATOM     49   O  A00 X   3      24.523  50.845  53.7080  0.00  0.00     0.000 O
ATOM     50   O  A00 X   3      26.255  50.547  52.0820  0.00  0.00     0.000 OA
ATOM     51   O  A00 X   3      25.069  52.592  52.1250  0.00  0.00     0.000 OA
ATOM     52   O  A00 X   3      23.924  50.639  51.4470  0.00  0.00     0.000 OA
ATOM     53   S  A00 X   3      24.974  51.159  52.2520  0.00  0.00     0.000 S
ENDBRANCH 42 49
BRANCH 45 54
ATOM     54   C  A00 X   3      23.828  51.874  58.3730  0.00  0.00     0.000 C
ATOM     55   O  A00 X   3      22.870  51.639  59.0810  0.00  0.00     0.000 OA
ATOM     56   O  A00 X   3      24.394  52.949  58.4950  0.00  0.00     0.000 OA
ENDBRANCH 45 54
BRANCH 41 57
ATOM     57  O4  A00 X   4      22.018  52.441  55.8420  0.00  0.00     0.000 O
BRANCH 57 61
ATOM     58  C1  A00 X   4      17.836  52.625  56.8980  0.00  0.00     0.000 C
ATOM     59  C2  A00 X   4      18.864  52.264  57.9990  0.00  0.00     0.000 C
ATOM     60  C3  A00 X   4      20.322  52.577  57.6060  0.00  0.00     0.000 C
ATOM     61  C4  A00 X   4      20.662  52.047  56.1970  0.00  0.00     0.000 C
ATOM     62  C5  A00 X   4      19.644  52.700  55.2290  0.00  0.00     0.000 C
ATOM     63  O5  A00 X   4      18.306  52.263  55.5790  0.00  0.00     0.000 O
BRANCH 59 66
ATOM     64   N  A00 X   4      19.004  50.889  58.5130  0.00  0.00     0.000 N
ATOM     66  HD  A00 X   4      18.903  50.239  57.9490  0.00  0.00     0.000 HD
ATOM     66   O  A00 X   4      16.927  51.221  59.6850  0.00  0.00     0.000 OA
ATOM     67   S  A00 X   4      18.135  50.464  59.7860  0.00  0.00     0.000 S
ATOM     68   O  A00 X   4      18.002  49.056  59.5500  0.00  0.00     0.000 OA
ATOM     69   O  A00 X   4      19.050  50.799  60.8410  0.00  0.00     0.000 OA
ENDBRANCH 59 66
BRANCH 62 70
ATOM     70   C  A00 X   4      19.893  52.374  53.7370  0.00  0.00     0.000 C
ATOM     71   O  A00 X   4      18.341  49.822  51.6900  0.00  0.00     0.000 OA
ATOM     72   O  A00 X   4      20.610  50.379  51.9910  0.00  0.00     0.000 OA
ATOM     73   O  A00 X   4      18.886  51.457  53.2770  0.00  0.00     0.000 O
ATOM     74   O  A00 X   4      19.428  49.155  53.7360  0.00  0.00     0.000 OA
ATOM     75   S  A00 X   4      19.361  50.094  52.6630  0.00  0.00     0.000 S
ENDBRANCH 62 70
ENDBRANCH 57 61
ENDBRANCH 41 57
ENDBRANCH 40 44
ENDBRANCH 20 40
ENDBRANCH 19 23
ENDBRANCH 1 19
TORSDOF 14
ENDMDL
MODEL 37
REMARK VINA RESULT:      -6.4     30.218     35.020
ROOT
ATOM      1  C1  A00 X   1      24.832  50.981  51.4590  0.00  0.00     0.000 C
ATOM      2  C2  A00 X   1      25.188  50.562  50.0070  0.00  0.00     0.000 C
ATOM      3  C3  A00 X   1      26.701  50.645  49.6200  0.00  0.00     0.000 C
ATOM      4  C4  A00 X   1      27.594  51.468  50.5840  0.00  0.00     0.000 C
ATOM      5  C5  A00 X   1      26.785  52.474  51.4030  0.00  0.00     0.000 C
ATOM      6  O5  A00 X   1      25.881  51.665  52.1880  0.00  0.00     0.000 O
ATOM      7   O  A00 X   1      26.812  51.263  48.3390  0.00  0.00     0.000 O
ATOM      9  HD  A00 X   1      27.445  51.586  48.8340  0.00  0.00     0.000 HD
ATOM      9   O  A00 X   1      28.337  50.620  51.4590  0.00  0.00     0.000 O
ATOM     11  HD  A00 X   1      28.969  50.943  51.9540  0.00  0.00     0.000 HD
ENDROOT
BRANCH 2 11
ATOM     11   O  A00 X   1      24.728  49.210  49.8150  0.00  0.00     0.000 O
ATOM     12   O  A00 X   1      25.335  47.925  47.8800  0.00  0.00     0.000 OA
ATOM     13   O  A00 X   1      23.987  49.930  47.6020  0.00  0.00     0.000 OA
ATOM     14   O  A00 X   1      23.083  48.009  48.6750  0.00  0.00     0.000 OA
ATOM     15   S  A00 X   1      24.274  48.760  48.3840  0.00  0.00     0.000 S
ENDBRANCH 2 11
BRANCH 5 16
ATOM     16   C  A00 X   1      26.082  53.560  50.5830  0.00  0.00     0.000 C
ATOM     17   O  A00 X   1      25.259  54.262  51.1340  0.00  0.00     0.000 OA
ATOM     18   O  A00 X   1      26.322  53.747  49.4070  0.00  0.00     0.000 OA
ENDBRANCH 5 16
BRANCH 1 19
ATOM     19  O4  A00 X   2      23.576  51.697  51.5440  0.00  0.00     0.000 O
BRANCH 19 23
ATOM     20  C1  A00 X   2      19.996  50.870  53.7500  0.00  0.00     0.000 C
ATOM     21  C2  A00 X   2      21.316  50.987  54.5490  0.00  0.00     0.000 C
ATOM     22  C3  A00 X   2      22.402  51.698  53.7140  0.00  0.00     0.000 C
ATOM     23  C4  A00 X   2      22.586  50.995  52.3500  0.00  0.00     0.000 C
ATOM     24  C5  A00 X   2      21.196  50.925  51.6610  0.00  0.00     0.000 C
ATOM     25  O5  A00 X   2      20.291  50.173  52.5110  0.00  0.00     0.000 O
ATOM     26   O  A00 X   2      23.583  51.843  54.5220  0.00  0.00     0.000 O
ATOM     28  HD  A00 X   2      23.587  51.009  54.7550  0.00  0.00     0.000 HD
BRANCH 21 30
ATOM     28   N  A00 X   2      20.472  51.137  55.7380  0.00  0.00     0.000 N
ATOM     30  HD  A00 X   2      21.117  50.602  55.9550  0.00  0.00     0.000 HD
ATOM     30   O  A00 X   2      21.680  50.377  57.5880  0.00  0.00     0.000 OA
ATOM     31   S  A00 X   2      20.522  50.015  56.8500  0.00  0.00     0.000 S
ATOM     32   O  A00 X   2      19.285  50.176  57.5500  0.00  0.00     0.000 OA
ATOM     33   O  A00 X   2      20.551  48.751  56.1750  0.00  0.00     0.000 OA
ENDBRANCH 21 30
BRANCH 24 34
ATOM     34   C  A00 X   2      21.141  50.473  50.1830  0.00  0.00     0.000 C
ATOM     35   O  A00 X   2      18.769  51.766  47.7410  0.00  0.00     0.000 OA
ATOM     36   O  A00 X   2      19.905  50.875  49.5590  0.00  0.00     0.000 O
ATOM     37   O  A00 X   2      20.238  53.123  49.0040  0.00  0.00     0.000 OA
ATOM     38   S  A00 X   2      20.057  51.865  48.3460  0.00  0.00     0.000 S
ATOM     39   O  A00 X   2      21.140  51.369  47.5520  0.00  0.00     0.000 OA
ENDBRANCH 24 34
BRANCH 20 40
ATOM     40  O4  A00 X   3      19.598  52.218  53.4590  0.00  0.00     0.000 O
BRANCH 40 44
ATOM     41  C1  A00 X   3      18.050  55.447  52.9110  0.00  0.00     0.000 C
ATOM     42  C2  A00 X   3      18.023  54.673  54.2470  0.00  0.00     0.000 C
ATOM     43  C3  A00 X   3      17.549  53.213  54.0330  0.00  0.00     0.000 C
ATOM     44  C4  A00 X   3      18.280  52.466  52.9250  0.00  0.00     0.000 C
ATOM     45  C5  A00 X   3      18.260  53.304  51.6150  0.00  0.00     0.000 C
ATOM     46  O5  A00 X   3      18.705  54.676  51.8660  0.00  0.00     0.000 O
ATOM     47   O  A00 X   3      17.401  52.426  55.2130  0.00  0.00     0.000 O
ATOM     49  HD  A00 X   3      17.733  51.807  54.7070  0.00  0.00     0.000 HD
BRANCH 42 49
ATOM     49   O  A00 X   3      19.360  54.720  54.7900  0.00  0.00     0.000 O
ATOM     50   O  A00 X   3      20.472  53.868  56.7320  0.00  0.00     0.000 OA
ATOM     51   O  A00 X   3      18.300  54.770  56.9650  0.00  0.00     0.000 OA
ATOM     52   O  A00 X   3      20.077  56.235  56.4350  0.00  0.00     0.000 OA
ATOM     53   S  A00 X   3      19.582  54.907  56.3200  0.00  0.00     0.000 S
ENDBRANCH 42 49
BRANCH 45 54
ATOM     54   C  A00 X   3      16.898  53.229  50.9140  0.00  0.00     0.000 C
ATOM     55   O  A00 X   3      16.797  53.481  49.7310  0.00  0.00     0.000 OA
ATOM     56   O  A00 X   3      15.893  52.917  51.5330  0.00  0.00     0.000 OA
ENDBRANCH 45 54
BRANCH 41 57
ATOM     57  O4  A00 X   4      16.738  55.933  52.5480  0.00  0.00     0.000 O
BRANCH 57 61
ATOM     58  C1  A00 X   4      15.367  59.062  49.9080  0.00  0.00     0.000 C
ATOM     59  C2  A00 X   4      15.906  57.749  49.2860  0.00  0.00     0.000 C
ATOM     60  C3  A00 X   4      16.023  56.592  50.2980  0.00  0.00     0.000 C
ATOM     61  C4  A00 X   4      16.728  57.035  51.5970  0.00  0.00     0.000 C
ATOM     62  C5  A00 X   4      15.903  58.220  52.1590  0.00  0.00     0.000 C
ATOM     63  O5  A00 X   4      15.939  59.318  51.2110  0.00  0.00     0.000 O
BRANCH 59 66
ATOM     64   N  A00 X   4      15.734  56.929  48.0730  0.00  0.00     0.000 N
ATOM     66  HD  A00 X   4      16.333  56.324  47.9120  0.00  0.00     0.000 HD
ATOM     66   O  A00 X   4      16.264  58.895  46.7890  0.00  0.00     0.000 OA
ATOM     67   S  A00 X   4      15.525  57.678  46.6750  0.00  0.00     0.000 S
ATOM     68   O  A00 X   4      16.072  56.704  45.7760  0.00  0.00     0.000 OA
ATOM     69   O  A00 X   4      14.092  57.764  46.6470  0.00  0.00     0.000 OA
ENDBRANCH 59 66
BRANCH 62 70
ATOM     70   C  A00 X   4      16.394  58.738  53.5310  0.00  0.00     0.000 C
ATOM     71   O  A00 X   4      14.729  58.568  56.7410  0.00  0.00     0.000 OA
ATOM     72   O  A00 X   4      15.758  60.378  55.6410  0.00  0.00     0.000 OA
ATOM     73   O  A00 X   4      15.530  58.239  54.5650  0.00  0.00     0.000 O
ATOM     74   O  A00 X   4      13.571  59.602  54.8960  0.00  0.00     0.000 OA
ATOM     75   S  A00 X   4      14.825  59.282  55.4990  0.00  0.00     0.000 S
ENDBRANCH 62 70
ENDBRANCH 57 61
ENDBRANCH 41 57
ENDBRANCH 40 44
ENDBRANCH 20 40
ENDBRANCH 19 23
ENDBRANCH 1 19
TORSDOF 14
ENDMDL
MODEL 38
REMARK VINA RESULT:      -6.3     26.914     31.848
ROOT
ATOM      1  C1  A00 X   1      18.950  52.661  59.8120  0.00  0.00     0.000 C
ATOM      2  C2  A00 X   1      17.673  53.485  60.1270  0.00  0.00     0.000 C
ATOM      3  C3  A00 X   1      16.618  52.792  61.0510  0.00  0.00     0.000 C
ATOM      4  C4  A00 X   1      16.793  51.262  61.2340  0.00  0.00     0.000 C
ATOM      5  C5  A00 X   1      17.590  50.631  60.0930  0.00  0.00     0.000 C
ATOM      6  O5  A00 X   1      18.891  51.257  60.1650  0.00  0.00     0.000 O
ATOM      7   O  A00 X   1      15.321  52.986  60.4900  0.00  0.00     0.000 O
ATOM      9  HD  A00 X   1      15.357  52.169  60.7740  0.00  0.00     0.000 HD
ATOM      9   O  A00 X   1      17.411  50.954  62.4830  0.00  0.00     0.000 O
ATOM     11  HD  A00 X   1      17.447  50.137  62.7680  0.00  0.00     0.000 HD
ENDROOT
BRANCH 2 11
ATOM     11   O  A00 X   1      18.089  54.723  60.7370  0.00  0.00     0.000 O
ATOM     12   O  A00 X   1      16.575  56.082  62.0130  0.00  0.00     0.000 OA
ATOM     13   O  A00 X   1      16.160  55.744  59.6400  0.00  0.00     0.000 OA
ATOM     14   O  A00 X   1      18.026  57.027  60.3650  0.00  0.00     0.000 OA
ATOM     15   S  A00 X   1      17.122  55.956  60.6860  0.00  0.00     0.000 S
ENDBRANCH 2 11
BRANCH 5 16
ATOM     16   C  A00 X   1      16.936  50.734  58.7120  0.00  0.00     0.000 C
ATOM     17   O  A00 X   1      17.581  50.403  57.7380  0.00  0.00     0.000 OA
ATOM     18   O  A00 X   1      15.797  51.126  58.5580  0.00  0.00     0.000 OA
ENDBRANCH 5 16
BRANCH 1 19
ATOM     19  O4  A00 X   2      19.416  52.845  58.4530  0.00  0.00     0.000 O
BRANCH 19 23
ATOM     20  C1  A00 X   2      22.247  55.609  56.8050  0.00  0.00     0.000 C
ATOM     21  C2  A00 X   2      22.694  54.772  58.0280  0.00  0.00     0.000 C
ATOM     22  C3  A00 X   2      21.768  53.554  58.2290  0.00  0.00     0.000 C
ATOM     23  C4  A00 X   2      20.292  54.001  58.3150  0.00  0.00     0.000 C
ATOM     24  C5  A00 X   2      19.976  54.841  57.0470  0.00  0.00     0.000 C
ATOM     25  O5  A00 X   2      20.861  55.990  57.0150  0.00  0.00     0.000 O
ATOM     26   O  A00 X   2      22.264  52.774  59.3300  0.00  0.00     0.000 O
ATOM     28  HD  A00 X   2      22.321  53.460  59.8560  0.00  0.00     0.000 HD
BRANCH 21 30
ATOM     28   N  A00 X   2      23.478  55.923  58.4870  0.00  0.00     0.000 N
ATOM     30  HD  A00 X   2      23.764  55.234  58.9260  0.00  0.00     0.000 HD
ATOM     30   O  A00 X   2      25.362  55.119  59.6090  0.00  0.00     0.000 OA
ATOM     31   S  A00 X   2      24.179  55.848  59.9020  0.00  0.00     0.000 S
ATOM     32   O  A00 X   2      24.386  57.219  60.2510  0.00  0.00     0.000 OA
ATOM     33   O  A00 X   2      23.248  55.239  60.8040  0.00  0.00     0.000 OA
ENDBRANCH 21 30
BRANCH 24 34
ATOM     34   C  A00 X   2      18.500  55.217  56.7750  0.00  0.00     0.000 C
ATOM     35   O  A00 X   2      17.182  58.603  56.9980  0.00  0.00     0.000 OA
ATOM     36   O  A00 X   2      18.195  56.534  57.2760  0.00  0.00     0.000 O
ATOM     37   O  A00 X   2      19.011  57.985  55.6330  0.00  0.00     0.000 OA
ATOM     38   S  A00 X   2      17.756  57.580  56.1870  0.00  0.00     0.000 S
ATOM     39   O  A00 X   2      16.836  56.903  55.3230  0.00  0.00     0.000 OA
ENDBRANCH 24 34
BRANCH 20 40
ATOM     40  O4  A00 X   3      22.335  54.725  55.6780  0.00  0.00     0.000 O
BRANCH 40 44
ATOM     41  C1  A00 X   3      20.056  54.265  52.9000  0.00  0.00     0.000 C
ATOM     42  C2  A00 X   3      21.207  53.302  53.2630  0.00  0.00     0.000 C
ATOM     43  C3  A00 X   3      22.542  54.071  53.4310  0.00  0.00     0.000 C
ATOM     44  C4  A00 X   3      22.464  55.282  54.3520  0.00  0.00     0.000 C
ATOM     45  C5  A00 X   3      21.288  56.203  53.9210  0.00  0.00     0.000 C
ATOM     46  O5  A00 X   3      20.052  55.434  53.7650  0.00  0.00     0.000 O
ATOM     47   O  A00 X   3      23.695  53.270  53.6820  0.00  0.00     0.000 O
ATOM     49  HD  A00 X   3      23.893  53.922  54.2170  0.00  0.00     0.000 HD
BRANCH 42 49
ATOM     49   O  A00 X   3      20.827  52.630  54.4840  0.00  0.00     0.000 O
ATOM     50   O  A00 X   3      21.824  51.035  55.9650  0.00  0.00     0.000 OA
ATOM     51   O  A00 X   3      22.068  50.734  53.6330  0.00  0.00     0.000 OA
ATOM     52   O  A00 X   3      19.921  50.466  54.5860  0.00  0.00     0.000 OA
ATOM     53   S  A00 X   3      21.176  51.128  54.6950  0.00  0.00     0.000 S
ENDBRANCH 42 49
BRANCH 45 54
ATOM     54   C  A00 X   3      21.643  57.034  52.6820  0.00  0.00     0.000 C
ATOM     55   O  A00 X   3      20.840  57.813  52.2090  0.00  0.00     0.000 OA
ATOM     56   O  A00 X   3      22.736  56.927  52.1500  0.00  0.00     0.000 OA
ENDBRANCH 45 54
BRANCH 41 57
ATOM     57  O4  A00 X   4      20.046  54.578  51.4890  0.00  0.00     0.000 O
BRANCH 57 61
ATOM     58  C1  A00 X   4      16.871  55.366  48.6710  0.00  0.00     0.000 C
ATOM     59  C2  A00 X   4      17.063  56.337  49.8630  0.00  0.00     0.000 C
ATOM     60  C3  A00 X   4      18.418  56.170  50.5810  0.00  0.00     0.000 C
ATOM     61  C4  A00 X   4      18.724  54.689  50.8900  0.00  0.00     0.000 C
ATOM     62  C5  A00 X   4      18.687  53.944  49.5320  0.00  0.00     0.000 C
ATOM     63  O5  A00 X   4      17.351  54.036  48.9740  0.00  0.00     0.000 O
BRANCH 59 66
ATOM     64   N  A00 X   4      16.105  56.262  50.9810  0.00  0.00     0.000 N
ATOM     66  HD  A00 X   4      15.777  55.485  51.1750  0.00  0.00     0.000 HD
ATOM     66   O  A00 X   4      14.533  57.432  49.5820  0.00  0.00     0.000 OA
ATOM     67   S  A00 X   4      14.843  57.245  50.9640  0.00  0.00     0.000 S
ATOM     68   O  A00 X   4      13.898  56.464  51.7080  0.00  0.00     0.000 OA
ATOM     69   O  A00 X   4      15.382  58.362  51.6870  0.00  0.00     0.000 OA
ENDBRANCH 59 66
BRANCH 62 70
ATOM     70   C  A00 X   4      19.081  52.450  49.6200  0.00  0.00     0.000 C
ATOM     71   O  A00 X   4      17.340  49.746  51.2840  0.00  0.00     0.000 OA
ATOM     72   O  A00 X   4      19.603  50.392  51.3630  0.00  0.00     0.000 OA
ATOM     73   O  A00 X   4      17.981  51.700  50.1610  0.00  0.00     0.000 O
ATOM     74   O  A00 X   4      17.936  51.697  52.5700  0.00  0.00     0.000 OA
ATOM     75   S  A00 X   4      18.236  50.855  51.4570  0.00  0.00     0.000 S
ENDBRANCH 62 70
ENDBRANCH 57 61
ENDBRANCH 41 57
ENDBRANCH 40 44
ENDBRANCH 20 40
ENDBRANCH 19 23
ENDBRANCH 1 19
TORSDOF 14
ENDMDL
MODEL 39
REMARK VINA RESULT:      -6.3     27.654     32.091
ROOT
ATOM      1  C1  A00 X   1      21.230  52.042  53.8880  0.00  0.00     0.000 C
ATOM      2  C2  A00 X   1      22.112  51.616  52.6840  0.00  0.00     0.000 C
ATOM      3  C3  A00 X   1      21.546  51.952  51.2650  0.00  0.00     0.000 C
ATOM      4  C4  A00 X   1      20.042  52.324  51.2160  0.00  0.00     0.000 C
ATOM      5  C5  A00 X   1      19.274  51.782  52.4210  0.00  0.00     0.000 C
ATOM      6  O5  A00 X   1      19.874  52.435  53.5620  0.00  0.00     0.000 O
ATOM      7   O  A00 X   1      21.709  50.810  50.4260  0.00  0.00     0.000 O
ATOM      9  HD  A00 X   1      20.926  51.141  50.2580  0.00  0.00     0.000 HD
ATOM      9   O  A00 X   1      19.857  53.736  51.1200  0.00  0.00     0.000 O
ATOM     11  HD  A00 X   1      19.074  54.067  50.9530  0.00  0.00     0.000 HD
ENDROOT
BRANCH 2 11
ATOM     11   O  A00 X   1      23.398  52.247  52.8380  0.00  0.00     0.000 O
ATOM     12   O  A00 X   1      25.055  52.193  51.1000  0.00  0.00     0.000 OA
ATOM     13   O  A00 X   1      24.366  50.111  52.1530  0.00  0.00     0.000 OA
ATOM     14   O  A00 X   1      25.609  51.727  53.3780  0.00  0.00     0.000 OA
ATOM     15   S  A00 X   1      24.674  51.506  52.3080  0.00  0.00     0.000 S
ENDBRANCH 2 11
BRANCH 5 16
ATOM     16   C  A00 X   1      19.241  50.254  52.5350  0.00  0.00     0.000 C
ATOM     17   O  A00 X   1      19.076  49.757  53.6300  0.00  0.00     0.000 OA
ATOM     18   O  A00 X   1      19.368  49.526  51.5710  0.00  0.00     0.000 OA
ENDBRANCH 5 16
BRANCH 1 19
ATOM     19  O4  A00 X   2      21.256  51.080  54.9710  0.00  0.00     0.000 O
BRANCH 19 23
ATOM     20  C1  A00 X   2      21.458  54.077  58.0280  0.00  0.00     0.000 C
ATOM     21  C2  A00 X   2      22.782  53.396  57.6070  0.00  0.00     0.000 C
ATOM     22  C3  A00 X   2      22.627  52.688  56.2440  0.00  0.00     0.000 C
ATOM     23  C4  A00 X   2      21.432  51.710  56.2730  0.00  0.00     0.000 C
ATOM     24  C5  A00 X   2      20.177  52.506  56.7250  0.00  0.00     0.000 C
ATOM     25  O5  A00 X   2      20.424  53.057  58.0450  0.00  0.00     0.000 O
ATOM     26   O  A00 X   2      23.898  52.132  55.8660  0.00  0.00     0.000 O
ATOM     28  HD  A00 X   2      24.011  51.742  56.6310  0.00  0.00     0.000 HD
BRANCH 21 30
ATOM     28   N  A00 X   2      23.236  53.511  58.9960  0.00  0.00     0.000 N
ATOM     30  HD  A00 X   2      23.937  53.339  58.5170  0.00  0.00     0.000 HD
ATOM     30   O  A00 X   2      25.557  53.775  58.9840  0.00  0.00     0.000 OA
ATOM     31   S  A00 X   2      24.596  52.821  59.4100  0.00  0.00     0.000 S
ATOM     32   O  A00 X   2      24.482  52.670  60.8270  0.00  0.00     0.000 OA
ATOM     33   O  A00 X   2      24.630  51.537  58.7740  0.00  0.00     0.000 OA
ENDBRANCH 21 30
BRANCH 24 34
ATOM     34   C  A00 X   2      18.799  51.812  56.6160  0.00  0.00     0.000 C
ATOM     35   O  A00 X   2      17.810  48.917  58.5910  0.00  0.00     0.000 OA
ATOM     36   O  A00 X   2      18.818  50.511  57.2380  0.00  0.00     0.000 O
ATOM     37   O  A00 X   2      18.568  50.955  59.5210  0.00  0.00     0.000 OA
ATOM     38   S  A00 X   2      17.839  50.336  58.4560  0.00  0.00     0.000 S
ATOM     39   O  A00 X   2      16.597  50.935  58.0670  0.00  0.00     0.000 OA
ENDBRANCH 24 34
BRANCH 20 40
ATOM     40  O4  A00 X   3      21.170  55.035  56.9990  0.00  0.00     0.000 O
BRANCH 40 44
ATOM     41  C1  A00 X   3      18.817  56.755  54.8470  0.00  0.00     0.000 C
ATOM     42  C2  A00 X   3      20.340  57.007  54.8650  0.00  0.00     0.000 C
ATOM     43  C3  A00 X   3      20.844  57.257  56.3100  0.00  0.00     0.000 C
ATOM     44  C4  A00 X   3      20.400  56.212  57.3260  0.00  0.00     0.000 C
ATOM     45  C5  A00 X   3      18.859  56.018  57.2500  0.00  0.00     0.000 C
ATOM     46  O5  A00 X   3      18.427  55.795  55.8680  0.00  0.00     0.000 O
ATOM     47   O  A00 X   3      22.225  57.589  56.4400  0.00  0.00     0.000 O
ATOM     49  HD  A00 X   3      22.165  57.083  57.1400  0.00  0.00     0.000 HD
BRANCH 42 49
ATOM     49   O  A00 X   3      20.969  55.846  54.2810  0.00  0.00     0.000 O
ATOM     50   O  A00 X   3      23.205  55.157  53.7720  0.00  0.00     0.000 OA
ATOM     51   O  A00 X   3      22.571  57.392  53.3330  0.00  0.00     0.000 OA
ATOM     52   O  A00 X   3      21.611  55.672  52.0280  0.00  0.00     0.000 OA
ATOM     53   S  A00 X   3      22.162  56.010  53.2950  0.00  0.00     0.000 S
ENDBRANCH 42 49
BRANCH 45 54
ATOM     54   C  A00 X   3      18.108  57.163  57.9400  0.00  0.00     0.000 C
ATOM     55   O  A00 X   3      16.897  57.146  58.0260  0.00  0.00     0.000 OA
ATOM     56   O  A00 X   3      18.714  58.112  58.4130  0.00  0.00     0.000 OA
ENDBRANCH 45 54
BRANCH 41 57
ATOM     57  O4  A00 X   4      18.070  57.991  54.8870  0.00  0.00     0.000 O
BRANCH 57 61
ATOM     58  C1  A00 X   4      14.123  58.794  53.3330  0.00  0.00     0.000 C
ATOM     59  C2  A00 X   4      14.383  59.012  54.8450  0.00  0.00     0.000 C
ATOM     60  C3  A00 X   4      15.881  59.045  55.2120  0.00  0.00     0.000 C
ATOM     61  C4  A00 X   4      16.652  57.867  54.5800  0.00  0.00     0.000 C
ATOM     62  C5  A00 X   4      16.424  57.967  53.0510  0.00  0.00     0.000 C
ATOM     63  O5  A00 X   4      15.011  57.803  52.7680  0.00  0.00     0.000 O
BRANCH 59 66
ATOM     64   N  A00 X   4      13.684  57.735  55.0730  0.00  0.00     0.000 N
ATOM     66  HD  A00 X   4      13.552  57.223  54.3870  0.00  0.00     0.000 HD
ATOM     66   O  A00 X   4      11.684  59.017  55.4700  0.00  0.00     0.000 OA
ATOM     67   S  A00 X   4      12.277  57.767  55.8330  0.00  0.00     0.000 S
ATOM     68   O  A00 X   4      11.654  56.603  55.2740  0.00  0.00     0.000 OA
ATOM     69   O  A00 X   4      12.718  57.604  57.1890  0.00  0.00     0.000 OA
ENDBRANCH 59 66
BRANCH 62 70
ATOM     70   C  A00 X   4      17.216  56.925  52.2250  0.00  0.00     0.000 C
ATOM     71   O  A00 X   4      16.273  55.309  49.1250  0.00  0.00     0.000 OA
ATOM     72   O  A00 X   4      17.101  54.406  51.1360  0.00  0.00     0.000 OA
ATOM     73   O  A00 X   4      16.577  56.747  50.9500  0.00  0.00     0.000 O
ATOM     74   O  A00 X   4      14.781  55.142  51.0120  0.00  0.00     0.000 OA
ATOM     75   S  A00 X   4      16.123  55.299  50.5530  0.00  0.00     0.000 S
ENDBRANCH 62 70
ENDBRANCH 57 61
ENDBRANCH 41 57
ENDBRANCH 40 44
ENDBRANCH 20 40
ENDBRANCH 19 23
ENDBRANCH 1 19
TORSDOF 14
ENDMDL
MODEL 40
REMARK VINA RESULT:      -6.3      7.760     14.047
ROOT
ATOM      1  C1  A00 X   1       7.617  51.443  74.4940  0.00  0.00     0.000 C
ATOM      2  C2  A00 X   1       6.372  52.151  75.0930  0.00  0.00     0.000 C
ATOM      3  C3  A00 X   1       5.344  51.229  75.8270  0.00  0.00     0.000 C
ATOM      4  C4  A00 X   1       5.495  49.710  75.5560  0.00  0.00     0.000 C
ATOM      5  C5  A00 X   1       6.229  49.428  74.2450  0.00  0.00     0.000 C
ATOM      6  O5  A00 X   1       7.545  49.997  74.4310  0.00  0.00     0.000 O
ATOM      7   O  A00 X   1       4.029  51.586  75.4090  0.00  0.00     0.000 O
ATOM      9  HD  A00 X   1       4.060  50.721  75.4440  0.00  0.00     0.000 HD
ATOM      9   O  A00 X   1       6.161  49.050  76.6320  0.00  0.00     0.000 O
ATOM     11  HD  A00 X   1       6.192  48.186  76.6680  0.00  0.00     0.000 HD
ENDROOT
BRANCH 2 11
ATOM     11   O  A00 X   1       6.840  53.157  76.0120  0.00  0.00     0.000 O
ATOM     12   O  A00 X   1       5.347  54.320  77.4900  0.00  0.00     0.000 OA
ATOM     13   O  A00 X   1       5.103  54.603  75.0860  0.00  0.00     0.000 OA
ATOM     14   O  A00 X   1       7.005  55.477  76.2160  0.00  0.00     0.000 OA
ATOM     15   S  A00 X   1       5.989  54.459  76.2080  0.00  0.00     0.000 S
ENDBRANCH 2 11
BRANCH 5 16
ATOM     16   C  A00 X   1       5.518  49.929  72.9830  0.00  0.00     0.000 C
ATOM     17   O  A00 X   1       6.130  49.937  71.9350  0.00  0.00     0.000 OA
ATOM     18   O  A00 X   1       4.365  50.310  72.9940  0.00  0.00     0.000 OA
ENDBRANCH 5 16
BRANCH 1 19
ATOM     19  O4  A00 X   2       8.027  52.007  73.2250  0.00  0.00     0.000 O
BRANCH 19 23
ATOM     20  C1  A00 X   2      11.714  53.530  74.7920  0.00  0.00     0.000 C
ATOM     21  C2  A00 X   2      10.655  54.560  74.3280  0.00  0.00     0.000 C
ATOM     22  C3  A00 X   2       9.265  53.902  74.2080  0.00  0.00     0.000 C
ATOM     23  C4  A00 X   2       9.329  52.656  73.2960  0.00  0.00     0.000 C
ATOM     24  C5  A00 X   2      10.434  51.717  73.8540  0.00  0.00     0.000 C
ATOM     25  O5  A00 X   2      11.699  52.428  73.8460  0.00  0.00     0.000 O
ATOM     26   O  A00 X   2       8.307  54.910  73.8440  0.00  0.00     0.000 O
ATOM     28  HD  A00 X   2       8.789  55.201  73.1860  0.00  0.00     0.000 HD
BRANCH 21 30
ATOM     28   N  A00 X   2       9.871  55.729  74.7370  0.00  0.00     0.000 N
ATOM     30  HD  A00 X   2      10.676  56.009  74.5830  0.00  0.00     0.000 HD
ATOM     30   O  A00 X   2      11.061  57.649  74.1400  0.00  0.00     0.000 OA
ATOM     31   S  A00 X   2      10.631  56.987  75.3200  0.00  0.00     0.000 S
ATOM     32   O  A00 X   2       9.624  57.676  76.0660  0.00  0.00     0.000 OA
ATOM     33   O  A00 X   2      11.651  56.495  76.1970  0.00  0.00     0.000 OA
ENDBRANCH 21 30
BRANCH 24 34
ATOM     34   C  A00 X   2      10.545  50.294  73.2570  0.00  0.00     0.000 C
ATOM     35   O  A00 X   2      13.643  48.839  72.0140  0.00  0.00     0.000 OA
ATOM     36   O  A00 X   2      11.782  50.125  72.5360  0.00  0.00     0.000 O
ATOM     37   O  A00 X   2      13.372  49.702  74.1990  0.00  0.00     0.000 OA
ATOM     38   S  A00 X   2      12.746  49.021  73.1070  0.00  0.00     0.000 S
ATOM     39   O  A00 X   2      11.926  47.887  73.4150  0.00  0.00     0.000 OA
ENDBRANCH 24 34
BRANCH 20 40
ATOM     40  O4  A00 X   3      11.269  53.068  76.0750  0.00  0.00     0.000 O
BRANCH 40 44
ATOM     41  C1  A00 X   3      10.490  51.507  79.2500  0.00  0.00     0.000 C
ATOM     42  C2  A00 X   3      11.016  52.949  79.0840  0.00  0.00     0.000 C
ATOM     43  C3  A00 X   3      12.284  52.979  78.1920  0.00  0.00     0.000 C
ATOM     44  C4  A00 X   3      12.145  52.238  76.8690  0.00  0.00     0.000 C
ATOM     45  C5  A00 X   3      11.618  50.796  77.1180  0.00  0.00     0.000 C
ATOM     46  O5  A00 X   3      10.428  50.815  77.9720  0.00  0.00     0.000 O
ATOM     47   O  A00 X   3      12.908  54.252  78.0400  0.00  0.00     0.000 O
ATOM     49  HD  A00 X   3      13.017  53.975  77.2270  0.00  0.00     0.000 HD
BRANCH 42 49
ATOM     49   O  A00 X   3       9.944  53.725  78.5040  0.00  0.00     0.000 O
ATOM     50   O  A00 X   3       9.026  55.914  78.8150  0.00  0.00     0.000 OA
ATOM     51   O  A00 X   3       9.636  54.652  80.7190  0.00  0.00     0.000 OA
ATOM     52   O  A00 X   3       7.795  53.925  79.4280  0.00  0.00     0.000 OA
ATOM     53   S  A00 X   3       9.039  54.613  79.4070  0.00  0.00     0.000 S
ENDBRANCH 42 49
BRANCH 45 54
ATOM     54   C  A00 X   3      12.722  49.871  77.6440  0.00  0.00     0.000 C
ATOM     55   O  A00 X   3      12.521  48.682  77.7780  0.00  0.00     0.000 OA
ATOM     56   O  A00 X   3      13.822  50.314  77.9370  0.00  0.00     0.000 OA
ENDBRANCH 45 54
BRANCH 41 57
ATOM     57  O4  A00 X   4      11.218  50.788  80.2710  0.00  0.00     0.000 O
BRANCH 57 61
ATOM     58  C1  A00 X   4      10.093  47.444  82.7600  0.00  0.00     0.000 C
ATOM     59  C2  A00 X   4       9.760  47.388  81.2480  0.00  0.00     0.000 C
ATOM     60  C3  A00 X   4      10.513  48.444  80.4130  0.00  0.00     0.000 C
ATOM     61  C4  A00 X   4      10.424  49.847  81.0490  0.00  0.00     0.000 C
ATOM     62  C5  A00 X   4      11.002  49.714  82.4810  0.00  0.00     0.000 C
ATOM     63  O5  A00 X   4      10.173  48.803  83.2470  0.00  0.00     0.000 O
BRANCH 59 66
ATOM     64   N  A00 X   4       8.434  47.691  81.8150  0.00  0.00     0.000 N
ATOM     66  HD  A00 X   4       8.397  47.896  82.6560  0.00  0.00     0.000 HD
ATOM     66   O  A00 X   4       7.905  45.355  81.5700  0.00  0.00     0.000 OA
ATOM     67   S  A00 X   4       7.258  46.629  81.6020  0.00  0.00     0.000 S
ATOM     68   O  A00 X   4       6.462  46.887  82.7660  0.00  0.00     0.000 OA
ATOM     69   O  A00 X   4       6.690  47.122  80.3790  0.00  0.00     0.000 OA
ENDBRANCH 59 66
BRANCH 62 70
ATOM     70   C  A00 X   4      11.100  51.054  83.2490  0.00  0.00     0.000 C
ATOM     71   O  A00 X   4      10.162  51.771  86.6720  0.00  0.00     0.000 OA
ATOM     72   O  A00 X   4       9.656  52.906  84.6720  0.00  0.00     0.000 OA
ATOM     73   O  A00 X   4      10.851  50.819  84.6450  0.00  0.00     0.000 O
ATOM     74   O  A00 X   4       8.506  50.823  85.1970  0.00  0.00     0.000 OA
ATOM     75   S  A00 X   4       9.685  51.617  85.3260  0.00  0.00     0.000 S
ENDBRANCH 62 70
ENDBRANCH 57 61
ENDBRANCH 41 57
ENDBRANCH 40 44
ENDBRANCH 20 40
ENDBRANCH 19 23
ENDBRANCH 1 19
TORSDOF 14
ENDMDL
MODEL 41
REMARK VINA RESULT:      -6.3     19.778     25.968
ROOT
ATOM      1  C1  A00 X   1       6.178  55.995  66.1540  0.00  0.00     0.000 C
ATOM      2  C2  A00 X   1       7.181  55.174  67.0070  0.00  0.00     0.000 C
ATOM      3  C3  A00 X   1       8.692  55.540  66.8330  0.00  0.00     0.000 C
ATOM      4  C4  A00 X   1       9.033  56.399  65.5880  0.00  0.00     0.000 C
ATOM      5  C5  A00 X   1       7.971  56.277  64.4950  0.00  0.00     0.000 C
ATOM      6  O5  A00 X   1       6.764  56.795  65.0960  0.00  0.00     0.000 O
ATOM      7   O  A00 X   1       9.444  54.335  66.7110  0.00  0.00     0.000 O
ATOM      9  HD  A00 X   1       9.766  54.896  66.1350  0.00  0.00     0.000 HD
ATOM      9   O  A00 X   1       9.213  57.772  65.9350  0.00  0.00     0.000 O
ATOM     11  HD  A00 X   1       9.535  58.333  65.3590  0.00  0.00     0.000 HD
ENDROOT
BRANCH 2 11
ATOM     11   O  A00 X   1       6.816  55.337  68.3910  0.00  0.00     0.000 O
ATOM     12   O  A00 X   1       7.934  54.143  70.1500  0.00  0.00     0.000 OA
ATOM     13   O  A00 X   1       6.664  52.901  68.4880  0.00  0.00     0.000 OA
ATOM     14   O  A00 X   1       5.550  54.300  70.0570  0.00  0.00     0.000 OA
ATOM     15   S  A00 X   1       6.761  54.072  69.3150  0.00  0.00     0.000 S
ENDBRANCH 2 11
BRANCH 5 16
ATOM     16   C  A00 X   1       7.809  54.873  63.9040  0.00  0.00     0.000 C
ATOM     17   O  A00 X   1       6.906  54.675  63.1160  0.00  0.00     0.000 OA
ATOM     18   O  A00 X   1       8.552  53.956  64.1890  0.00  0.00     0.000 OA
ENDBRANCH 5 16
BRANCH 1 19
ATOM     19  O4  A00 X   2       5.074  55.196  65.6620  0.00  0.00     0.000 O
BRANCH 19 23
ATOM     20  C1  A00 X   2       2.249  58.418  65.5920  0.00  0.00     0.000 C
ATOM     21  C2  A00 X   2       2.407  57.635  66.9180  0.00  0.00     0.000 C
ATOM     22  C3  A00 X   2       3.722  56.827  66.9260  0.00  0.00     0.000 C
ATOM     23  C4  A00 X   2       3.810  55.920  65.6790  0.00  0.00     0.000 C
ATOM     24  C5  A00 X   2       3.619  56.816  64.4250  0.00  0.00     0.000 C
ATOM     25  O5  A00 X   2       2.321  57.459  64.5040  0.00  0.00     0.000 O
ATOM     26   O  A00 X   2       3.855  56.175  68.2000  0.00  0.00     0.000 O
ATOM     28  HD  A00 X   2       3.056  55.843  68.1700  0.00  0.00     0.000 HD
BRANCH 21 30
ATOM     28   N  A00 X   2       2.681  57.720  68.3560  0.00  0.00     0.000 N
ATOM     30  HD  A00 X   2       1.873  58.009  68.2370  0.00  0.00     0.000 HD
ATOM     30   O  A00 X   2       0.643  57.977  69.4700  0.00  0.00     0.000 OA
ATOM     31   S  A00 X   2       1.828  58.722  69.2320  0.00  0.00     0.000 S
ATOM     32   O  A00 X   2       2.645  58.942  70.3860  0.00  0.00     0.000 OA
ATOM     33   O  A00 X   2       1.693  59.933  68.4800  0.00  0.00     0.000 OA
ENDBRANCH 21 30
BRANCH 24 34
ATOM     34   C  A00 X   2       3.892  56.190  63.0370  0.00  0.00     0.000 C
ATOM     35   O  A00 X   2       1.336  55.661  60.4980  0.00  0.00     0.000 OA
ATOM     36   O  A00 X   2       2.666  55.783  62.3970  0.00  0.00     0.000 O
ATOM     37   O  A00 X   2       1.801  57.758  61.4890  0.00  0.00     0.000 OA
ATOM     38   S  A00 X   2       2.344  56.512  61.0410  0.00  0.00     0.000 S
ATOM     39   O  A00 X   2       3.569  56.550  60.3000  0.00  0.00     0.000 OA
ENDBRANCH 24 34
BRANCH 20 40
ATOM     40  O4  A00 X   3       3.377  59.303  65.5280  0.00  0.00     0.000 O
BRANCH 40 44
ATOM     41  C1  A00 X   3       6.278  60.488  63.7100  0.00  0.00     0.000 C
ATOM     42  C2  A00 X   3       5.838  61.003  65.0970  0.00  0.00     0.000 C
ATOM     43  C3  A00 X   3       4.339  61.401  65.0920  0.00  0.00     0.000 C
ATOM     44  C4  A00 X   3       3.404  60.341  64.5250  0.00  0.00     0.000 C
ATOM     45  C5  A00 X   3       3.909  59.878  63.1290  0.00  0.00     0.000 C
ATOM     46  O5  A00 X   3       5.329  59.522  63.1790  0.00  0.00     0.000 O
ATOM     47   O  A00 X   3       3.843  61.974  66.3010  0.00  0.00     0.000 O
ATOM     49  HD  A00 X   3       3.146  61.497  66.1080  0.00  0.00     0.000 HD
BRANCH 42 49
ATOM     49   O  A00 X   3       6.100  59.944  66.0440  0.00  0.00     0.000 O
ATOM     50   O  A00 X   3       5.748  59.587  68.3850  0.00  0.00     0.000 OA
ATOM     51   O  A00 X   3       6.503  61.705  67.6550  0.00  0.00     0.000 OA
ATOM     52   O  A00 X   3       7.968  59.860  67.4650  0.00  0.00     0.000 OA
ATOM     53   S  A00 X   3       6.608  60.278  67.4770  0.00  0.00     0.000 S
ENDBRANCH 42 49
BRANCH 45 54
ATOM     54   C  A00 X   3       3.582  60.904  62.0380  0.00  0.00     0.000 C
ATOM     55   O  A00 X   3       3.245  62.033  62.3320  0.00  0.00     0.000 OA
ATOM     56   O  A00 X   3       3.654  60.605  60.8560  0.00  0.00     0.000 OA
ENDBRANCH 45 54
BRANCH 41 57
ATOM     57  O4  A00 X   4       6.576  61.576  62.8070  0.00  0.00     0.000 O
BRANCH 57 61
ATOM     58  C1  A00 X   4       9.371  61.991  59.5430  0.00  0.00     0.000 C
ATOM     59  C2  A00 X   4       8.307  60.868  59.4690  0.00  0.00     0.000 C
ATOM     60  C3  A00 X   4       7.161  61.039  60.4870  0.00  0.00     0.000 C
ATOM     61  C4  A00 X   4       7.694  61.341  61.9040  0.00  0.00     0.000 C
ATOM     62  C5  A00 X   4       8.561  62.619  61.7800  0.00  0.00     0.000 C
ATOM     63  O5  A00 X   4       9.687  62.349  60.9070  0.00  0.00     0.000 O
BRANCH 59 66
ATOM     64   N  A00 X   4       8.659  59.453  59.6800  0.00  0.00     0.000 N
ATOM     66  HD  A00 X   4       9.271  59.277  60.2670  0.00  0.00     0.000 HD
ATOM     66   O  A00 X   4       9.675  59.484  57.4960  0.00  0.00     0.000 OA
ATOM     67   S  A00 X   4       9.052  58.572  58.4040  0.00  0.00     0.000 S
ATOM     68   O  A00 X   4       9.927  57.612  59.0120  0.00  0.00     0.000 OA
ATOM     69   O  A00 X   4       7.763  58.050  58.0500  0.00  0.00     0.000 OA
ENDBRANCH 59 66
BRANCH 62 70
ATOM     70   C  A00 X   4       9.101  63.150  63.1300  0.00  0.00     0.000 C
ATOM     71   O  A00 X   4      11.553  61.650  65.3310  0.00  0.00     0.000 OA
ATOM     72   O  A00 X   4       9.419  62.535  65.7880  0.00  0.00     0.000 OA
ATOM     73   O  A00 X   4      10.233  62.362  63.5310  0.00  0.00     0.000 O
ATOM     74   O  A00 X   4       9.614  60.356  64.7140  0.00  0.00     0.000 OA
ATOM     75   S  A00 X   4      10.174  61.651  64.9280  0.00  0.00     0.000 S
ENDBRANCH 62 70
ENDBRANCH 57 61
ENDBRANCH 41 57
ENDBRANCH 40 44
ENDBRANCH 20 40
ENDBRANCH 19 23
ENDBRANCH 1 19
TORSDOF 14
ENDMDL
MODEL 42
REMARK VINA RESULT:      -6.2     13.068     18.385
ROOT
ATOM      1  C1  A00 X   1       6.404  53.383  71.5170  0.00  0.00     0.000 C
ATOM      2  C2  A00 X   1       5.529  52.102  71.5770  0.00  0.00     0.000 C
ATOM      3  C3  A00 X   1       6.296  50.741  71.4820  0.00  0.00     0.000 C
ATOM      4  C4  A00 X   1       7.758  50.832  70.9760  0.00  0.00     0.000 C
ATOM      5  C5  A00 X   1       8.011  52.103  70.1650  0.00  0.00     0.000 C
ATOM      6  O5  A00 X   1       7.776  53.184  71.0950  0.00  0.00     0.000 O
ATOM      7   O  A00 X   1       5.604  49.890  70.5710  0.00  0.00     0.000 O
ATOM      9  HD  A00 X   1       6.451  49.796  70.4160  0.00  0.00     0.000 HD
ATOM      9   O  A00 X   1       8.689  50.755  72.0560  0.00  0.00     0.000 O
ATOM     11  HD  A00 X   1       9.536  50.661  71.9010  0.00  0.00     0.000 HD
ENDROOT
BRANCH 2 11
ATOM     11   O  A00 X   1       4.786  52.136  72.8110  0.00  0.00     0.000 O
ATOM     12   O  A00 X   1       2.862  50.747  73.1740  0.00  0.00     0.000 OA
ATOM     13   O  A00 X   1       2.793  52.445  71.4340  0.00  0.00     0.000 OA
ATOM     14   O  A00 X   1       2.853  53.072  73.7270  0.00  0.00     0.000 OA
ATOM     15   S  A00 X   1       3.221  52.078  72.7550  0.00  0.00     0.000 S
ENDBRANCH 2 11
BRANCH 5 16
ATOM     16   C  A00 X   1       7.198  52.218  68.8720  0.00  0.00     0.000 C
ATOM     17   O  A00 X   1       7.184  53.282  68.2870  0.00  0.00     0.000 OA
ATOM     18   O  A00 X   1       6.575  51.284  68.4080  0.00  0.00     0.000 OA
ENDBRANCH 5 16
BRANCH 1 19
ATOM     19  O4  A00 X   2       5.774  54.458  70.7780  0.00  0.00     0.000 O
BRANCH 19 23
ATOM     20  C1  A00 X   2       7.671  57.566  73.0370  0.00  0.00     0.000 C
ATOM     21  C2  A00 X   2       6.260  57.116  73.4860  0.00  0.00     0.000 C
ATOM     22  C3  A00 X   2       5.903  55.743  72.8800  0.00  0.00     0.000 C
ATOM     23  C4  A00 X   2       6.063  55.768  71.3430  0.00  0.00     0.000 C
ATOM     24  C5  A00 X   2       7.505  56.251  71.0250  0.00  0.00     0.000 C
ATOM     25  O5  A00 X   2       7.688  57.577  71.5840  0.00  0.00     0.000 O
ATOM     26   O  A00 X   2       4.617  55.338  73.3800  0.00  0.00     0.000 O
ATOM     28  HD  A00 X   2       4.245  56.094  73.1790  0.00  0.00     0.000 HD
BRANCH 21 30
ATOM     28   N  A00 X   2       5.367  56.622  74.5380  0.00  0.00     0.000 N
ATOM     30  HD  A00 X   2       5.553  57.445  74.7340  0.00  0.00     0.000 HD
ATOM     30   O  A00 X   2       4.525  58.464  75.7020  0.00  0.00     0.000 OA
ATOM     31   S  A00 X   2       5.372  57.350  75.9410  0.00  0.00     0.000 S
ATOM     32   O  A00 X   2       4.840  56.368  76.8350  0.00  0.00     0.000 OA
ATOM     33   O  A00 X   2       6.738  57.631  76.2680  0.00  0.00     0.000 OA
ENDBRANCH 21 30
BRANCH 24 34
ATOM     34   C  A00 X   2       7.999  56.147  69.5620  0.00  0.00     0.000 C
ATOM     35   O  A00 X   2       6.366  57.763  66.7370  0.00  0.00     0.000 OA
ATOM     36   O  A00 X   2       6.982  56.577  68.6360  0.00  0.00     0.000 O
ATOM     37   O  A00 X   2       7.121  58.912  68.6610  0.00  0.00     0.000 OA
ATOM     38   S  A00 X   2       7.359  57.827  67.7590  0.00  0.00     0.000 S
ATOM     39   O  A00 X   2       8.703  57.618  67.3130  0.00  0.00     0.000 OA
ENDBRANCH 24 34
BRANCH 20 40
ATOM     40  O4  A00 X   3       8.572  56.559  73.5190  0.00  0.00     0.000 O
BRANCH 40 44
ATOM     41  C1  A00 X   3      11.252  54.254  72.7260  0.00  0.00     0.000 C
ATOM     42  C2  A00 X   3      10.581  54.381  74.1110  0.00  0.00     0.000 C
ATOM     43  C3  A00 X   3      10.549  55.859  74.5780  0.00  0.00     0.000 C
ATOM     44  C4  A00 X   3       9.989  56.835  73.5520  0.00  0.00     0.000 C
ATOM     45  C5  A00 X   3      10.715  56.650  72.1900  0.00  0.00     0.000 C
ATOM     46  O5  A00 X   3      10.731  55.241  71.7930  0.00  0.00     0.000 O
ATOM     47   O  A00 X   3      10.029  56.087  75.8870  0.00  0.00     0.000 O
ATOM     49  HD  A00 X   3       9.676  56.779  75.5040  0.00  0.00     0.000 HD
BRANCH 42 49
ATOM     49   O  A00 X   3       9.249  53.836  73.9880  0.00  0.00     0.000 O
ATOM     50   O  A00 X   3       7.344  53.580  75.4140  0.00  0.00     0.000 OA
ATOM     51   O  A00 X   3       9.495  53.144  76.2940  0.00  0.00     0.000 OA
ATOM     52   O  A00 X   3       8.627  51.674  74.6590  0.00  0.00     0.000 OA
ATOM     53   S  A00 X   3       8.627  53.009  75.1500  0.00  0.00     0.000 S
ENDBRANCH 42 49
BRANCH 45 54
ATOM     54   C  A00 X   3      12.108  57.291  72.1980  0.00  0.00     0.000 C
ATOM     55   O  A00 X   3      12.463  57.989  73.1250  0.00  0.00     0.000 OA
ATOM     56   O  A00 X   3      12.885  57.111  71.2720  0.00  0.00     0.000 OA
ENDBRANCH 45 54
BRANCH 41 57
ATOM     57  O4  A00 X   4      12.693  54.247  72.8290  0.00  0.00     0.000 O
BRANCH 57 61
ATOM     58  C1  A00 X   4      15.659  51.660  71.0530  0.00  0.00     0.000 C
ATOM     59  C2  A00 X   4      15.483  53.088  70.4800  0.00  0.00     0.000 C
ATOM     60  C3  A00 X   4      14.674  54.024  71.4010  0.00  0.00     0.000 C
ATOM     61  C4  A00 X   4      13.375  53.356  71.9000  0.00  0.00     0.000 C
ATOM     62  C5  A00 X   4      13.804  52.055  72.6230  0.00  0.00     0.000 C
ATOM     63  O5  A00 X   4      14.446  51.170  71.6700  0.00  0.00     0.000 O
BRANCH 59 66
ATOM     64   N  A00 X   4      14.880  52.134  69.5310  0.00  0.00     0.000 N
ATOM     66  HD  A00 X   4      14.853  51.301  69.7650  0.00  0.00     0.000 HD
ATOM     66   O  A00 X   4      16.803  52.476  68.1230  0.00  0.00     0.000 OA
ATOM     67   S  A00 X   4      15.423  52.119  68.0270  0.00  0.00     0.000 S
ATOM     68   O  A00 X   4      15.161  50.754  67.6720  0.00  0.00     0.000 OA
ATOM     69   O  A00 X   4      14.526  53.065  67.4250  0.00  0.00     0.000 OA
ENDBRANCH 59 66
BRANCH 62 70
ATOM     70   C  A00 X   4      12.638  51.291  73.2950  0.00  0.00     0.000 C
ATOM     71   O  A00 X   4      12.584  47.895  74.5470  0.00  0.00     0.000 OA
ATOM     72   O  A00 X   4      11.081  49.034  73.1370  0.00  0.00     0.000 OA
ATOM     73   O  A00 X   4      13.134  50.063  73.8530  0.00  0.00     0.000 O
ATOM     74   O  A00 X   4      13.217  48.266  72.2500  0.00  0.00     0.000 OA
ATOM     75   S  A00 X   4      12.473  48.723  73.3790  0.00  0.00     0.000 S
ENDBRANCH 62 70
ENDBRANCH 57 61
ENDBRANCH 41 57
ENDBRANCH 40 44
ENDBRANCH 20 40
ENDBRANCH 19 23
ENDBRANCH 1 19
TORSDOF 14
ENDMDL
MODEL 43
REMARK VINA RESULT:      -6.1     16.125     20.744
ROOT
ATOM      1  C1  A00 X   1      24.744  48.172  70.5570  0.00  0.00     0.000 C
ATOM      2  C2  A00 X   1      25.116  48.797  71.9280  0.00  0.00     0.000 C
ATOM      3  C3  A00 X   1      24.819  50.325  72.0890  0.00  0.00     0.000 C
ATOM      4  C4  A00 X   1      24.544  51.095  70.7720  0.00  0.00     0.000 C
ATOM      5  C5  A00 X   1      25.131  50.383  69.5540  0.00  0.00     0.000 C
ATOM      6  O5  A00 X   1      24.439  49.116  69.5000  0.00  0.00     0.000 O
ATOM      7   O  A00 X   1      25.950  50.948  72.6940  0.00  0.00     0.000 O
ATOM      9  HD  A00 X   1      25.670  51.479  72.0690  0.00  0.00     0.000 HD
ATOM      9   O  A00 X   1      23.147  51.312  70.5770  0.00  0.00     0.000 O
ATOM     11  HD  A00 X   1      22.866  51.842  69.9530  0.00  0.00     0.000 HD
ENDROOT
BRANCH 2 11
ATOM     11   O  A00 X   1      24.404  48.071  72.9490  0.00  0.00     0.000 O
ATOM     12   O  A00 X   1      24.366  48.802  75.2360  0.00  0.00     0.000 OA
ATOM     13   O  A00 X   1      26.480  48.132  74.2350  0.00  0.00     0.000 OA
ATOM     14   O  A00 X   1      24.780  46.521  74.6540  0.00  0.00     0.000 OA
ATOM     15   S  A00 X   1      25.067  47.899  74.3590  0.00  0.00     0.000 S
ENDBRANCH 2 11
BRANCH 5 16
ATOM     16   C  A00 X   1      26.657  50.249  69.5550  0.00  0.00     0.000 C
ATOM     17   O  A00 X   1      27.177  49.526  68.7300  0.00  0.00     0.000 OA
ATOM     18   O  A00 X   1      27.363  50.844  70.3440  0.00  0.00     0.000 OA
ENDBRANCH 5 16
BRANCH 1 19
ATOM     19  O4  A00 X   2      25.700  47.176  70.1170  0.00  0.00     0.000 O
BRANCH 19 23
ATOM     20  C1  A00 X   2      22.712  44.516  68.5810  0.00  0.00     0.000 C
ATOM     21  C2  A00 X   2      23.222  44.263  70.0200  0.00  0.00     0.000 C
ATOM     22  C3  A00 X   2      23.938  45.511  70.5760  0.00  0.00     0.000 C
ATOM     23  C4  A00 X   2      25.058  45.969  69.6150  0.00  0.00     0.000 C
ATOM     24  C5  A00 X   2      24.425  46.170  68.2100  0.00  0.00     0.000 C
ATOM     25  O5  A00 X   2      23.852  44.910  67.7720  0.00  0.00     0.000 O
ATOM     26   O  A00 X   2      24.331  45.250  71.9340  0.00  0.00     0.000 O
ATOM     28  HD  A00 X   2      24.707  44.496  71.7340  0.00  0.00     0.000 HD
BRANCH 21 30
ATOM     28   N  A00 X   2      22.073  43.357  70.1160  0.00  0.00     0.000 N
ATOM     30  HD  A00 X   2      22.726  42.979  70.5400  0.00  0.00     0.000 HD
ATOM     30   O  A00 X   2      22.506  41.811  71.8130  0.00  0.00     0.000 OA
ATOM     31   S  A00 X   2      22.336  41.826  70.4040  0.00  0.00     0.000 S
ATOM     32   O  A00 X   2      21.149  41.183  69.9320  0.00  0.00     0.000 OA
ATOM     33   O  A00 X   2      23.463  41.434  69.6100  0.00  0.00     0.000 OA
ENDBRANCH 21 30
BRANCH 24 34
ATOM     34   C  A00 X   2      25.284  46.847  67.1170  0.00  0.00     0.000 C
ATOM     35   O  A00 X   2      23.915  48.769  64.3440  0.00  0.00     0.000 OA
ATOM     36   O  A00 X   2      24.482  47.222  65.9800  0.00  0.00     0.000 O
ATOM     37   O  A00 X   2      23.467  49.230  66.6200  0.00  0.00     0.000 OA
ATOM     38   S  A00 X   2      24.433  48.764  65.6730  0.00  0.00     0.000 S
ATOM     39   O  A00 X   2      25.775  49.246  65.8020  0.00  0.00     0.000 OA
ENDBRANCH 24 34
BRANCH 20 40
ATOM     40  O4  A00 X   3      21.793  45.614  68.6820  0.00  0.00     0.000 O
BRANCH 40 44
ATOM     41  C1  A00 X   3      19.111  48.049  68.6380  0.00  0.00     0.000 C
ATOM     42  C2  A00 X   3      18.991  46.618  69.2050  0.00  0.00     0.000 C
ATOM     43  C3  A00 X   3      19.499  45.571  68.1800  0.00  0.00     0.000 C
ATOM     44  C4  A00 X   3      20.874  45.869  67.5980  0.00  0.00     0.000 C
ATOM     45  C5  A00 X   3      20.914  47.321  67.0450  0.00  0.00     0.000 C
ATOM     46  O5  A00 X   3      20.418  48.274  68.0400  0.00  0.00     0.000 O
ATOM     47   O  A00 X   3      19.355  44.204  68.5630  0.00  0.00     0.000 O
ATOM     49  HD  A00 X   3      20.130  44.133  68.1850  0.00  0.00     0.000 HD
BRANCH 42 49
ATOM     49   O  A00 X   3      19.764  46.580  70.4250  0.00  0.00     0.000 O
ATOM     50   O  A00 X   3      20.320  44.935  72.0730  0.00  0.00     0.000 OA
ATOM     51   O  A00 X   3      18.113  45.003  71.2290  0.00  0.00     0.000 OA
ATOM     52   O  A00 X   3      18.858  46.793  72.5810  0.00  0.00     0.000 OA
ATOM     53   S  A00 X   3      19.247  45.783  71.6580  0.00  0.00     0.000 S
ENDBRANCH 42 49
BRANCH 45 54
ATOM     54   C  A00 X   3      20.199  47.433  65.6930  0.00  0.00     0.000 C
ATOM     55   O  A00 X   3      20.344  48.417  64.9960  0.00  0.00     0.000 OA
ATOM     56   O  A00 X   3      19.471  46.537  65.2940  0.00  0.00     0.000 OA
ENDBRANCH 45 54
BRANCH 41 57
ATOM     57  O4  A00 X   4      18.004  48.373  67.7670  0.00  0.00     0.000 O
BRANCH 57 61
ATOM     58  C1  A00 X   4      16.541  52.186  66.3680  0.00  0.00     0.000 C
ATOM     59  C2  A00 X   4      17.269  51.258  65.3640  0.00  0.00     0.000 C
ATOM     60  C3  A00 X   4      17.421  49.808  65.8670  0.00  0.00     0.000 C
ATOM     61  C4  A00 X   4      17.959  49.755  67.3130  0.00  0.00     0.000 C
ATOM     62  C5  A00 X   4      16.965  50.571  68.1770  0.00  0.00     0.000 C
ATOM     63  O5  A00 X   4      16.966  51.951  67.7300  0.00  0.00     0.000 O
BRANCH 59 66
ATOM     64   N  A00 X   4      17.780  50.945  64.0180  0.00  0.00     0.000 N
ATOM     66  HD  A00 X   4      18.600  50.671  63.9540  0.00  0.00     0.000 HD
ATOM     66   O  A00 X   4      17.720  53.307  63.5540  0.00  0.00     0.000 OA
ATOM     67   S  A00 X   4      17.630  52.053  62.8740  0.00  0.00     0.000 S
ATOM     68   O  A00 X   4      18.751  51.720  62.0440  0.00  0.00     0.000 OA
ATOM     69   O  A00 X   4      16.359  51.678  62.3240  0.00  0.00     0.000 OA
ENDBRANCH 59 66
BRANCH 62 70
ATOM     70   C  A00 X   4      17.276  50.545  69.6930  0.00  0.00     0.000 C
ATOM     71   O  A00 X   4      19.708  52.494  71.5360  0.00  0.00     0.000 OA
ATOM     72   O  A00 X   4      19.275  50.179  71.5410  0.00  0.00     0.000 OA
ATOM     73   O  A00 X   4      18.132  51.652  70.0210  0.00  0.00     0.000 O
ATOM     74   O  A00 X   4      20.467  51.177  69.6640  0.00  0.00     0.000 OA
ATOM     75   S  A00 X   4      19.506  51.338  70.7080  0.00  0.00     0.000 S
ENDBRANCH 62 70
ENDBRANCH 57 61
ENDBRANCH 41 57
ENDBRANCH 40 44
ENDBRANCH 20 40
ENDBRANCH 19 23
ENDBRANCH 1 19
TORSDOF 14
ENDMDL
MODEL 44
REMARK VINA RESULT:      -6.1      9.742     16.401
ROOT
ATOM      1  C1  A00 X   1       7.286  53.627  72.6940  0.00  0.00     0.000 C
ATOM      2  C2  A00 X   1       5.987  52.790  72.5460  0.00  0.00     0.000 C
ATOM      3  C3  A00 X   1       6.093  51.509  71.6560  0.00  0.00     0.000 C
ATOM      4  C4  A00 X   1       7.346  51.428  70.7460  0.00  0.00     0.000 C
ATOM      5  C5  A00 X   1       7.951  52.805  70.4730  0.00  0.00     0.000 C
ATOM      6  O5  A00 X   1       8.354  53.293  71.7730  0.00  0.00     0.000 O
ATOM      7   O  A00 X   1       4.961  51.459  70.7900  0.00  0.00     0.000 O
ATOM      9  HD  A00 X   1       5.650  51.223  70.3220  0.00  0.00     0.000 HD
ATOM      9   O  A00 X   1       8.339  50.566  71.3020  0.00  0.00     0.000 O
ATOM     11  HD  A00 X   1       9.029  50.330  70.8340  0.00  0.00     0.000 HD
ENDROOT
BRANCH 2 11
ATOM     11   O  A00 X   1       5.559  52.409  73.8680  0.00  0.00     0.000 O
ATOM     12   O  A00 X   1       3.772  50.845  74.2220  0.00  0.00     0.000 OA
ATOM     13   O  A00 X   1       3.296  52.971  73.1400  0.00  0.00     0.000 OA
ATOM     14   O  A00 X   1       3.902  52.899  75.4390  0.00  0.00     0.000 OA
ATOM     15   S  A00 X   1       4.025  52.262  74.1550  0.00  0.00     0.000 S
ENDBRANCH 2 11
BRANCH 5 16
ATOM     16   C  A00 X   1       7.041  53.773  69.7100  0.00  0.00     0.000 C
ATOM     17   O  A00 X   1       7.391  54.929  69.5910  0.00  0.00     0.000 OA
ATOM     18   O  A00 X   1       5.987  53.424  69.2160  0.00  0.00     0.000 OA
ENDBRANCH 5 16
BRANCH 1 19
ATOM     19  O4  A00 X   2       7.035  55.054  72.7160  0.00  0.00     0.000 O
BRANCH 19 23
ATOM     20  C1  A00 X   2       9.673  55.743  76.0220  0.00  0.00     0.000 C
ATOM     21  C2  A00 X   2       8.151  55.786  76.3010  0.00  0.00     0.000 C
ATOM     22  C3  A00 X   2       7.364  55.109  75.1600  0.00  0.00     0.000 C
ATOM     23  C4  A00 X   2       7.742  55.728  73.7960  0.00  0.00     0.000 C
ATOM     24  C5  A00 X   2       9.285  55.641  73.6460  0.00  0.00     0.000 C
ATOM     25  O5  A00 X   2       9.903  56.375  74.7350  0.00  0.00     0.000 O
ATOM     26   O  A00 X   2       5.966  55.114  75.4980  0.00  0.00     0.000 O
ATOM     28  HD  A00 X   2       5.963  55.960  75.6840  0.00  0.00     0.000 HD
BRANCH 21 30
ATOM     28   N  A00 X   2       7.212  55.148  77.2280  0.00  0.00     0.000 N
ATOM     30  HD  A00 X   2       7.568  55.814  77.6520  0.00  0.00     0.000 HD
ATOM     30   O  A00 X   2       6.804  56.631  78.9870  0.00  0.00     0.000 OA
ATOM     31   S  A00 X   2       7.413  55.365  78.7810  0.00  0.00     0.000 S
ATOM     32   O  A00 X   2       6.722  54.260  79.3700  0.00  0.00     0.000 OA
ATOM     33   O  A00 X   2       8.818  55.270  79.0440  0.00  0.00     0.000 OA
ENDBRANCH 21 30
BRANCH 24 34
ATOM     34   C  A00 X   2       9.901  55.984  72.2690  0.00  0.00     0.000 C
ATOM     35   O  A00 X   2      12.609  58.368  71.7820  0.00  0.00     0.000 OA
ATOM     36   O  A00 X   2      10.686  57.191  72.3340  0.00  0.00     0.000 O
ATOM     37   O  A00 X   2      12.734  56.505  73.2340  0.00  0.00     0.000 OA
ATOM     38   S  A00 X   2      12.214  57.016  72.0020  0.00  0.00     0.000 S
ATOM     39   O  A00 X   2      12.283  56.168  70.8500  0.00  0.00     0.000 OA
ENDBRANCH 24 34
BRANCH 20 40
ATOM     40  O4  A00 X   3      10.013  54.351  75.9410  0.00  0.00     0.000 O
BRANCH 40 44
ATOM     41  C1  A00 X   3      11.640  51.250  75.0130  0.00  0.00     0.000 C
ATOM     42  C2  A00 X   3      10.697  51.421  76.2240  0.00  0.00     0.000 C
ATOM     43  C3  A00 X   3      11.125  52.632  77.0930  0.00  0.00     0.000 C
ATOM     44  C4  A00 X   3      11.340  53.925  76.3160  0.00  0.00     0.000 C
ATOM     45  C5  A00 X   3      12.301  53.673  75.1200  0.00  0.00     0.000 C
ATOM     46  O5  A00 X   3      11.865  52.517  74.3340  0.00  0.00     0.000 O
ATOM     47   O  A00 X   3      10.376  52.835  78.2900  0.00  0.00     0.000 O
ATOM     49  HD  A00 X   3      10.464  53.668  78.0700  0.00  0.00     0.000 HD
BRANCH 42 49
ATOM     49   O  A00 X   3       9.362  51.593  75.7000  0.00  0.00     0.000 O
ATOM     50   O  A00 X   3       7.176  50.771  76.2260  0.00  0.00     0.000 OA
ATOM     51   O  A00 X   3       9.006  49.275  76.2990  0.00  0.00     0.000 OA
ATOM     52   O  A00 X   3       8.321  50.117  74.1990  0.00  0.00     0.000 OA
ATOM     53   S  A00 X   3       8.397  50.376  75.5950  0.00  0.00     0.000 S
ENDBRANCH 42 49
BRANCH 45 54
ATOM     54   C  A00 X   3      13.762  53.577  75.5760  0.00  0.00     0.000 C
ATOM     55   O  A00 X   3      14.659  53.496  74.7620  0.00  0.00     0.000 OA
ATOM     56   O  A00 X   3      14.048  53.580  76.7630  0.00  0.00     0.000 OA
ENDBRANCH 45 54
BRANCH 41 57
ATOM     57  O4  A00 X   4      12.853  50.554  75.3750  0.00  0.00     0.000 O
BRANCH 57 61
ATOM     58  C1  A00 X   4      15.339  47.682  73.3230  0.00  0.00     0.000 C
ATOM     59  C2  A00 X   4      15.454  49.176  72.9310  0.00  0.00     0.000 C
ATOM     60  C3  A00 X   4      14.805  50.131  73.9520  0.00  0.00     0.000 C
ATOM     61  C4  A00 X   4      13.387  49.668  74.3500  0.00  0.00     0.000 C
ATOM     62  C5  A00 X   4      13.539  48.232  74.9090  0.00  0.00     0.000 C
ATOM     63  O5  A00 X   4      14.036  47.361  73.8610  0.00  0.00     0.000 O
BRANCH 59 66
ATOM     64   N  A00 X   4      15.454  50.179  71.8510  0.00  0.00     0.000 N
ATOM     66  HD  A00 X   4      14.702  50.336  71.4500  0.00  0.00     0.000 HD
ATOM     66   O  A00 X   4      16.717  48.611  70.5290  0.00  0.00     0.000 OA
ATOM     67   S  A00 X   4      16.520  50.020  70.6690  0.00  0.00     0.000 S
ATOM     68   O  A00 X   4      15.812  50.653  69.5950  0.00  0.00     0.000 OA
ATOM     69   O  A00 X   4      17.604  50.798  71.1990  0.00  0.00     0.000 OA
ENDBRANCH 59 66
BRANCH 62 70
ATOM     70   C  A00 X   4      12.228  47.629  75.4690  0.00  0.00     0.000 C
ATOM     71   O  A00 X   4      11.263  47.127  78.9220  0.00  0.00     0.000 OA
ATOM     72   O  A00 X   4      11.205  45.657  77.0830  0.00  0.00     0.000 OA
ATOM     73   O  A00 X   4      12.171  47.851  76.8870  0.00  0.00     0.000 O
ATOM     74   O  A00 X   4      13.335  46.163  78.1520  0.00  0.00     0.000 OA
ATOM     75   S  A00 X   4      12.017  46.599  77.8190  0.00  0.00     0.000 S
ENDBRANCH 62 70
ENDBRANCH 57 61
ENDBRANCH 41 57
ENDBRANCH 40 44
ENDBRANCH 20 40
ENDBRANCH 19 23
ENDBRANCH 1 19
TORSDOF 14
ENDMDL
MODEL 45
REMARK VINA RESULT:      -6.1     27.938     32.184
ROOT
ATOM      1  C1  A00 X   1      29.282  46.820  57.2770  0.00  0.00     0.000 C
ATOM      2  C2  A00 X   1      29.227  46.360  58.7580  0.00  0.00     0.000 C
ATOM      3  C3  A00 X   1      29.643  44.877  59.0340  0.00  0.00     0.000 C
ATOM      4  C4  A00 X   1      29.701  43.957  57.7870  0.00  0.00     0.000 C
ATOM      5  C5  A00 X   1      28.843  44.486  56.6380  0.00  0.00     0.000 C
ATOM      6  O5  A00 X   1      29.432  45.762  56.2980  0.00  0.00     0.000 O
ATOM      7   O  A00 X   1      28.694  44.294  59.9240  0.00  0.00     0.000 O
ATOM      9  HD  A00 X   1      28.878  43.700  59.3210  0.00  0.00     0.000 HD
ATOM      9   O  A00 X   1      31.044  43.769  57.3400  0.00  0.00     0.000 O
ATOM     11  HD  A00 X   1      31.228  43.175  56.7380  0.00  0.00     0.000 HD
ENDROOT
BRANCH 2 11
ATOM     11   O  A00 X   1      30.079  47.236  59.5220  0.00  0.00     0.000 O
ATOM     12   O  A00 X   1      30.781  46.696  61.7540  0.00  0.00     0.000 OA
ATOM     13   O  A00 X   1      28.418  47.060  61.3050  0.00  0.00     0.000 OA
ATOM     14   O  A00 X   1      29.959  48.868  61.1870  0.00  0.00     0.000 OA
ATOM     15   S  A00 X   1      29.777  47.449  61.0450  0.00  0.00     0.000 S
ENDBRANCH 2 11
BRANCH 5 16
ATOM     16   C  A00 X   1      27.342  44.563  56.9330  0.00  0.00     0.000 C
ATOM     17   O  A00 X   1      26.890  43.881  57.8300  0.00  0.00     0.000 OA
ATOM     18   O  A00 X   1      26.591  45.284  56.3070  0.00  0.00     0.000 OA
ENDBRANCH 5 16
BRANCH 1 19
ATOM     19  O4  A00 X   2      28.199  47.715  56.9260  0.00  0.00     0.000 O
BRANCH 19 23
ATOM     20  C1  A00 X   2      28.196  51.535  54.9840  0.00  0.00     0.000 C
ATOM     21  C2  A00 X   2      28.797  50.339  54.2070  0.00  0.00     0.000 C
ATOM     22  C3  A00 X   2      28.345  49.000  54.8250  0.00  0.00     0.000 C
ATOM     23  C4  A00 X   2      28.672  48.960  56.3350  0.00  0.00     0.000 C
ATOM     24  C5  A00 X   2      28.033  50.214  56.9920  0.00  0.00     0.000 C
ATOM     25  O5  A00 X   2      28.594  51.401  56.3750  0.00  0.00     0.000 O
ATOM     26   O  A00 X   2      28.871  47.924  54.0300  0.00  0.00     0.000 O
ATOM     28  HD  A00 X   2      29.676  48.242  54.0410  0.00  0.00     0.000 HD
BRANCH 21 30
ATOM     28   N  A00 X   2      29.774  51.260  53.6170  0.00  0.00     0.000 N
ATOM     30  HD  A00 X   2      29.788  50.538  53.1380  0.00  0.00     0.000 HD
ATOM     30   O  A00 X   2      30.290  50.495  51.4710  0.00  0.00     0.000 OA
ATOM     31   S  A00 X   2      30.934  50.664  52.7240  0.00  0.00     0.000 S
ATOM     32   O  A00 X   2      31.940  51.680  52.7540  0.00  0.00     0.000 OA
ATOM     33   O  A00 X   2      31.405  49.479  53.3770  0.00  0.00     0.000 OA
ENDBRANCH 21 30
BRANCH 24 34
ATOM     34   C  A00 X   2      28.018  50.295  58.5370  0.00  0.00     0.000 C
ATOM     35   O  A00 X   2      25.250  51.641  60.4820  0.00  0.00     0.000 OA
ATOM     36   O  A00 X   2      26.978  51.178  59.0030  0.00  0.00     0.000 O
ATOM     37   O  A00 X   2      25.032  49.884  58.9140  0.00  0.00     0.000 OA
ATOM     38   S  A00 X   2      25.873  50.501  59.8940  0.00  0.00     0.000 S
ATOM     39   O  A00 X   2      26.561  49.644  60.8120  0.00  0.00     0.000 OA
ENDBRANCH 24 34
BRANCH 20 40
ATOM     40  O4  A00 X   3      26.772  51.392  54.8760  0.00  0.00     0.000 O
BRANCH 40 44
ATOM     41  C1  A00 X   3      23.162  51.554  54.6250  0.00  0.00     0.000 C
ATOM     42  C2  A00 X   3      24.142  52.041  53.5370  0.00  0.00     0.000 C
ATOM     43  C3  A00 X   3      25.214  52.987  54.1370  0.00  0.00     0.000 C
ATOM     44  C4  A00 X   3      25.917  52.443  55.3740  0.00  0.00     0.000 C
ATOM     45  C5  A00 X   3      24.867  51.980  56.4230  0.00  0.00     0.000 C
ATOM     46  O5  A00 X   3      23.871  51.098  55.8100  0.00  0.00     0.000 O
ATOM     47   O  A00 X   3      26.124  53.569  53.2060  0.00  0.00     0.000 O
ATOM     49  HD  A00 X   3      26.692  53.425  53.8430  0.00  0.00     0.000 HD
BRANCH 42 49
ATOM     49   O  A00 X   3      24.745  50.865  52.9530  0.00  0.00     0.000 O
ATOM     50   O  A00 X   3      26.325  50.410  51.2130  0.00  0.00     0.000 OA
ATOM     51   O  A00 X   3      24.683  52.074  50.8570  0.00  0.00     0.000 OA
ATOM     52   O  A00 X   3      23.991  49.818  50.9910  0.00  0.00     0.000 OA
ATOM     53   S  A00 X   3      24.957  50.772  51.4140  0.00  0.00     0.000 S
ENDBRANCH 42 49
BRANCH 45 54
ATOM     54   C  A00 X   3      24.245  53.167  57.1670  0.00  0.00     0.000 C
ATOM     55   O  A00 X   3      23.396  52.990  58.0160  0.00  0.00     0.000 OA
ATOM     56   O  A00 X   3      24.591  54.312  56.9170  0.00  0.00     0.000 OA
ENDBRANCH 45 54
BRANCH 41 57
ATOM     57  O4  A00 X   4      22.135  52.535  54.8960  0.00  0.00     0.000 O
BRANCH 57 61
ATOM     58  C1  A00 X   4      17.954  52.230  55.9260  0.00  0.00     0.000 C
ATOM     59  C2  A00 X   4      19.009  51.823  56.9840  0.00  0.00     0.000 C
ATOM     60  C3  A00 X   4      20.435  52.306  56.6480  0.00  0.00     0.000 C
ATOM     61  C4  A00 X   4      20.818  51.986  55.1870  0.00  0.00     0.000 C
ATOM     62  C5  A00 X   4      19.747  52.664  54.2970  0.00  0.00     0.000 C
ATOM     63  O5  A00 X   4      18.451  52.075  54.5770  0.00  0.00     0.000 O
BRANCH 59 66
ATOM     64   N  A00 X   4      19.430  50.605  57.6980  0.00  0.00     0.000 N
ATOM     66  HD  A00 X   4      19.611  49.904  57.2220  0.00  0.00     0.000 HD
ATOM     66   O  A00 X   4      17.170  50.419  58.5090  0.00  0.00     0.000 OA
ATOM     67   S  A00 X   4      18.503  50.063  58.8840  0.00  0.00     0.000 S
ATOM     68   O  A00 X   4      18.805  48.662  58.8290  0.00  0.00     0.000 OA
ATOM     69   O  A00 X   4      19.091  50.748  59.9990  0.00  0.00     0.000 OA
ENDBRANCH 59 66
BRANCH 62 70
ATOM     70   C  A00 X   4      20.021  52.548  52.7780  0.00  0.00     0.000 C
ATOM     71   O  A00 X   4      17.841  51.292  50.1750  0.00  0.00     0.000 OA
ATOM     72   O  A00 X   4      20.091  50.797  50.6640  0.00  0.00     0.000 OA
ATOM     73   O  A00 X   4      18.797  52.231  52.0970  0.00  0.00     0.000 O
ATOM     74   O  A00 X   4      18.323  49.869  52.0610  0.00  0.00     0.000 OA
ATOM     75   S  A00 X   4      18.762  50.933  51.2170  0.00  0.00     0.000 S
ENDBRANCH 62 70
ENDBRANCH 57 61
ENDBRANCH 41 57
ENDBRANCH 40 44
ENDBRANCH 20 40
ENDBRANCH 19 23
ENDBRANCH 1 19
TORSDOF 14
ENDMDL
MODEL 46
REMARK VINA RESULT:      -6.1     28.553     33.641
ROOT
ATOM      1  C1  A00 X   1      24.713  52.163  57.3280  0.00  0.00     0.000 C
ATOM      2  C2  A00 X   1      25.844  53.225  57.3810  0.00  0.00     0.000 C
ATOM      3  C3  A00 X   1      27.006  52.943  58.3890  0.00  0.00     0.000 C
ATOM      4  C4  A00 X   1      26.716  51.857  59.4570  0.00  0.00     0.000 C
ATOM      5  C5  A00 X   1      25.217  51.654  59.6810  0.00  0.00     0.000 C
ATOM      6  O5  A00 X   1      24.714  51.194  58.4060  0.00  0.00     0.000 O
ATOM      7   O  A00 X   1      27.295  54.144  59.1010  0.00  0.00     0.000 O
ATOM      9  HD  A00 X   1      27.322  53.495  59.6740  0.00  0.00     0.000 HD
ATOM      9   O  A00 X   1      27.325  50.613  59.1140  0.00  0.00     0.000 O
ATOM     11  HD  A00 X   1      27.352  49.963  59.6870  0.00  0.00     0.000 HD
ENDROOT
BRANCH 2 11
ATOM     11   O  A00 X   1      26.393  53.347  56.0540  0.00  0.00     0.000 O
ATOM     12   O  A00 X   1      28.064  54.986  55.5160  0.00  0.00     0.000 OA
ATOM     13   O  A00 X   1      25.850  55.724  56.2040  0.00  0.00     0.000 OA
ATOM     14   O  A00 X   1      26.160  54.628  54.1160  0.00  0.00     0.000 OA
ATOM     15   S  A00 X   1      26.639  54.778  55.4640  0.00  0.00     0.000 S
ENDBRANCH 2 11
BRANCH 5 16
ATOM     16   C  A00 X   1      24.473  52.876  60.2290  0.00  0.00     0.000 C
ATOM     17   O  A00 X   1      23.265  52.822  60.3330  0.00  0.00     0.000 OA
ATOM     18   O  A00 X   1      25.048  53.890  60.5700  0.00  0.00     0.000 OA
ENDBRANCH 5 16
BRANCH 1 19
ATOM     19  O4  A00 X   2      23.401  52.749  57.1450  0.00  0.00     0.000 O
BRANCH 19 23
ATOM     20  C1  A00 X   2      19.773  50.621  56.3210  0.00  0.00     0.000 C
ATOM     21  C2  A00 X   2      19.852  51.411  57.6500  0.00  0.00     0.000 C
ATOM     22  C3  A00 X   2      20.997  52.445  57.6070  0.00  0.00     0.000 C
ATOM     23  C4  A00 X   2      22.332  51.763  57.2340  0.00  0.00     0.000 C
ATOM     24  C5  A00 X   2      22.117  50.995  55.9020  0.00  0.00     0.000 C
ATOM     25  O5  A00 X   2      21.070  50.008  56.0960  0.00  0.00     0.000 O
ATOM     26   O  A00 X   2      20.985  53.197  58.8330  0.00  0.00     0.000 O
ATOM     28  HD  A00 X   2      20.961  52.486  59.3270  0.00  0.00     0.000 HD
BRANCH 21 30
ATOM     28   N  A00 X   2      18.443  51.801  57.7590  0.00  0.00     0.000 N
ATOM     30  HD  A00 X   2      18.617  51.296  58.4410  0.00  0.00     0.000 HD
ATOM     30   O  A00 X   2      17.734  51.359  59.9410  0.00  0.00     0.000 OA
ATOM     31   S  A00 X   2      17.472  50.902  58.6230  0.00  0.00     0.000 S
ATOM     32   O  A00 X   2      16.173  51.224  58.1180  0.00  0.00     0.000 OA
ATOM     33   O  A00 X   2      17.792  49.535  58.3340  0.00  0.00     0.000 OA
ENDBRANCH 21 30
BRANCH 24 34
ATOM     34   C  A00 X   2      23.361  50.413  55.1900  0.00  0.00     0.000 C
ATOM     35   O  A00 X   2      24.183  51.022  51.6960  0.00  0.00     0.000 OA
ATOM     36   O  A00 X   2      23.242  50.522  53.7570  0.00  0.00     0.000 O
ATOM     37   O  A00 X   2      23.837  52.735  53.2890  0.00  0.00     0.000 OA
ATOM     38   S  A00 X   2      24.333  51.413  53.0590  0.00  0.00     0.000 S
ATOM     39   O  A00 X   2      25.586  51.061  53.6560  0.00  0.00     0.000 OA
ENDBRANCH 24 34
BRANCH 20 40
ATOM     40  O4  A00 X   3      19.523  51.600  55.3020  0.00  0.00     0.000 O
BRANCH 40 44
ATOM     41  C1  A00 X   3      19.746  53.233  52.0760  0.00  0.00     0.000 C
ATOM     42  C2  A00 X   3      18.754  53.623  53.1930  0.00  0.00     0.000 C
ATOM     43  C3  A00 X   3      17.983  52.381  53.7090  0.00  0.00     0.000 C
ATOM     44  C4  A00 X   3      18.866  51.197  54.0820  0.00  0.00     0.000 C
ATOM     45  C5  A00 X   3      19.830  50.863  52.9090  0.00  0.00     0.000 C
ATOM     46  O5  A00 X   3      20.528  52.065  52.4470  0.00  0.00     0.000 O
ATOM     47   O  A00 X   3      16.974  52.635  54.6850  0.00  0.00     0.000 O
ATOM     49  HD  A00 X   3      17.278  51.900  55.0270  0.00  0.00     0.000 HD
BRANCH 42 49
ATOM     49   O  A00 X   3      19.525  54.241  54.2470  0.00  0.00     0.000 O
ATOM     50   O  A00 X   3      19.082  55.127  56.4270  0.00  0.00     0.000 OA
ATOM     51   O  A00 X   3      17.556  55.581  54.6790  0.00  0.00     0.000 OA
ATOM     52   O  A00 X   3      19.705  56.559  54.5800  0.00  0.00     0.000 OA
ATOM     53   S  A00 X   3      18.945  55.449  55.0410  0.00  0.00     0.000 S
ENDBRANCH 42 49
BRANCH 45 54
ATOM     54   C  A00 X   3      19.113  50.111  51.7810  0.00  0.00     0.000 C
ATOM     55   O  A00 X   3      19.746  49.506  50.9410  0.00  0.00     0.000 OA
ATOM     56   O  A00 X   3      17.894  50.110  51.7070  0.00  0.00     0.000 OA
ENDBRANCH 45 54
BRANCH 41 57
ATOM     57  O4  A00 X   4      19.089  53.117  50.7950  0.00  0.00     0.000 O
BRANCH 57 61
ATOM     58  C1  A00 X   4      20.566  53.210  46.7390  0.00  0.00     0.000 C
ATOM     59  C2  A00 X   4      21.166  52.175  47.7230  0.00  0.00     0.000 C
ATOM     60  C3  A00 X   4      20.331  51.990  49.0060  0.00  0.00     0.000 C
ATOM     61  C4  A00 X   4      19.943  53.344  49.6380  0.00  0.00     0.000 C
ATOM     62  C5  A00 X   4      19.173  54.130  48.5480  0.00  0.00     0.000 C
ATOM     63  O5  A00 X   4      20.056  54.377  47.4240  0.00  0.00     0.000 O
BRANCH 59 66
ATOM     64   N  A00 X   4      21.710  50.811  47.6020  0.00  0.00     0.000 N
ATOM     66  HD  A00 X   4      22.103  50.473  48.2960  0.00  0.00     0.000 HD
ATOM     66   O  A00 X   4      23.390  51.719  46.1340  0.00  0.00     0.000 OA
ATOM     67   S  A00 X   4      22.695  50.494  46.3820  0.00  0.00     0.000 S
ATOM     68   O  A00 X   4      23.484  49.442  46.9530  0.00  0.00     0.000 OA
ATOM     69   O  A00 X   4      21.748  50.051  45.3990  0.00  0.00     0.000 OA
ENDBRANCH 59 66
BRANCH 62 70
ATOM     70   C  A00 X   4      18.600  55.484  49.0300  0.00  0.00     0.000 C
ATOM     71   O  A00 X   4      16.093  56.105  51.5670  0.00  0.00     0.000 OA
ATOM     72   O  A00 X   4      16.283  56.920  49.3660  0.00  0.00     0.000 OA
ATOM     73   O  A00 X   4      17.817  55.273  50.2160  0.00  0.00     0.000 O
ATOM     74   O  A00 X   4      15.544  54.628  49.7410  0.00  0.00     0.000 OA
ATOM     75   S  A00 X   4      16.319  55.737  50.1970  0.00  0.00     0.000 S
ENDBRANCH 62 70
ENDBRANCH 57 61
ENDBRANCH 41 57
ENDBRANCH 40 44
ENDBRANCH 20 40
ENDBRANCH 19 23
ENDBRANCH 1 19
TORSDOF 14
ENDMDL
MODEL 47
REMARK VINA RESULT:      -6.1     16.743     21.825
ROOT
ATOM      1  C1  A00 X   1      24.519  43.433  62.5130  0.00  0.00     0.000 C
ATOM      2  C2  A00 X   1      25.954  44.003  62.3580  0.00  0.00     0.000 C
ATOM      3  C3  A00 X   1      26.776  43.472  61.1380  0.00  0.00     0.000 C
ATOM      4  C4  A00 X   1      26.216  42.196  60.4580  0.00  0.00     0.000 C
ATOM      5  C5  A00 X   1      25.314  41.392  61.3950  0.00  0.00     0.000 C
ATOM      6  O5  A00 X   1      24.212  42.278  61.6930  0.00  0.00     0.000 O
ATOM      7   O  A00 X   1      28.094  43.151  61.5780  0.00  0.00     0.000 O
ATOM      9  HD  A00 X   1      27.846  42.523  61.0360  0.00  0.00     0.000 HD
ATOM      9   O  A00 X   1      25.508  42.510  59.2600  0.00  0.00     0.000 O
ATOM     11  HD  A00 X   1      25.261  41.883  58.7170  0.00  0.00     0.000 HD
ENDROOT
BRANCH 2 11
ATOM     11   O  A00 X   1      25.849  45.437  62.2650  0.00  0.00     0.000 O
ATOM     12   O  A00 X   1      27.717  46.809  61.6350  0.00  0.00     0.000 OA
ATOM     13   O  A00 X   1      27.822  45.530  63.7010  0.00  0.00     0.000 OA
ATOM     14   O  A00 X   1      26.322  47.364  63.4950  0.00  0.00     0.000 OA
ATOM     15   S  A00 X   1      27.027  46.320  62.8020  0.00  0.00     0.000 S
ENDBRANCH 2 11
BRANCH 5 16
ATOM     16   C  A00 X   1      26.008  40.835  62.6430  0.00  0.00     0.000 C
ATOM     17   O  A00 X   1      25.321  40.393  63.5400  0.00  0.00     0.000 OA
ATOM     18   O  A00 X   1      27.216  40.815  62.7620  0.00  0.00     0.000 OA
ENDBRANCH 5 16
BRANCH 1 19
ATOM     19  O4  A00 X   2      24.149  43.212  63.8960  0.00  0.00     0.000 O
BRANCH 19 23
ATOM     20  C1  A00 X   2      23.732  45.935  67.1790  0.00  0.00     0.000 C
ATOM     21  C2  A00 X   2      22.895  46.215  65.9080  0.00  0.00     0.000 C
ATOM     22  C3  A00 X   2      22.814  44.959  65.0150  0.00  0.00     0.000 C
ATOM     23  C4  A00 X   2      24.229  44.426  64.6960  0.00  0.00     0.000 C
ATOM     24  C5  A00 X   2      24.968  44.205  66.0450  0.00  0.00     0.000 C
ATOM     25  O5  A00 X   2      25.040  45.471  66.7510  0.00  0.00     0.000 O
ATOM     26   O  A00 X   2      21.972  45.248  63.8870  0.00  0.00     0.000 O
ATOM     28  HD  A00 X   2      22.394  45.980  63.6960  0.00  0.00     0.000 HD
BRANCH 21 30
ATOM     28   N  A00 X   2      22.605  47.440  66.6600  0.00  0.00     0.000 N
ATOM     30  HD  A00 X   2      22.363  47.585  65.8410  0.00  0.00     0.000 HD
ATOM     30   O  A00 X   2      21.151  48.750  65.3830  0.00  0.00     0.000 OA
ATOM     31   S  A00 X   2      22.484  48.804  65.8700  0.00  0.00     0.000 S
ATOM     32   O  A00 X   2      22.722  49.797  66.8710  0.00  0.00     0.000 OA
ATOM     33   O  A00 X   2      23.532  48.822  64.8930  0.00  0.00     0.000 OA
ENDBRANCH 21 30
BRANCH 24 34
ATOM     34   C  A00 X   2      26.323  43.459  66.0150  0.00  0.00     0.000 C
ATOM     35   O  A00 X   2      27.258  40.835  68.3590  0.00  0.00     0.000 OA
ATOM     36   O  A00 X   2      26.553  42.746  67.2470  0.00  0.00     0.000 O
ATOM     37   O  A00 X   2      25.309  40.778  67.0220  0.00  0.00     0.000 OA
ATOM     38   S  A00 X   2      26.678  41.185  67.1050  0.00  0.00     0.000 S
ATOM     39   O  A00 X   2      27.511  40.948  65.9640  0.00  0.00     0.000 OA
ENDBRANCH 24 34
BRANCH 20 40
ATOM     40  O4  A00 X   3      23.050  44.877  67.8680  0.00  0.00     0.000 O
BRANCH 40 44
ATOM     41  C1  A00 X   3      21.350  42.825  70.3220  0.00  0.00     0.000 C
ATOM     42  C2  A00 X   3      21.303  44.368  70.2810  0.00  0.00     0.000 C
ATOM     43  C3  A00 X   3      22.731  44.964  70.1940  0.00  0.00     0.000 C
ATOM     44  C4  A00 X   3      23.603  44.363  69.0990  0.00  0.00     0.000 C
ATOM     45  C5  A00 X   3      23.604  42.813  69.2090  0.00  0.00     0.000 C
ATOM     46  O5  A00 X   3      22.237  42.294  69.2990  0.00  0.00     0.000 O
ATOM     47   O  A00 X   3      22.816  46.387  70.2380  0.00  0.00     0.000 O
ATOM     49  HD  A00 X   3      23.434  46.256  69.6450  0.00  0.00     0.000 HD
BRANCH 42 49
ATOM     49   O  A00 X   3      20.506  44.736  69.1340  0.00  0.00     0.000 O
ATOM     50   O  A00 X   3      19.973  46.761  67.9730  0.00  0.00     0.000 OA
ATOM     51   O  A00 X   3      20.013  46.777  70.3370  0.00  0.00     0.000 OA
ATOM     52   O  A00 X   3      18.309  45.555  69.2470  0.00  0.00     0.000 OA
ATOM     53   S  A00 X   3      19.645  46.033  69.1580  0.00  0.00     0.000 S
ENDBRANCH 42 49
BRANCH 45 54
ATOM     54   C  A00 X   3      24.509  42.325  70.3460  0.00  0.00     0.000 C
ATOM     55   O  A00 X   3      24.656  41.138  70.5550  0.00  0.00     0.000 OA
ATOM     56   O  A00 X   3      25.098  43.121  71.0620  0.00  0.00     0.000 OA
ENDBRANCH 45 54
BRANCH 41 57
ATOM     57  O4  A00 X   4      21.628  42.334  71.6520  0.00  0.00     0.000 O
BRANCH 57 61
ATOM     58  C1  A00 X   4      20.631  38.559  73.4940  0.00  0.00     0.000 C
ATOM     59  C2  A00 X   4      21.017  38.573  71.9940  0.00  0.00     0.000 C
ATOM     60  C3  A00 X   4      21.690  39.886  71.5440  0.00  0.00     0.000 C
ATOM     61  C4  A00 X   4      20.909  41.126  72.0290  0.00  0.00     0.000 C
ATOM     62  C5  A00 X   4      20.824  41.012  73.5720  0.00  0.00     0.000 C
ATOM     63  O5  A00 X   4      20.071  39.822  73.9210  0.00  0.00     0.000 O
BRANCH 59 66
ATOM     64   N  A00 X   4      21.390  37.829  70.7770  0.00  0.00     0.000 N
ATOM     66  HD  A00 X   4      21.096  38.128  70.0190  0.00  0.00     0.000 HD
ATOM     66   O  A00 X   4      19.930  36.067  71.5280  0.00  0.00     0.000 OA
ATOM     67   S  A00 X   4      21.103  36.256  70.7340  0.00  0.00     0.000 S
ATOM     68   O  A00 X   4      20.932  36.063  69.3230  0.00  0.00     0.000 OA
ATOM     69   O  A00 X   4      22.347  35.757  71.2490  0.00  0.00     0.000 OA
ENDBRANCH 59 66
BRANCH 62 70
ATOM     70   C  A00 X   4      20.164  42.231  74.2600  0.00  0.00     0.000 C
ATOM     71   O  A00 X   4      19.873  42.947  77.7970  0.00  0.00     0.000 OA
ATOM     72   O  A00 X   4      18.256  42.983  76.0860  0.00  0.00     0.000 OA
ATOM     73   O  A00 X   4      20.498  42.225  75.6570  0.00  0.00     0.000 O
ATOM     74   O  A00 X   4      19.023  40.846  76.9730  0.00  0.00     0.000 OA
ATOM     75   S  A00 X   4      19.320  42.214  76.6930  0.00  0.00     0.000 S
ENDBRANCH 62 70
ENDBRANCH 57 61
ENDBRANCH 41 57
ENDBRANCH 40 44
ENDBRANCH 20 40
ENDBRANCH 19 23
ENDBRANCH 1 19
TORSDOF 14
ENDMDL
MODEL 48
REMARK VINA RESULT:      -6.1     25.557     30.363
ROOT
ATOM      1  C1  A00 X   1      18.591  53.667  60.5720  0.00  0.00     0.000 C
ATOM      2  C2  A00 X   1      17.637  52.467  60.3270  0.00  0.00     0.000 C
ATOM      3  C3  A00 X   1      16.134  52.700  60.6910  0.00  0.00     0.000 C
ATOM      4  C4  A00 X   1      15.844  53.938  61.5780  0.00  0.00     0.000 C
ATOM      5  C5  A00 X   1      17.074  54.381  62.3710  0.00  0.00     0.000 C
ATOM      6  O5  A00 X   1      18.045  54.749  61.3660  0.00  0.00     0.000 O
ATOM      7   O  A00 X   1      15.657  51.566  61.4110  0.00  0.00     0.000 O
ATOM      9  HD  A00 X   1      15.332  52.269  61.7990  0.00  0.00     0.000 HD
ATOM      9   O  A00 X   1      15.351  55.031  60.8030  0.00  0.00     0.000 O
ATOM     11  HD  A00 X   1      15.027  55.734  61.1900  0.00  0.00     0.000 HD
ENDROOT
BRANCH 2 11
ATOM     11   O  A00 X   1      17.733  52.107  58.9350  0.00  0.00     0.000 O
ATOM     12   O  A00 X   1      16.181  50.591  57.9060  0.00  0.00     0.000 OA
ATOM     13   O  A00 X   1      17.637  49.783  59.6790  0.00  0.00     0.000 OA
ATOM     14   O  A00 X   1      18.539  50.397  57.5660  0.00  0.00     0.000 OA
ATOM     15   S  A00 X   1      17.485  50.617  58.5190  0.00  0.00     0.000 S
ENDBRANCH 2 11
BRANCH 5 16
ATOM     16   C  A00 X   1      17.597  53.355  63.3810  0.00  0.00     0.000 C
ATOM     17   O  A00 X   1      18.675  53.550  63.9030  0.00  0.00     0.000 OA
ATOM     18   O  A00 X   1      16.969  52.360  63.6840  0.00  0.00     0.000 OA
ENDBRANCH 5 16
BRANCH 1 19
ATOM     19  O4  A00 X   2      19.893  53.258  61.0590  0.00  0.00     0.000 O
BRANCH 19 23
ATOM     20  C1  A00 X   2      21.945  54.706  57.5860  0.00  0.00     0.000 C
ATOM     21  C2  A00 X   2      21.976  53.181  57.8510  0.00  0.00     0.000 C
ATOM     22  C3  A00 X   2      20.869  52.773  58.8460  0.00  0.00     0.000 C
ATOM     23  C4  A00 X   2      20.968  53.609  60.1420  0.00  0.00     0.000 C
ATOM     24  C5  A00 X   2      20.946  55.110  59.7420  0.00  0.00     0.000 C
ATOM     25  O5  A00 X   2      22.073  55.377  58.8680  0.00  0.00     0.000 O
ATOM     26   O  A00 X   2      20.895  51.344  59.0050  0.00  0.00     0.000 O
ATOM     28  HD  A00 X   2      21.747  51.327  59.1580  0.00  0.00     0.000 HD
BRANCH 21 30
ATOM     28   N  A00 X   2      23.333  53.149  57.2980  0.00  0.00     0.000 N
ATOM     30  HD  A00 X   2      23.051  52.331  57.3160  0.00  0.00     0.000 HD
ATOM     30   O  A00 X   2      23.649  51.079  56.2630  0.00  0.00     0.000 OA
ATOM     31   S  A00 X   2      24.153  51.800  57.3770  0.00  0.00     0.000 S
ATOM     32   O  A00 X   2      25.514  52.223  57.2560  0.00  0.00     0.000 OA
ATOM     33   O  A00 X   2      23.920  51.238  58.6740  0.00  0.00     0.000 OA
ENDBRANCH 21 30
BRANCH 24 34
ATOM     34   C  A00 X   2      20.802  56.159  60.8690  0.00  0.00     0.000 C
ATOM     35   O  A00 X   2      19.447  59.504  60.3820  0.00  0.00     0.000 OA
ATOM     36   O  A00 X   2      20.579  57.478  60.3300  0.00  0.00     0.000 O
ATOM     37   O  A00 X   2      18.298  57.517  59.8130  0.00  0.00     0.000 OA
ATOM     38   S  A00 X   2      19.208  58.141  60.7240  0.00  0.00     0.000 S
ATOM     39   O  A00 X   2      19.025  57.889  62.1220  0.00  0.00     0.000 OA
ENDBRANCH 24 34
BRANCH 20 40
ATOM     40  O4  A00 X   3      20.650  54.977  57.0300  0.00  0.00     0.000 O
BRANCH 40 44
ATOM     41  C1  A00 X   3      17.773  55.814  54.9940  0.00  0.00     0.000 C
ATOM     42  C2  A00 X   3      18.997  55.013  54.5010  0.00  0.00     0.000 C
ATOM     43  C3  A00 X   3      20.318  55.752  54.8380  0.00  0.00     0.000 C
ATOM     44  C4  A00 X   3      20.441  56.198  56.2890  0.00  0.00     0.000 C
ATOM     45  C5  A00 X   3      19.178  57.000  56.7090  0.00  0.00     0.000 C
ATOM     46  O5  A00 X   3      17.956  56.271  56.3630  0.00  0.00     0.000 O
ATOM     47   O  A00 X   3      21.513  55.145  54.3520  0.00  0.00     0.000 O
ATOM     49  HD  A00 X   3      21.822  55.401  55.1190  0.00  0.00     0.000 HD
BRANCH 42 49
ATOM     49   O  A00 X   3      18.940  53.718  55.1380  0.00  0.00     0.000 O
ATOM     50   O  A00 X   3      19.060  51.433  54.4330  0.00  0.00     0.000 OA
ATOM     51   O  A00 X   3      17.810  52.963  53.1350  0.00  0.00     0.000 OA
ATOM     52   O  A00 X   3      17.008  52.390  55.2840  0.00  0.00     0.000 OA
ATOM     53   S  A00 X   3      18.164  52.546  54.4690  0.00  0.00     0.000 S
ENDBRANCH 42 49
BRANCH 45 54
ATOM     54   C  A00 X   3      19.203  58.430  56.1550  0.00  0.00     0.000 C
ATOM     55   O  A00 X   3      20.067  58.776  55.3740  0.00  0.00     0.000 OA
ATOM     56   O  A00 X   3      18.358  59.246  56.4900  0.00  0.00     0.000 OA
ENDBRANCH 45 54
BRANCH 41 57
ATOM     57  O4  A00 X   4      17.415  56.865  54.0680  0.00  0.00     0.000 O
BRANCH 57 61
ATOM     58  C1  A00 X   4      13.635  58.501  52.7730  0.00  0.00     0.000 C
ATOM     59  C2  A00 X   4      14.113  58.791  54.2180  0.00  0.00     0.000 C
ATOM     60  C3  A00 X   4      15.604  58.473  54.4480  0.00  0.00     0.000 C
ATOM     61  C4  A00 X   4      15.984  57.080  53.9020  0.00  0.00     0.000 C
ATOM     62  C5  A00 X   4      15.614  57.086  52.3980  0.00  0.00     0.000 C
ATOM     63  O5  A00 X   4      14.181  57.265  52.2600  0.00  0.00     0.000 O
BRANCH 59 66
ATOM     64   N  A00 X   4      13.064  57.771  54.3980  0.00  0.00     0.000 N
ATOM     66  HD  A00 X   4      12.742  57.398  53.6860  0.00  0.00     0.000 HD
ATOM     66   O  A00 X   4      11.587  59.551  55.0690  0.00  0.00     0.000 OA
ATOM     67   S  A00 X   4      11.781  58.150  55.2750  0.00  0.00     0.000 S
ATOM     68   O  A00 X   4      10.797  57.296  54.6770  0.00  0.00     0.000 OA
ATOM     69   O  A00 X   4      12.224  57.719  56.5710  0.00  0.00     0.000 OA
ENDBRANCH 59 66
BRANCH 62 70
ATOM     70   C  A00 X   4      16.025  55.801  51.6410  0.00  0.00     0.000 C
ATOM     71   O  A00 X   4      18.949  55.222  49.5870  0.00  0.00     0.000 OA
ATOM     72   O  A00 X   4      16.672  54.792  49.1700  0.00  0.00     0.000 OA
ATOM     73   O  A00 X   4      17.372  55.940  51.1640  0.00  0.00     0.000 O
ATOM     74   O  A00 X   4      17.508  57.077  49.0440  0.00  0.00     0.000 OA
ATOM     75   S  A00 X   4      17.626  55.779  49.6250  0.00  0.00     0.000 S
ENDBRANCH 62 70
ENDBRANCH 57 61
ENDBRANCH 41 57
ENDBRANCH 40 44
ENDBRANCH 20 40
ENDBRANCH 19 23
ENDBRANCH 1 19
TORSDOF 14
ENDMDL
MODEL 49
REMARK VINA RESULT:      -6.0     11.488     16.797
ROOT
ATOM      1  C1  A00 X   1       8.549  50.734  74.7670  0.00  0.00     0.000 C
ATOM      2  C2  A00 X   1       7.906  52.059  75.2540  0.00  0.00     0.000 C
ATOM      3  C3  A00 X   1       6.343  52.088  75.3010  0.00  0.00     0.000 C
ATOM      4  C4  A00 X   1       5.629  50.953  74.5240  0.00  0.00     0.000 C
ATOM      5  C5  A00 X   1       6.518  50.353  73.4340  0.00  0.00     0.000 C
ATOM      6  O5  A00 X   1       7.642  49.789  74.1460  0.00  0.00     0.000 O
ATOM      7   O  A00 X   1       5.891  53.315  74.7320  0.00  0.00     0.000 O
ATOM      9  HD  A00 X   1       5.364  52.691  74.4450  0.00  0.00     0.000 HD
ATOM      9   O  A00 X   1       5.180  49.921  75.4020  0.00  0.00     0.000 O
ATOM     11  HD  A00 X   1       4.653  49.297  75.1150  0.00  0.00     0.000 HD
ENDROOT
BRANCH 2 11
ATOM     11   O  A00 X   1       8.421  52.338  76.5700  0.00  0.00     0.000 O
ATOM     12   O  A00 X   1       7.378  53.936  78.0300  0.00  0.00     0.000 OA
ATOM     13   O  A00 X   1       8.358  54.697  75.9370  0.00  0.00     0.000 OA
ATOM     14   O  A00 X   1       9.745  53.897  77.6970  0.00  0.00     0.000 OA
ATOM     15   S  A00 X   1       8.451  53.822  77.0740  0.00  0.00     0.000 S
ENDBRANCH 2 11
BRANCH 5 16
ATOM     16   C  A00 X   1       6.922  51.324  72.3200  0.00  0.00     0.000 C
ATOM     17   O  A00 X   1       7.792  50.988  71.5440  0.00  0.00     0.000 OA
ATOM     18   O  A00 X   1       6.399  52.412  72.1820  0.00  0.00     0.000 OA
ENDBRANCH 5 16
BRANCH 1 19
ATOM     19  O4  A00 X   2       9.727  50.947  73.9520  0.00  0.00     0.000 O
BRANCH 19 23
ATOM     20  C1  A00 X   2      13.863  51.280  75.0250  0.00  0.00     0.000 C
ATOM     21  C2  A00 X   2      13.086  50.048  75.5480  0.00  0.00     0.000 C
ATOM     22  C3  A00 X   2      11.783  49.840  74.7490  0.00  0.00     0.000 C
ATOM     23  C4  A00 X   2      10.932  51.130  74.7490  0.00  0.00     0.000 C
ATOM     24  C5  A00 X   2      11.826  52.287  74.2240  0.00  0.00     0.000 C
ATOM     25  O5  A00 X   2      12.974  52.426  75.1010  0.00  0.00     0.000 O
ATOM     26   O  A00 X   2      11.134  48.648  75.2250  0.00  0.00     0.000 O
ATOM     28  HD  A00 X   2      11.187  48.891  76.0550  0.00  0.00     0.000 HD
BRANCH 21 30
ATOM     28   N  A00 X   2      13.887  50.106  76.7750  0.00  0.00     0.000 N
ATOM     30  HD  A00 X   2      13.514  49.325  76.7560  0.00  0.00     0.000 HD
ATOM     30   O  A00 X   2      14.159  47.927  77.5700  0.00  0.00     0.000 OA
ATOM     31   S  A00 X   2      13.523  49.133  77.9660  0.00  0.00     0.000 S
ATOM     32   O  A00 X   2      14.096  49.770  79.1110  0.00  0.00     0.000 OA
ATOM     33   O  A00 X   2      12.095  49.109  78.0720  0.00  0.00     0.000 OA
ENDBRANCH 21 30
BRANCH 24 34
ATOM     34   C  A00 X   2      11.148  53.642  73.9090  0.00  0.00     0.000 C
ATOM     35   O  A00 X   2      12.000  55.735  71.0540  0.00  0.00     0.000 OA
ATOM     36   O  A00 X   2      11.914  54.399  72.9500  0.00  0.00     0.000 O
ATOM     37   O  A00 X   2      11.336  53.472  70.8820  0.00  0.00     0.000 OA
ATOM     38   S  A00 X   2      11.178  54.703  71.5940  0.00  0.00     0.000 S
ATOM     39   O  A00 X   2       9.847  55.104  71.9370  0.00  0.00     0.000 OA
ENDBRANCH 24 34
BRANCH 20 40
ATOM     40  O4  A00 X   3      14.162  50.995  73.6510  0.00  0.00     0.000 O
BRANCH 40 44
ATOM     41  C1  A00 X   3      15.856  50.084  70.5810  0.00  0.00     0.000 C
ATOM     42  C2  A00 X   3      16.264  49.598  71.9890  0.00  0.00     0.000 C
ATOM     43  C3  A00 X   3      16.401  50.791  72.9700  0.00  0.00     0.000 C
ATOM     44  C4  A00 X   3      15.207  51.737  72.9870  0.00  0.00     0.000 C
ATOM     45  C5  A00 X   3      14.862  52.185  71.5390  0.00  0.00     0.000 C
ATOM     46  O5  A00 X   3      14.752  51.029  70.6460  0.00  0.00     0.000 O
ATOM     47   O  A00 X   3      16.859  50.469  74.2810  0.00  0.00     0.000 O
ATOM     49  HD  A00 X   3      16.275  51.066  74.5100  0.00  0.00     0.000 HD
BRANCH 42 49
ATOM     49   O  A00 X   3      15.248  48.669  72.4260  0.00  0.00     0.000 O
ATOM     50   O  A00 X   3      14.818  47.372  74.3920  0.00  0.00     0.000 OA
ATOM     51   O  A00 X   3      17.034  47.513  73.5800  0.00  0.00     0.000 OA
ATOM     52   O  A00 X   3      15.438  46.332  72.2980  0.00  0.00     0.000 OA
ATOM     53   S  A00 X   3      15.642  47.392  73.2240  0.00  0.00     0.000 S
ENDBRANCH 42 49
BRANCH 45 54
ATOM     54   C  A00 X   3      15.837  53.252  71.0270  0.00  0.00     0.000 C
ATOM     55   O  A00 X   3      15.723  53.709  69.9080  0.00  0.00     0.000 OA
ATOM     56   O  A00 X   3      16.746  53.659  71.7340  0.00  0.00     0.000 OA
ENDBRANCH 45 54
BRANCH 41 57
ATOM     57  O4  A00 X   4      16.995  50.562  69.8310  0.00  0.00     0.000 O
BRANCH 57 61
ATOM     58  C1  A00 X   4      18.169  50.173  65.6940  0.00  0.00     0.000 C
ATOM     59  C2  A00 X   4      17.199  51.316  66.0850  0.00  0.00     0.000 C
ATOM     60  C3  A00 X   4      17.138  51.578  67.6040  0.00  0.00     0.000 C
ATOM     61  C4  A00 X   4      16.963  50.270  68.4050  0.00  0.00     0.000 C
ATOM     62  C5  A00 X   4      18.154  49.359  68.0170  0.00  0.00     0.000 C
ATOM     63  O5  A00 X   4      18.078  49.051  66.6020  0.00  0.00     0.000 O
BRANCH 59 66
ATOM     64   N  A00 X   4      16.971  52.688  65.5960  0.00  0.00     0.000 N
ATOM     66  HD  A00 X   4      16.285  53.115  65.9080  0.00  0.00     0.000 HD
ATOM     66   O  A00 X   4      16.375  51.724  63.4710  0.00  0.00     0.000 OA
ATOM     67   S  A00 X   4      16.918  52.929  64.0160  0.00  0.00     0.000 S
ATOM     68   O  A00 X   4      16.057  54.074  63.9580  0.00  0.00     0.000 OA
ATOM     69   O  A00 X   4      18.300  53.218  63.7570  0.00  0.00     0.000 OA
ENDBRANCH 59 66
BRANCH 62 70
ATOM     70   C  A00 X   4      18.216  48.029  68.8070  0.00  0.00     0.000 C
ATOM     71   O  A00 X   4      20.808  45.502  68.7800  0.00  0.00     0.000 OA
ATOM     72   O  A00 X   4      18.473  45.307  68.5500  0.00  0.00     0.000 OA
ATOM     73   O  A00 X   4      19.530  47.463  68.6810  0.00  0.00     0.000 O
ATOM     74   O  A00 X   4      19.800  46.141  66.6850  0.00  0.00     0.000 OA
ATOM     75   S  A00 X   4      19.652  46.012  68.0990  0.00  0.00     0.000 S
ENDBRANCH 62 70
ENDBRANCH 57 61
ENDBRANCH 41 57
ENDBRANCH 40 44
ENDBRANCH 20 40
ENDBRANCH 19 23
ENDBRANCH 1 19
TORSDOF 14
ENDMDL
MODEL 50
REMARK VINA RESULT:      -6.0     10.889     15.925
ROOT
ATOM      1  C1  A00 X   1       7.758  52.848  73.3560  0.00  0.00     0.000 C
ATOM      2  C2  A00 X   1       6.617  51.796  73.3570  0.00  0.00     0.000 C
ATOM      3  C3  A00 X   1       6.683  50.709  72.2340  0.00  0.00     0.000 C
ATOM      4  C4  A00 X   1       7.645  51.020  71.0590  0.00  0.00     0.000 C
ATOM      5  C5  A00 X   1       7.930  52.516  70.9250  0.00  0.00     0.000 C
ATOM      6  O5  A00 X   1       8.581  52.877  72.1630  0.00  0.00     0.000 O
ATOM      7   O  A00 X   1       5.384  50.559  71.6650  0.00  0.00     0.000 O
ATOM      9  HD  A00 X   1       5.953  50.539  71.0120  0.00  0.00     0.000 HD
ATOM      9   O  A00 X   1       8.874  50.305  71.1880  0.00  0.00     0.000 O
ATOM     11  HD  A00 X   1       9.443  50.285  70.5350  0.00  0.00     0.000 HD
ENDROOT
BRANCH 2 11
ATOM     11   O  A00 X   1       6.621  51.145  74.6420  0.00  0.00     0.000 O
ATOM     12   O  A00 X   1       5.379  49.131  75.0500  0.00  0.00     0.000 OA
ATOM     13   O  A00 X   1       4.183  51.178  74.5060  0.00  0.00     0.000 OA
ATOM     14   O  A00 X   1       5.330  50.967  76.5790  0.00  0.00     0.000 OA
ATOM     15   S  A00 X   1       5.279  50.560  75.2010  0.00  0.00     0.000 S
ENDBRANCH 2 11
BRANCH 5 16
ATOM     16   C  A00 X   1       6.708  53.381  70.6000  0.00  0.00     0.000 C
ATOM     17   O  A00 X   1       5.681  52.831  70.2590  0.00  0.00     0.000 OA
ATOM     18   O  A00 X   1       6.728  54.593  70.6780  0.00  0.00     0.000 OA
ENDBRANCH 5 16
BRANCH 1 19
ATOM     19  O4  A00 X   2       7.299  54.175  73.7140  0.00  0.00     0.000 O
BRANCH 19 23
ATOM     20  C1  A00 X   2      10.551  54.880  76.4140  0.00  0.00     0.000 C
ATOM     21  C2  A00 X   2       9.180  54.507  77.0280  0.00  0.00     0.000 C
ATOM     22  C3  A00 X   2       8.256  53.873  75.9670  0.00  0.00     0.000 C
ATOM     23  C4  A00 X   2       8.130  54.797  74.7350  0.00  0.00     0.000 C
ATOM     24  C5  A00 X   2       9.565  55.110  74.2270  0.00  0.00     0.000 C
ATOM     25  O5  A00 X   2      10.303  55.767  75.2900  0.00  0.00     0.000 O
ATOM     26   O  A00 X   2       7.026  53.483  76.6000  0.00  0.00     0.000 O
ATOM     28  HD  A00 X   2       6.914  54.257  76.9740  0.00  0.00     0.000 HD
BRANCH 21 30
ATOM     28   N  A00 X   2       9.018  53.469  78.0510  0.00  0.00     0.000 N
ATOM     30  HD  A00 X   2       9.100  54.223  78.4700  0.00  0.00     0.000 HD
ATOM     30   O  A00 X   2       8.471  54.515  80.0680  0.00  0.00     0.000 OA
ATOM     31   S  A00 X   2       9.539  53.760  79.5150  0.00  0.00     0.000 S
ATOM     32   O  A00 X   2       9.711  52.456  80.0780  0.00  0.00     0.000 OA
ATOM     33   O  A00 X   2      10.804  54.419  79.3920  0.00  0.00     0.000 OA
ENDBRANCH 21 30
BRANCH 24 34
ATOM     34   C  A00 X   2       9.712  55.829  72.8660  0.00  0.00     0.000 C
ATOM     35   O  A00 X   2      12.611  55.500  70.6880  0.00  0.00     0.000 OA
ATOM     36   O  A00 X   2      11.077  55.799  72.4040  0.00  0.00     0.000 O
ATOM     37   O  A00 X   2      11.328  53.672  71.4640  0.00  0.00     0.000 OA
ATOM     38   S  A00 X   2      11.310  55.041  71.0460  0.00  0.00     0.000 S
ATOM     39   O  A00 X   2      10.257  55.452  70.1670  0.00  0.00     0.000 OA
ENDBRANCH 24 34
BRANCH 20 40
ATOM     40  O4  A00 X   3      11.111  53.647  75.9380  0.00  0.00     0.000 O
BRANCH 40 44
ATOM     41  C1  A00 X   3      12.969  50.885  74.5090  0.00  0.00     0.000 C
ATOM     42  C2  A00 X   3      12.357  50.895  75.9270  0.00  0.00     0.000 C
ATOM     43  C3  A00 X   3      12.772  52.172  76.7020  0.00  0.00     0.000 C
ATOM     44  C4  A00 X   3      12.544  53.474  75.9440  0.00  0.00     0.000 C
ATOM     45  C5  A00 X   3      13.191  53.389  74.5330  0.00  0.00     0.000 C
ATOM     46  O5  A00 X   3      12.781  52.164  73.8430  0.00  0.00     0.000 O
ATOM     47   O  A00 X   3      12.335  52.248  78.0570  0.00  0.00     0.000 O
ATOM     49  HD  A00 X   3      12.213  53.081  77.8540  0.00  0.00     0.000 HD
BRANCH 42 49
ATOM     49   O  A00 X   3      10.924  50.814  75.7710  0.00  0.00     0.000 O
ATOM     50   O  A00 X   3       9.021  50.787  77.2230  0.00  0.00     0.000 OA
ATOM     51   O  A00 X   3      10.934  49.536  77.8260  0.00  0.00     0.000 OA
ATOM     52   O  A00 X   3       9.673  48.835  75.9530  0.00  0.00     0.000 OA
ATOM     53   S  A00 X   3      10.074  49.947  76.7440  0.00  0.00     0.000 S
ENDBRANCH 42 49
BRANCH 45 54
ATOM     54   C  A00 X   3      14.713  53.566  74.5950  0.00  0.00     0.000 C
ATOM     55   O  A00 X   3      15.298  53.524  75.6580  0.00  0.00     0.000 OA
ATOM     56   O  A00 X   3      15.362  53.752  73.5770  0.00  0.00     0.000 OA
ENDBRANCH 45 54
BRANCH 41 57
ATOM     57  O4  A00 X   4      14.339  50.425  74.5220  0.00  0.00     0.000 O
BRANCH 57 61
ATOM     58  C1  A00 X   4      16.777  48.384  71.6020  0.00  0.00     0.000 C
ATOM     59  C2  A00 X   4      16.200  49.776  71.2430  0.00  0.00     0.000 C
ATOM     60  C3  A00 X   4      15.664  50.552  72.4630  0.00  0.00     0.000 C
ATOM     61  C4  A00 X   4      14.750  49.674  73.3440  0.00  0.00     0.000 C
ATOM     62  C5  A00 X   4      15.595  48.445  73.7600  0.00  0.00     0.000 C
ATOM     63  O5  A00 X   4      15.960  47.693  72.5740  0.00  0.00     0.000 O
BRANCH 59 66
ATOM     64   N  A00 X   4      15.346  50.482  70.2710  0.00  0.00     0.000 N
ATOM     66  HD  A00 X   4      14.522  50.223  70.2010  0.00  0.00     0.000 HD
ATOM     66   O  A00 X   4      16.632  49.431  68.5280  0.00  0.00     0.000 OA
ATOM     67   S  A00 X   4      15.862  50.612  68.7630  0.00  0.00     0.000 S
ATOM     68   O  A00 X   4      14.610  50.681  68.0670  0.00  0.00     0.000 OA
ATOM     69   O  A00 X   4      16.561  51.863  68.8410  0.00  0.00     0.000 OA
ENDBRANCH 59 66
BRANCH 62 70
ATOM     70   C  A00 X   4      14.880  47.491  74.7470  0.00  0.00     0.000 C
ATOM     71   O  A00 X   4      15.173  47.332  78.3520  0.00  0.00     0.000 OA
ATOM     72   O  A00 X   4      15.292  45.632  76.7260  0.00  0.00     0.000 OA
ATOM     73   O  A00 X   4      15.103  47.944  76.0920  0.00  0.00     0.000 O
ATOM     74   O  A00 X   4      17.177  47.147  77.0240  0.00  0.00     0.000 OA
ATOM     75   S  A00 X   4      15.766  46.945  77.1020  0.00  0.00     0.000 S
ENDBRANCH 62 70
ENDBRANCH 57 61
ENDBRANCH 41 57
ENDBRANCH 40 44
ENDBRANCH 20 40
ENDBRANCH 19 23
ENDBRANCH 1 19
TORSDOF 14
ENDMDL
MODEL 51
REMARK VINA RESULT:      -5.9     31.339     36.015
ROOT
ATOM      1  C1  A00 X   1      30.119  47.318  49.3330  0.00  0.00     0.000 C
ATOM      2  C2  A00 X   1      29.351  46.275  48.4780  0.00  0.00     0.000 C
ATOM      3  C3  A00 X   1      28.843  46.769  47.0840  0.00  0.00     0.000 C
ATOM      4  C4  A00 X   1      28.840  48.306  46.8790  0.00  0.00     0.000 C
ATOM      5  C5  A00 X   1      28.805  49.064  48.2060  0.00  0.00     0.000 C
ATOM      6  O5  A00 X   1      30.030  48.690  48.8760  0.00  0.00     0.000 O
ATOM      7   O  A00 X   1      27.497  46.334  46.9060  0.00  0.00     0.000 O
ATOM      9  HD  A00 X   1      27.544  47.146  46.6090  0.00  0.00     0.000 HD
ATOM      9   O  A00 X   1      29.964  48.732  46.1100  0.00  0.00     0.000 O
ATOM     11  HD  A00 X   1      30.011  49.544  45.8120  0.00  0.00     0.000 HD
ENDROOT
BRANCH 2 11
ATOM     11   O  A00 X   1      30.218  45.140  48.2870  0.00  0.00     0.000 O
ATOM     12   O  A00 X   1      29.413  43.064  47.3860  0.00  0.00     0.000 OA
ATOM     13   O  A00 X   1      28.556  43.845  49.5240  0.00  0.00     0.000 OA
ATOM     14   O  A00 X   1      30.817  43.133  49.3200  0.00  0.00     0.000 OA
ATOM     15   S  A00 X   1      29.685  43.710  48.6450  0.00  0.00     0.000 S
ENDBRANCH 2 11
BRANCH 5 16
ATOM     16   C  A00 X   1      27.548  48.832  49.0520  0.00  0.00     0.000 C
ATOM     17   O  A00 X   1      27.509  49.296  50.1730  0.00  0.00     0.000 OA
ATOM     18   O  A00 X   1      26.591  48.208  48.6390  0.00  0.00     0.000 OA
ENDBRANCH 5 16
BRANCH 1 19
ATOM     19  O4  A00 X   2      29.824  47.212  50.7470  0.00  0.00     0.000 O
BRANCH 19 23
ATOM     20  C1  A00 X   2      32.283  47.990  54.1690  0.00  0.00     0.000 C
ATOM     21  C2  A00 X   2      31.439  49.163  53.6140  0.00  0.00     0.000 C
ATOM     22  C3  A00 X   2      30.313  48.643  52.6960  0.00  0.00     0.000 C
ATOM     23  C4  A00 X   2      30.893  47.741  51.5830  0.00  0.00     0.000 C
ATOM     24  C5  A00 X   2      31.727  46.623  52.2640  0.00  0.00     0.000 C
ATOM     25  O5  A00 X   2      32.792  47.238  53.0350  0.00  0.00     0.000 O
ATOM     26   O  A00 X   2      29.519  49.761  52.2630  0.00  0.00     0.000 O
ATOM     28  HD  A00 X   2      30.209  50.218  52.0100  0.00  0.00     0.000 HD
BRANCH 21 30
ATOM     28   N  A00 X   2      30.447  50.168  54.0080  0.00  0.00     0.000 N
ATOM     30  HD  A00 X   2      31.216  50.452  54.2860  0.00  0.00     0.000 HD
ATOM     30   O  A00 X   2      31.584  52.133  54.5620  0.00  0.00     0.000 OA
ATOM     31   S  A00 X   2      30.790  51.145  55.2020  0.00  0.00     0.000 S
ATOM     32   O  A00 X   2      29.508  51.596  55.6490  0.00  0.00     0.000 OA
ATOM     33   O  A00 X   2      31.424  50.362  56.2200  0.00  0.00     0.000 OA
ENDBRANCH 21 30
BRANCH 24 34
ATOM     34   C  A00 X   2      32.227  45.452  51.3850  0.00  0.00     0.000 C
ATOM     35   O  A00 X   2      35.706  44.398  51.1740  0.00  0.00     0.000 OA
ATOM     36   O  A00 X   2      33.659  45.492  51.2260  0.00  0.00     0.000 O
ATOM     37   O  A00 X   2      34.490  44.547  53.1970  0.00  0.00     0.000 OA
ATOM     38   S  A00 X   2      34.432  44.249  51.7990  0.00  0.00     0.000 S
ATOM     39   O  A00 X   2      33.691  43.091  51.3970  0.00  0.00     0.000 OA
ENDBRANCH 24 34
BRANCH 20 40
ATOM     40  O4  A00 X   3      31.369  47.173  54.9150  0.00  0.00     0.000 O
BRANCH 40 44
ATOM     41  C1  A00 X   3      29.720  44.301  56.3830  0.00  0.00     0.000 C
ATOM     42  C2  A00 X   3      29.501  45.763  56.8260  0.00  0.00     0.000 C
ATOM     43  C3  A00 X   3      30.854  46.471  57.0970  0.00  0.00     0.000 C
ATOM     44  C4  A00 X   3      31.875  46.333  55.9750  0.00  0.00     0.000 C
ATOM     45  C5  A00 X   3      32.044  44.837  55.5890  0.00  0.00     0.000 C
ATOM     46  O5  A00 X   3      30.743  44.207  55.3540  0.00  0.00     0.000 O
ATOM     47   O  A00 X   3      30.771  47.804  57.5960  0.00  0.00     0.000 O
ATOM     49  HD  A00 X   3      31.446  47.924  57.0670  0.00  0.00     0.000 HD
BRANCH 42 49
ATOM     49   O  A00 X   3      28.764  46.419  55.7710  0.00  0.00     0.000 O
ATOM     50   O  A00 X   3      27.963  48.632  55.3340  0.00  0.00     0.000 OA
ATOM     51   O  A00 X   3      27.767  47.760  57.5220  0.00  0.00     0.000 OA
ATOM     52   O  A00 X   3      26.448  46.808  55.8070  0.00  0.00     0.000 OA
ATOM     53   S  A00 X   3      27.669  47.471  56.1130  0.00  0.00     0.000 S
ENDBRANCH 42 49
BRANCH 45 54
ATOM     54   C  A00 X   3      32.904  44.081  56.6100  0.00  0.00     0.000 C
ATOM     55   O  A00 X   3      33.100  44.542  57.7160  0.00  0.00     0.000 OA
ATOM     56   O  A00 X   3      33.407  43.004  56.3290  0.00  0.00     0.000 OA
ENDBRANCH 45 54
BRANCH 41 57
ATOM     57  O4  A00 X   4      29.943  43.428  57.5140  0.00  0.00     0.000 O
BRANCH 57 61
ATOM     58  C1  A00 X   4      29.177  39.237  58.2120  0.00  0.00     0.000 C
ATOM     59  C2  A00 X   4      30.338  39.631  57.2660  0.00  0.00     0.000 C
ATOM     60  C3  A00 X   4      30.743  41.115  57.3740  0.00  0.00     0.000 C
ATOM     61  C4  A00 X   4      29.516  42.050  57.3240  0.00  0.00     0.000 C
ATOM     62  C5  A00 X   4      28.588  41.612  58.4850  0.00  0.00     0.000 C
ATOM     63  O5  A00 X   4      28.145  40.250  58.2550  0.00  0.00     0.000 O
BRANCH 59 66
ATOM     64   N  A00 X   4      29.813  39.406  55.9070  0.00  0.00     0.000 N
ATOM     66  HD  A00 X   4      28.954  39.434  55.8010  0.00  0.00     0.000 HD
ATOM     66   O  A00 X   4      30.483  37.105  56.1370  0.00  0.00     0.000 OA
ATOM     67   S  A00 X   4      30.278  38.091  55.1230  0.00  0.00     0.000 S
ATOM     68   O  A00 X   4      29.140  37.879  54.2770  0.00  0.00     0.000 OA
ATOM     69   O  A00 X   4      31.433  38.600  54.4390  0.00  0.00     0.000 OA
ENDBRANCH 59 66
BRANCH 62 70
ATOM     70   C  A00 X   4      27.341  42.509  58.6700  0.00  0.00     0.000 C
ATOM     71   O  A00 X   4      25.654  43.432  61.7380  0.00  0.00     0.000 OA
ATOM     72   O  A00 X   4      24.801  42.590  59.7110  0.00  0.00     0.000 OA
ATOM     73   O  A00 X   4      27.170  42.803  60.0660  0.00  0.00     0.000 O
ATOM     74   O  A00 X   4      25.954  41.090  61.2470  0.00  0.00     0.000 OA
ATOM     75   S  A00 X   4      25.806  42.415  60.7360  0.00  0.00     0.000 S
ENDBRANCH 62 70
ENDBRANCH 57 61
ENDBRANCH 41 57
ENDBRANCH 40 44
ENDBRANCH 20 40
ENDBRANCH 19 23
ENDBRANCH 1 19
TORSDOF 14
ENDMDL
MODEL 52
REMARK VINA RESULT:      -5.8     30.822     35.411
ROOT
ATOM      1  C1  A00 X   1      29.300  47.864  49.0740  0.00  0.00     0.000 C
ATOM      2  C2  A00 X   1      28.856  46.549  48.3790  0.00  0.00     0.000 C
ATOM      3  C3  A00 X   1      28.409  46.679  46.8850  0.00  0.00     0.000 C
ATOM      4  C4  A00 X   1      28.115  48.121  46.3980  0.00  0.00     0.000 C
ATOM      5  C5  A00 X   1      27.785  49.064  47.5550  0.00  0.00     0.000 C
ATOM      6  O5  A00 X   1      28.982  49.086  48.3640  0.00  0.00     0.000 O
ATOM      7   O  A00 X   1      27.207  45.935  46.7010  0.00  0.00     0.000 O
ATOM      9  HD  A00 X   1      27.119  46.676  46.2620  0.00  0.00     0.000 HD
ATOM      9   O  A00 X   1      29.203  48.649  45.6410  0.00  0.00     0.000 O
ATOM     11  HD  A00 X   1      29.115  49.389  45.2010  0.00  0.00     0.000 HD
ENDROOT
BRANCH 2 11
ATOM     11   O  A00 X   1      29.951  45.617  48.4620  0.00  0.00     0.000 O
ATOM     12   O  A00 X   1      29.780  43.377  47.6150  0.00  0.00     0.000 OA
ATOM     13   O  A00 X   1      28.361  44.060  49.4680  0.00  0.00     0.000 OA
ATOM     14   O  A00 X   1      30.709  43.836  49.7680  0.00  0.00     0.000 OA
ATOM     15   S  A00 X   1      29.651  44.126  48.8390  0.00  0.00     0.000 S
ENDBRANCH 2 11
BRANCH 5 16
ATOM     16   C  A00 X   1      26.520  48.707  48.3420  0.00  0.00     0.000 C
ATOM     17   O  A00 X   1      26.369  49.184  49.4480  0.00  0.00     0.000 OA
ATOM     18   O  A00 X   1      25.661  47.972  47.8960  0.00  0.00     0.000 OA
ENDBRANCH 5 16
BRANCH 1 19
ATOM     19  O4  A00 X   2      28.884  47.934  50.4600  0.00  0.00     0.000 O
BRANCH 19 23
ATOM     20  C1  A00 X   2      30.772  49.683  53.8860  0.00  0.00     0.000 C
ATOM     21  C2  A00 X   2      29.962  50.622  52.9600  0.00  0.00     0.000 C
ATOM     22  C3  A00 X   2      29.011  49.813  52.0540  0.00  0.00     0.000 C
ATOM     23  C4  A00 X   2      29.791  48.729  51.2760  0.00  0.00     0.000 C
ATOM     24  C5  A00 X   2      30.571  47.872  52.3100  0.00  0.00     0.000 C
ATOM     25  O5  A00 X   2      31.478  48.735  53.0430  0.00  0.00     0.000 O
ATOM     26   O  A00 X   2      28.234  50.730  51.2640  0.00  0.00     0.000 O
ATOM     28  HD  A00 X   2      28.931  51.173  51.0020  0.00  0.00     0.000 HD
BRANCH 21 30
ATOM     28   N  A00 X   2      28.875  51.606  52.9570  0.00  0.00     0.000 N
ATOM     30  HD  A00 X   2      29.578  52.010  53.2630  0.00  0.00     0.000 HD
ATOM     30   O  A00 X   2      29.819  53.733  53.1750  0.00  0.00     0.000 OA
ATOM     31   S  A00 X   2      28.982  52.858  53.9170  0.00  0.00     0.000 S
ATOM     32   O  A00 X   2      27.627  53.293  54.0580  0.00  0.00     0.000 OA
ATOM     33   O  A00 X   2      29.487  52.386  55.1720  0.00  0.00     0.000 OA
ENDBRANCH 21 30
BRANCH 24 34
ATOM     34   C  A00 X   2      31.251  46.575  51.8120  0.00  0.00     0.000 C
ATOM     35   O  A00 X   2      34.785  45.823  52.2610  0.00  0.00     0.000 OA
ATOM     36   O  A00 X   2      32.687  46.706  51.8090  0.00  0.00     0.000 O
ATOM     37   O  A00 X   2      33.309  46.341  54.0340  0.00  0.00     0.000 OA
ATOM     38   S  A00 X   2      33.453  45.712  52.7570  0.00  0.00     0.000 S
ATOM     39   O  A00 X   2      32.843  44.429  52.5760  0.00  0.00     0.000 OA
ENDBRANCH 24 34
BRANCH 20 40
ATOM     40  O4  A00 X   3      29.799  48.988  54.6800  0.00  0.00     0.000 O
BRANCH 40 44
ATOM     41  C1  A00 X   3      28.042  46.369  56.4630  0.00  0.00     0.000 C
ATOM     42  C2  A00 X   3      27.779  47.881  56.6350  0.00  0.00     0.000 C
ATOM     43  C3  A00 X   3      29.100  48.648  56.8970  0.00  0.00     0.000 C
ATOM     44  C4  A00 X   3      30.216  48.346  55.9040  0.00  0.00     0.000 C
ATOM     45  C5  A00 X   3      30.424  46.810  55.7900  0.00  0.00     0.000 C
ATOM     46  O5  A00 X   3      29.151  46.126  55.5530  0.00  0.00     0.000 O
ATOM     47   O  A00 X   3      28.968  50.044  57.1590  0.00  0.00     0.000 O
ATOM     49  HD  A00 X   3      29.686  50.088  56.6760  0.00  0.00     0.000 HD
BRANCH 42 49
ATOM     49   O  A00 X   3      27.133  48.338  55.4270  0.00  0.00     0.000 O
ATOM     50   O  A00 X   3      26.350  50.431  54.5660  0.00  0.00     0.000 OA
ATOM     51   O  A00 X   3      25.966  49.917  56.8420  0.00  0.00     0.000 OA
ATOM     52   O  A00 X   3      24.819  48.667  55.1960  0.00  0.00     0.000 OA
ATOM     53   S  A00 X   3      25.999  49.403  55.4960  0.00  0.00     0.000 S
ENDBRANCH 42 49
BRANCH 45 54
ATOM     54   C  A00 X   3      31.195  46.250  56.9910  0.00  0.00     0.000 C
ATOM     55   O  A00 X   3      31.650  45.125  56.9650  0.00  0.00     0.000 OA
ATOM     56   O  A00 X   3      31.364  46.925  57.9950  0.00  0.00     0.000 OA
ENDBRANCH 45 54
BRANCH 41 57
ATOM     57  O4  A00 X   4      28.171  45.701  57.7370  0.00  0.00     0.000 O
BRANCH 57 61
ATOM     58  C1  A00 X   4      27.422  41.611  58.9010  0.00  0.00     0.000 C
ATOM     59  C2  A00 X   4      28.197  41.878  57.5870  0.00  0.00     0.000 C
ATOM     60  C3  A00 X   4      28.713  43.326  57.4600  0.00  0.00     0.000 C
ATOM     61  C4  A00 X   4      27.612  44.357  57.7900  0.00  0.00     0.000 C
ATOM     62  C5  A00 X   4      27.128  44.034  59.2250  0.00  0.00     0.000 C
ATOM     63  O5  A00 X   4      26.543  42.707  59.2430  0.00  0.00     0.000 O
BRANCH 59 66
ATOM     64   N  A00 X   4      29.344  41.049  57.1730  0.00  0.00     0.000 N
ATOM     66  HD  A00 X   4      29.764  41.278  56.4510  0.00  0.00     0.000 HD
ATOM     66   O  A00 X   4      27.765  39.315  56.6260  0.00  0.00     0.000 OA
ATOM     67   S  A00 X   4      29.126  39.470  57.0340  0.00  0.00     0.000 S
ATOM     68   O  A00 X   4      30.108  39.161  56.0360  0.00  0.00     0.000 OA
ATOM     69   O  A00 X   4      29.480  39.048  58.3590  0.00  0.00     0.000 OA
ENDBRANCH 59 66
BRANCH 62 70
ATOM     70   C  A00 X   4      26.090  45.037  59.7830  0.00  0.00     0.000 C
ATOM     71   O  A00 X   4      26.569  47.658  62.2340  0.00  0.00     0.000 OA
ATOM     72   O  A00 X   4      24.929  45.975  62.0880  0.00  0.00     0.000 OA
ATOM     73   O  A00 X   4      26.770  46.050  60.5420  0.00  0.00     0.000 O
ATOM     74   O  A00 X   4      27.180  45.402  62.8260  0.00  0.00     0.000 OA
ATOM     75   S  A00 X   4      26.347  46.253  62.0380  0.00  0.00     0.000 S
ENDBRANCH 62 70
ENDBRANCH 57 61
ENDBRANCH 41 57
ENDBRANCH 40 44
ENDBRANCH 20 40
ENDBRANCH 19 23
ENDBRANCH 1 19
TORSDOF 14
ENDMDL
MODEL 53
REMARK VINA RESULT:      -5.8     24.858     30.044
ROOT
ATOM      1  C1  A00 X   1      17.597  54.647  61.5420  0.00  0.00     0.000 C
ATOM      2  C2  A00 X   1      16.832  53.678  62.4830  0.00  0.00     0.000 C
ATOM      3  C3  A00 X   1      15.948  52.595  61.7820  0.00  0.00     0.000 C
ATOM      4  C4  A00 X   1      15.650  52.843  60.2810  0.00  0.00     0.000 C
ATOM      5  C5  A00 X   1      15.796  54.317  59.9000  0.00  0.00     0.000 C
ATOM      6  O5  A00 X   1      17.185  54.625  60.1530  0.00  0.00     0.000 O
ATOM      7   O  A00 X   1      14.685  52.539  62.4410  0.00  0.00     0.000 O
ATOM      9  HD  A00 X   1      14.531  52.483  61.5910  0.00  0.00     0.000 HD
ATOM      9   O  A00 X   1      16.485  52.044  59.4440  0.00  0.00     0.000 O
ATOM     11  HD  A00 X   1      16.332  51.988  58.5930  0.00  0.00     0.000 HD
ENDROOT
BRANCH 2 11
ATOM     11   O  A00 X   1      17.804  53.021  63.3190  0.00  0.00     0.000 O
ATOM     12   O  A00 X   1      17.227  51.148  64.7060  0.00  0.00     0.000 OA
ATOM     13   O  A00 X   1      16.214  53.314  65.1500  0.00  0.00     0.000 OA
ATOM     14   O  A00 X   1      18.536  52.968  65.5360  0.00  0.00     0.000 OA
ATOM     15   S  A00 X   1      17.387  52.579  64.7640  0.00  0.00     0.000 S
ENDBRANCH 2 11
BRANCH 5 16
ATOM     16   C  A00 X   1      14.820  55.267  60.6010  0.00  0.00     0.000 C
ATOM     17   O  A00 X   1      13.857  54.795  61.1700  0.00  0.00     0.000 OA
ATOM     18   O  A00 X   1      14.978  56.471  60.6130  0.00  0.00     0.000 OA
ENDBRANCH 5 16
BRANCH 1 19
ATOM     19  O4  A00 X   2      17.652  56.001  62.0550  0.00  0.00     0.000 O
BRANCH 19 23
ATOM     20  C1  A00 X   2      21.075  57.240  59.7940  0.00  0.00     0.000 C
ATOM     21  C2  A00 X   2      21.327  56.404  61.0720  0.00  0.00     0.000 C
ATOM     22  C3  A00 X   2      20.039  55.682  61.5200  0.00  0.00     0.000 C
ATOM     23  C4  A00 X   2      18.879  56.690  61.6820  0.00  0.00     0.000 C
ATOM     24  C5  A00 X   2      18.741  57.473  60.3470  0.00  0.00     0.000 C
ATOM     25  O5  A00 X   2      19.990  58.163  60.0790  0.00  0.00     0.000 O
ATOM     26   O  A00 X   2      20.341  54.868  62.6660  0.00  0.00     0.000 O
ATOM     28  HD  A00 X   2      20.731  55.516  63.0860  0.00  0.00     0.000 HD
BRANCH 21 30
ATOM     28   N  A00 X   2      22.032  55.179  61.4630  0.00  0.00     0.000 N
ATOM     30  HD  A00 X   2      22.624  55.811  61.4320  0.00  0.00     0.000 HD
ATOM     30   O  A00 X   2      24.112  55.786  62.3380  0.00  0.00     0.000 OA
ATOM     31   S  A00 X   2      23.591  55.089  61.2150  0.00  0.00     0.000 S
ATOM     32   O  A00 X   2      23.851  53.683  61.2020  0.00  0.00     0.000 OA
ATOM     33   O  A00 X   2      23.847  55.654  59.9240  0.00  0.00     0.000 OA
ENDBRANCH 21 30
BRANCH 24 34
ATOM     34   C  A00 X   2      17.505  58.385  60.1650  0.00  0.00     0.000 C
ATOM     35   O  A00 X   2      17.681  61.901  59.2340  0.00  0.00     0.000 OA
ATOM     36   O  A00 X   2      17.879  59.777  60.1500  0.00  0.00     0.000 O
ATOM     37   O  A00 X   2      18.646  60.149  57.9720  0.00  0.00     0.000 OA
ATOM     38   S  A00 X   2      17.559  60.543  58.8150  0.00  0.00     0.000 S
ATOM     39   O  A00 X   2      16.240  60.144  58.4260  0.00  0.00     0.000 OA
ENDBRANCH 24 34
BRANCH 20 40
ATOM     40  O4  A00 X   3      20.656  56.301  58.7930  0.00  0.00     0.000 O
BRANCH 40 44
ATOM     41  C1  A00 X   3      18.991  54.851  55.9210  0.00  0.00     0.000 C
ATOM     42  C2  A00 X   3      20.196  54.220  56.6510  0.00  0.00     0.000 C
ATOM     43  C3  A00 X   3      21.347  55.246  56.8110  0.00  0.00     0.000 C
ATOM     44  C4  A00 X   3      20.925  56.585  57.4030  0.00  0.00     0.000 C
ATOM     45  C5  A00 X   3      19.714  57.157  56.6140  0.00  0.00     0.000 C
ATOM     46  O5  A00 X   3      18.657  56.152  56.4780  0.00  0.00     0.000 O
ATOM     47   O  A00 X   3      22.549  54.747  57.3960  0.00  0.00     0.000 O
ATOM     49  HD  A00 X   3      22.548  55.522  57.7840  0.00  0.00     0.000 HD
BRANCH 42 49
ATOM     49   O  A00 X   3      19.719  53.757  57.9340  0.00  0.00     0.000 O
ATOM     50   O  A00 X   3      20.674  52.707  59.8620  0.00  0.00     0.000 OA
ATOM     51   O  A00 X   3      21.346  51.979  57.7150  0.00  0.00     0.000 OA
ATOM     52   O  A00 X   3      19.133  51.535  58.4140  0.00  0.00     0.000 OA
ATOM     53   S  A00 X   3      20.241  52.418  58.5300  0.00  0.00     0.000 S
ENDBRANCH 42 49
BRANCH 45 54
ATOM     54   C  A00 X   3      20.145  57.763  55.2730  0.00  0.00     0.000 C
ATOM     55   O  A00 X   3      19.350  58.366  54.5830  0.00  0.00     0.000 OA
ATOM     56   O  A00 X   3      21.295  57.649  54.8760  0.00  0.00     0.000 OA
ENDBRANCH 45 54
BRANCH 41 57
ATOM     57  O4  A00 X   4      19.177  54.856  54.4880  0.00  0.00     0.000 O
BRANCH 57 61
ATOM     58  C1  A00 X   4      16.483  54.317  51.1590  0.00  0.00     0.000 C
ATOM     59  C2  A00 X   4      16.561  55.711  51.8310  0.00  0.00     0.000 C
ATOM     60  C3  A00 X   4      17.789  55.883  52.7480  0.00  0.00     0.000 C
ATOM     61  C4  A00 X   4      17.961  54.684  53.7060  0.00  0.00     0.000 C
ATOM     62  C5  A00 X   4      18.072  53.424  52.8120  0.00  0.00     0.000 C
ATOM     63  O5  A00 X   4      16.836  53.254  52.0720  0.00  0.00     0.000 O
BRANCH 59 66
ATOM     64   N  A00 X   4      15.520  56.292  52.6980  0.00  0.00     0.000 N
ATOM     66  HD  A00 X   4      15.112  55.760  53.2460  0.00  0.00     0.000 HD
ATOM     66   O  A00 X   4      14.164  56.554  50.7250  0.00  0.00     0.000 OA
ATOM     67   S  A00 X   4      14.353  57.145  52.0130  0.00  0.00     0.000 S
ATOM     68   O  A00 X   4      13.291  56.932  52.9520  0.00  0.00     0.000 OA
ATOM     69   O  A00 X   4      14.933  58.457  52.0690  0.00  0.00     0.000 OA
ENDBRANCH 59 66
BRANCH 62 70
ATOM     70   C  A00 X   4      18.362  52.120  53.5920  0.00  0.00     0.000 C
ATOM     71   O  A00 X   4      21.554  50.550  54.2680  0.00  0.00     0.000 OA
ATOM     72   O  A00 X   4      19.551  49.650  53.4200  0.00  0.00     0.000 OA
ATOM     73   O  A00 X   4      19.776  52.010  53.8250  0.00  0.00     0.000 O
ATOM     74   O  A00 X   4      20.961  51.017  51.9780  0.00  0.00     0.000 OA
ATOM     75   S  A00 X   4      20.508  50.727  53.3000  0.00  0.00     0.000 S
ENDBRANCH 62 70
ENDBRANCH 57 61
ENDBRANCH 41 57
ENDBRANCH 40 44
ENDBRANCH 20 40
ENDBRANCH 19 23
ENDBRANCH 1 19
TORSDOF 14
ENDMDL
MODEL 54
REMARK VINA RESULT:      -5.8      9.943     16.604
ROOT
ATOM      1  C1  A00 X   1       6.858  54.264  72.2450  0.00  0.00     0.000 C
ATOM      2  C2  A00 X   1       5.420  53.734  72.0010  0.00  0.00     0.000 C
ATOM      3  C3  A00 X   1       5.277  52.184  71.8430  0.00  0.00     0.000 C
ATOM      4  C4  A00 X   1       6.596  51.414  71.5810  0.00  0.00     0.000 C
ATOM      5  C5  A00 X   1       7.683  52.314  70.9940  0.00  0.00     0.000 C
ATOM      6  O5  A00 X   1       7.924  53.311  72.0130  0.00  0.00     0.000 O
ATOM      7   O  A00 X   1       4.424  51.915  70.7320  0.00  0.00     0.000 O
ATOM      9  HD  A00 X   1       5.077  51.347  70.6960  0.00  0.00     0.000 HD
ATOM      9   O  A00 X   1       7.079  50.787  72.7690  0.00  0.00     0.000 O
ATOM     11  HD  A00 X   1       7.732  50.219  72.7330  0.00  0.00     0.000 HD
ENDROOT
BRANCH 2 11
ATOM     11   O  A00 X   1       4.599  54.170  73.1020  0.00  0.00     0.000 O
ATOM     12   O  A00 X   1       2.339  53.408  73.3820  0.00  0.00     0.000 OA
ATOM     13   O  A00 X   1       2.913  54.740  71.4300  0.00  0.00     0.000 OA
ATOM     14   O  A00 X   1       2.921  55.716  73.5990  0.00  0.00     0.000 OA
ATOM     15   S  A00 X   1       3.092  54.509  72.8360  0.00  0.00     0.000 S
ENDBRANCH 2 11
BRANCH 5 16
ATOM     16   C  A00 X   1       7.360  52.909  69.6200  0.00  0.00     0.000 C
ATOM     17   O  A00 X   1       8.026  53.841  69.2180  0.00  0.00     0.000 OA
ATOM     18   O  A00 X   1       6.468  52.478  68.9170  0.00  0.00     0.000 OA
ENDBRANCH 5 16
BRANCH 1 19
ATOM     19  O4  A00 X   2       7.115  55.519  71.5700  0.00  0.00     0.000 O
BRANCH 19 23
ATOM     20  C1  A00 X   2       9.369  57.164  74.8220  0.00  0.00     0.000 C
ATOM     21  C2  A00 X   2       7.876  57.559  74.7160  0.00  0.00     0.000 C
ATOM     22  C3  A00 X   2       7.114  56.583  73.7960  0.00  0.00     0.000 C
ATOM     23  C4  A00 X   2       7.807  56.479  72.4190  0.00  0.00     0.000 C
ATOM     24  C5  A00 X   2       9.293  56.098  72.6630  0.00  0.00     0.000 C
ATOM     25  O5  A00 X   2       9.912  57.128  73.4760  0.00  0.00     0.000 O
ATOM     26   O  A00 X   2       5.724  56.950  73.7840  0.00  0.00     0.000 O
ATOM     28  HD  A00 X   2       5.893  57.781  73.6120  0.00  0.00     0.000 HD
BRANCH 21 30
ATOM     28   N  A00 X   2       6.752  57.522  75.6560  0.00  0.00     0.000 N
ATOM     30  HD  A00 X   2       7.167  58.270  75.7910  0.00  0.00     0.000 HD
ATOM     30   O  A00 X   2       6.413  59.686  76.4700  0.00  0.00     0.000 OA
ATOM     31   S  A00 X   2       6.822  58.417  76.9570  0.00  0.00     0.000 S
ATOM     32   O  A00 X   2       5.900  57.787  77.8510  0.00  0.00     0.000 OA
ATOM     33   O  A00 X   2       8.157  58.317  77.4690  0.00  0.00     0.000 OA
ENDBRANCH 21 30
BRANCH 24 34
ATOM     34   C  A00 X   2      10.153  55.707  71.4370  0.00  0.00     0.000 C
ATOM     35   O  A00 X   2      13.057  53.518  71.5970  0.00  0.00     0.000 OA
ATOM     36   O  A00 X   2      11.413  55.137  71.8430  0.00  0.00     0.000 O
ATOM     37   O  A00 X   2      10.904  52.915  72.3680  0.00  0.00     0.000 OA
ATOM     38   S  A00 X   2      11.652  53.649  71.3940  0.00  0.00     0.000 S
ATOM     39   O  A00 X   2      11.225  53.565  70.0290  0.00  0.00     0.000 OA
ENDBRANCH 24 34
BRANCH 20 40
ATOM     40  O4  A00 X   3       9.381  55.842  75.3800  0.00  0.00     0.000 O
BRANCH 40 44
ATOM     41  C1  A00 X   3      10.116  52.475  76.4990  0.00  0.00     0.000 C
ATOM     42  C2  A00 X   3       9.191  53.467  77.2380  0.00  0.00     0.000 C
ATOM     43  C3  A00 X   3       9.891  54.835  77.4400  0.00  0.00     0.000 C
ATOM     44  C4  A00 X   3      10.509  55.422  76.1780  0.00  0.00     0.000 C
ATOM     45  C5  A00 X   3      11.428  54.370  75.4950  0.00  0.00     0.000 C
ATOM     46  O5  A00 X   3      10.730  53.093  75.3340  0.00  0.00     0.000 O
ATOM     47   O  A00 X   3       9.161  55.804  78.1900  0.00  0.00     0.000 O
ATOM     49  HD  A00 X   3       9.495  56.345  77.6020  0.00  0.00     0.000 HD
BRANCH 42 49
ATOM     49   O  A00 X   3       7.992  53.600  76.4430  0.00  0.00     0.000 O
ATOM     50   O  A00 X   3       5.953  54.847  76.5780  0.00  0.00     0.000 OA
ATOM     51   O  A00 X   3       6.823  53.866  78.5460  0.00  0.00     0.000 OA
ATOM     52   O  A00 X   3       5.988  52.445  76.8520  0.00  0.00     0.000 OA
ATOM     53   S  A00 X   3       6.599  53.699  77.1310  0.00  0.00     0.000 S
ENDBRANCH 42 49
BRANCH 45 54
ATOM     54   C  A00 X   3      12.772  54.236  76.2200  0.00  0.00     0.000 C
ATOM     55   O  A00 X   3      13.543  53.342  75.9340  0.00  0.00     0.000 OA
ATOM     56   O  A00 X   3      13.091  55.023  77.0980  0.00  0.00     0.000 OA
ENDBRANCH 45 54
BRANCH 41 57
ATOM     57  O4  A00 X   4      11.059  51.853  77.4000  0.00  0.00     0.000 O
BRANCH 57 61
ATOM     58  C1  A00 X   4      12.059  47.653  77.3300  0.00  0.00     0.000 C
ATOM     59  C2  A00 X   4      13.193  48.682  77.5640  0.00  0.00     0.000 C
ATOM     60  C3  A00 X   4      12.681  50.091  77.9240  0.00  0.00     0.000 C
ATOM     61  C4  A00 X   4      11.564  50.557  76.9670  0.00  0.00     0.000 C
ATOM     62  C5  A00 X   4      10.444  49.490  77.0510  0.00  0.00     0.000 C
ATOM     63  O5  A00 X   4      10.960  48.219  76.5800  0.00  0.00     0.000 O
BRANCH 59 66
ATOM     64   N  A00 X   4      14.606  49.099  77.6120  0.00  0.00     0.000 N
ATOM     66  HD  A00 X   4      14.881  49.650  77.0020  0.00  0.00     0.000 HD
ATOM     66   O  A00 X   4      15.187  46.860  76.9430  0.00  0.00     0.000 OA
ATOM     67   S  A00 X   4      15.730  47.963  77.6720  0.00  0.00     0.000 S
ATOM     68   O  A00 X   4      16.821  48.644  77.0380  0.00  0.00     0.000 OA
ATOM     69   O  A00 X   4      15.871  47.822  79.0940  0.00  0.00     0.000 OA
ENDBRANCH 59 66
BRANCH 62 70
ATOM     70   C  A00 X   4       9.176  49.839  76.2360  0.00  0.00     0.000 C
ATOM     71   O  A00 X   4       5.711  49.172  77.0470  0.00  0.00     0.000 OA
ATOM     72   O  A00 X   4       6.927  48.778  75.0690  0.00  0.00     0.000 OA
ATOM     73   O  A00 X   4       8.012  49.612  77.0470  0.00  0.00     0.000 O
ATOM     74   O  A00 X   4       7.260  47.324  76.9960  0.00  0.00     0.000 OA
ATOM     75   S  A00 X   4       6.923  48.622  76.5070  0.00  0.00     0.000 S
ENDBRANCH 62 70
ENDBRANCH 57 61
ENDBRANCH 41 57
ENDBRANCH 40 44
ENDBRANCH 20 40
ENDBRANCH 19 23
ENDBRANCH 1 19
TORSDOF 14
ENDMDL
MODEL 55
REMARK VINA RESULT:      -5.7     27.015     31.160
ROOT
ATOM      1  C1  A00 X   1      28.228  44.941  56.7050  0.00  0.00     0.000 C
ATOM      2  C2  A00 X   1      29.460  44.829  57.6420  0.00  0.00     0.000 C
ATOM      3  C3  A00 X   1      29.757  43.406  58.2200  0.00  0.00     0.000 C
ATOM      4  C4  A00 X   1      28.602  42.379  58.0940  0.00  0.00     0.000 C
ATOM      5  C5  A00 X   1      27.241  43.057  57.9390  0.00  0.00     0.000 C
ATOM      6  O5  A00 X   1      27.338  43.797  56.7020  0.00  0.00     0.000 O
ATOM      7   O  A00 X   1      30.039  43.528  59.6120  0.00  0.00     0.000 O
ATOM      9  HD  A00 X   1      29.540  42.827  59.5140  0.00  0.00     0.000 HD
ATOM      9   O  A00 X   1      28.820  41.480  57.0060  0.00  0.00     0.000 O
ATOM     11  HD  A00 X   1      28.321  40.779  56.9070  0.00  0.00     0.000 HD
ENDROOT
BRANCH 2 11
ATOM     11   O  A00 X   1      30.612  45.287  56.9080  0.00  0.00     0.000 O
ATOM     12   O  A00 X   1      32.842  45.049  57.7680  0.00  0.00     0.000 OA
ATOM     13   O  A00 X   1      31.258  46.471  58.9440  0.00  0.00     0.000 OA
ATOM     14   O  A00 X   1      32.080  47.099  56.8030  0.00  0.00     0.000 OA
ATOM     15   S  A00 X   1      31.768  46.007  57.6840  0.00  0.00     0.000 S
ENDBRANCH 2 11
BRANCH 5 16
ATOM     16   C  A00 X   1      26.804  43.912  59.1330  0.00  0.00     0.000 C
ATOM     17   O  A00 X   1      27.413  43.806  60.1780  0.00  0.00     0.000 OA
ATOM     18   O  A00 X   1      25.877  44.695  59.0690  0.00  0.00     0.000 OA
ENDBRANCH 5 16
BRANCH 1 19
ATOM     19  O4  A00 X   2      27.497  46.178  56.8840  0.00  0.00     0.000 O
BRANCH 19 23
ATOM     20  C1  A00 X   2      28.872  50.219  57.2690  0.00  0.00     0.000 C
ATOM     21  C2  A00 X   2      29.397  49.397  56.0670  0.00  0.00     0.000 C
ATOM     22  C3  A00 X   2      28.509  48.160  55.8180  0.00  0.00     0.000 C
ATOM     23  C4  A00 X   2      28.375  47.318  57.1070  0.00  0.00     0.000 C
ATOM     24  C5  A00 X   2      27.862  48.256  58.2340  0.00  0.00     0.000 C
ATOM     25  O5  A00 X   2      28.817  49.333  58.4180  0.00  0.00     0.000 O
ATOM     26   O  A00 X   2      28.996  47.470  54.6540  0.00  0.00     0.000 O
ATOM     28  HD  A00 X   2      29.813  47.459  54.9400  0.00  0.00     0.000 HD
BRANCH 21 30
ATOM     28   N  A00 X   2      29.585  49.271  54.6180  0.00  0.00     0.000 N
ATOM     30  HD  A00 X   2      30.135  49.882  54.8900  0.00  0.00     0.000 HD
ATOM     30   O  A00 X   2      31.605  50.300  54.0550  0.00  0.00     0.000 OA
ATOM     31   S  A00 X   2      30.216  50.485  53.8270  0.00  0.00     0.000 S
ATOM     32   O  A00 X   2      29.791  50.268  52.4790  0.00  0.00     0.000 OA
ATOM     33   O  A00 X   2      29.627  51.683  54.3480  0.00  0.00     0.000 OA
ENDBRANCH 21 30
BRANCH 24 34
ATOM     34   C  A00 X   2      27.424  47.611  59.5710  0.00  0.00     0.000 C
ATOM     35   O  A00 X   2      28.721  48.589  62.8290  0.00  0.00     0.000 OA
ATOM     36   O  A00 X   2      28.341  47.938  60.6340  0.00  0.00     0.000 O
ATOM     37   O  A00 X   2      27.711  50.089  61.3050  0.00  0.00     0.000 OA
ATOM     38   S  A00 X   2      27.722  48.756  61.8260  0.00  0.00     0.000 S
ATOM     39   O  A00 X   2      26.459  48.148  62.1210  0.00  0.00     0.000 OA
ENDBRANCH 24 34
BRANCH 20 40
ATOM     40  O4  A00 X   3      27.542  50.623  56.9110  0.00  0.00     0.000 O
BRANCH 40 44
ATOM     41  C1  A00 X   3      24.017  51.457  56.8820  0.00  0.00     0.000 C
ATOM     42  C2  A00 X   3      25.057  51.997  55.8770  0.00  0.00     0.000 C
ATOM     43  C3  A00 X   3      26.287  52.587  56.6140  0.00  0.00     0.000 C
ATOM     44  C4  A00 X   3      26.894  51.669  57.6670  0.00  0.00     0.000 C
ATOM     45  C5  A00 X   3      25.789  51.172  58.6410  0.00  0.00     0.000 C
ATOM     46  O5  A00 X   3      24.645  50.634  57.9030  0.00  0.00     0.000 O
ATOM     47   O  A00 X   3      27.277  53.194  55.7860  0.00  0.00     0.000 O
ATOM     49  HD  A00 X   3      27.817  52.817  56.3480  0.00  0.00     0.000 HD
BRANCH 42 49
ATOM     49   O  A00 X   3      25.433  50.894  55.0230  0.00  0.00     0.000 O
ATOM     50   O  A00 X   3      26.663  50.619  52.9880  0.00  0.00     0.000 OA
ATOM     51   O  A00 X   3      25.171  52.443  53.1820  0.00  0.00     0.000 OA
ATOM     52   O  A00 X   3      24.274  50.258  53.0820  0.00  0.00     0.000 OA
ATOM     53   S  A00 X   3      25.390  51.048  53.4750  0.00  0.00     0.000 S
ENDBRANCH 42 49
BRANCH 45 54
ATOM     54   C  A00 X   3      25.398  52.255  59.6550  0.00  0.00     0.000 C
ATOM     55   O  A00 X   3      25.763  53.403  59.5060  0.00  0.00     0.000 OA
ATOM     56   O  A00 X   3      24.714  51.981  60.6290  0.00  0.00     0.000 OA
ENDBRANCH 45 54
BRANCH 41 57
ATOM     57  O4  A00 X   4      23.185  52.515  57.4090  0.00  0.00     0.000 O
BRANCH 57 61
ATOM     58  C1  A00 X   4      19.050  52.671  58.6380  0.00  0.00     0.000 C
ATOM     59  C2  A00 X   4      20.017  51.738  59.4080  0.00  0.00     0.000 C
ATOM     60  C3  A00 X   4      21.505  52.029  59.1270  0.00  0.00     0.000 C
ATOM     61  C4  A00 X   4      21.789  52.159  57.6150  0.00  0.00     0.000 C
ATOM     62  C5  A00 X   4      20.865  53.289  57.0940  0.00  0.00     0.000 C
ATOM     63  O5  A00 X   4      19.481  52.895  57.2760  0.00  0.00     0.000 O
BRANCH 59 66
ATOM     64   N  A00 X   4      19.027  51.078  58.5370  0.00  0.00     0.000 N
ATOM     66  HD  A00 X   4      18.470  51.584  58.1100  0.00  0.00     0.000 HD
ATOM     66   O  A00 X   4      17.955  50.272  60.5370  0.00  0.00     0.000 OA
ATOM     67   S  A00 X   4      18.124  49.915  59.1630  0.00  0.00     0.000 S
ATOM     68   O  A00 X   4      16.951  50.031  58.3460  0.00  0.00     0.000 OA
ATOM     69   O  A00 X   4      18.939  48.772  58.8630  0.00  0.00     0.000 OA
ENDBRANCH 59 66
BRANCH 62 70
ATOM     70   C  A00 X   4      21.083  53.647  55.6050  0.00  0.00     0.000 C
ATOM     71   O  A00 X   4      19.566  52.158  52.6750  0.00  0.00     0.000 OA
ATOM     72   O  A00 X   4      21.820  52.629  53.1630  0.00  0.00     0.000 OA
ATOM     73   O  A00 X   4      20.097  52.974  54.8050  0.00  0.00     0.000 O
ATOM     74   O  A00 X   4      20.732  50.724  54.2240  0.00  0.00     0.000 OA
ATOM     75   S  A00 X   4      20.602  52.029  53.6600  0.00  0.00     0.000 S
ENDBRANCH 62 70
ENDBRANCH 57 61
ENDBRANCH 41 57
ENDBRANCH 40 44
ENDBRANCH 20 40
ENDBRANCH 19 23
ENDBRANCH 1 19
TORSDOF 14
ENDMDL
MODEL 56
REMARK VINA RESULT:      -5.7     30.209     34.509
ROOT
ATOM      1  C1  A00 X   1      29.118  47.051  57.3700  0.00  0.00     0.000 C
ATOM      2  C2  A00 X   1      28.487  47.096  58.7880  0.00  0.00     0.000 C
ATOM      3  C3  A00 X   1      28.518  45.758  59.5970  0.00  0.00     0.000 C
ATOM      4  C4  A00 X   1      28.829  44.484  58.7700  0.00  0.00     0.000 C
ATOM      5  C5  A00 X   1      28.515  44.668  57.2860  0.00  0.00     0.000 C
ATOM      6  O5  A00 X   1      29.398  45.727  56.8520  0.00  0.00     0.000 O
ATOM      7   O  A00 X   1      27.238  45.553  60.1910  0.00  0.00     0.000 O
ATOM      9  HD  A00 X   1      27.506  44.786  59.8910  0.00  0.00     0.000 HD
ATOM      9   O  A00 X   1      30.188  44.078  58.9290  0.00  0.00     0.000 O
ATOM     11  HD  A00 X   1      30.456  43.311  58.6290  0.00  0.00     0.000 HD
ENDROOT
BRANCH 2 11
ATOM     11   O  A00 X   1      29.173  48.116  59.5400  0.00  0.00     0.000 O
ATOM     12   O  A00 X   1      28.892  48.349  61.9140  0.00  0.00     0.000 OA
ATOM     13   O  A00 X   1      26.986  48.715  60.4470  0.00  0.00     0.000 OA
ATOM     14   O  A00 X   1      28.814  50.236  60.4490  0.00  0.00     0.000 OA
ATOM     15   S  A00 X   1      28.396  48.878  60.6680  0.00  0.00     0.000 S
ENDBRANCH 2 11
BRANCH 5 16
ATOM     16   C  A00 X   1      27.040  44.930  56.9630  0.00  0.00     0.000 C
ATOM     17   O  A00 X   1      26.197  44.556  57.7530  0.00  0.00     0.000 OA
ATOM     18   O  A00 X   1      26.686  45.502  55.9520  0.00  0.00     0.000 OA
ENDBRANCH 5 16
BRANCH 1 19
ATOM     19  O4  A00 X   2      28.391  47.852  56.4070  0.00  0.00     0.000 O
BRANCH 19 23
ATOM     20  C1  A00 X   2      29.501  51.417  54.3040  0.00  0.00     0.000 C
ATOM     21  C2  A00 X   2      30.459  50.206  54.2110  0.00  0.00     0.000 C
ATOM     22  C3  A00 X   2      29.744  48.905  54.6320  0.00  0.00     0.000 C
ATOM     23  C4  A00 X   2      29.109  49.063  56.0320  0.00  0.00     0.000 C
ATOM     24  C5  A00 X   2      28.190  50.315  55.9990  0.00  0.00     0.000 C
ATOM     25  O5  A00 X   2      28.994  51.476  55.6640  0.00  0.00     0.000 O
ATOM     26   O  A00 X   2      30.652  47.804  54.4640  0.00  0.00     0.000 O
ATOM     28  HD  A00 X   2      31.289  48.197  54.9000  0.00  0.00     0.000 HD
BRANCH 21 30
ATOM     28   N  A00 X   2      31.586  51.144  54.1830  0.00  0.00     0.000 N
ATOM     30  HD  A00 X   2      31.890  50.379  53.9140  0.00  0.00     0.000 HD
ATOM     30   O  A00 X   2      33.285  50.202  52.8870  0.00  0.00     0.000 OA
ATOM     31   S  A00 X   2      33.056  50.566  54.2400  0.00  0.00     0.000 S
ATOM     32   O  A00 X   2      33.836  51.670  54.7080  0.00  0.00     0.000 OA
ATOM     33   O  A00 X   2      33.059  49.509  55.2060  0.00  0.00     0.000 OA
ENDBRANCH 21 30
BRANCH 24 34
ATOM     34   C  A00 X   2      27.258  50.563  57.2080  0.00  0.00     0.000 C
ATOM     35   O  A00 X   2      23.824  51.740  56.9290  0.00  0.00     0.000 OA
ATOM     36   O  A00 X   2      26.109  51.348  56.8300  0.00  0.00     0.000 O
ATOM     37   O  A00 X   2      24.650  49.807  55.8450  0.00  0.00     0.000 OA
ATOM     38   S  A00 X   2      24.720  50.634  57.0110  0.00  0.00     0.000 S
ATOM     39   O  A00 X   2      24.763  49.982  58.2860  0.00  0.00     0.000 OA
ENDBRANCH 24 34
BRANCH 20 40
ATOM     40  O4  A00 X   3      28.422  51.128  53.4020  0.00  0.00     0.000 O
BRANCH 40 44
ATOM     41  C1  A00 X   3      25.530  50.834  51.2400  0.00  0.00     0.000 C
ATOM     42  C2  A00 X   3      26.971  51.098  50.7520  0.00  0.00     0.000 C
ATOM     43  C3  A00 X   3      27.611  52.281  51.5230  0.00  0.00     0.000 C
ATOM     44  C4  A00 X   3      27.503  52.181  53.0390  0.00  0.00     0.000 C
ATOM     45  C5  A00 X   3      26.027  51.921  53.4520  0.00  0.00     0.000 C
ATOM     46  O5  A00 X   3      25.461  50.804  52.6930  0.00  0.00     0.000 O
ATOM     47   O  A00 X   3      28.915  52.671  51.0950  0.00  0.00     0.000 O
ATOM     49  HD  A00 X   3      29.041  52.771  51.9460  0.00  0.00     0.000 HD
BRANCH 42 49
ATOM     49   O  A00 X   3      27.715  49.875  50.9490  0.00  0.00     0.000 O
ATOM     50   O  A00 X   3      29.977  49.154  50.6410  0.00  0.00     0.000 OA
ATOM     51   O  A00 X   3      28.980  50.520  48.9890  0.00  0.00     0.000 OA
ATOM     52   O  A00 X   3      28.180  48.313  49.2590  0.00  0.00     0.000 OA
ATOM     53   S  A00 X   3      28.781  49.427  49.9070  0.00  0.00     0.000 S
ENDBRANCH 42 49
BRANCH 45 54
ATOM     54   C  A00 X   3      25.181  53.197  53.3680  0.00  0.00     0.000 C
ATOM     55   O  A00 X   3      25.614  54.192  52.8230  0.00  0.00     0.000 OA
ATOM     56   O  A00 X   3      24.060  53.237  53.8490  0.00  0.00     0.000 OA
ENDBRANCH 45 54
BRANCH 41 57
ATOM     57  O4  A00 X   4      24.585  51.738  50.6260  0.00  0.00     0.000 O
BRANCH 57 61
ATOM     58  C1  A00 X   4      20.439  51.330  49.4920  0.00  0.00     0.000 C
ATOM     59  C2  A00 X   4      20.817  51.183  50.9870  0.00  0.00     0.000 C
ATOM     60  C3  A00 X   4      22.233  51.697  51.3170  0.00  0.00     0.000 C
ATOM     61  C4  A00 X   4      23.284  51.159  50.3220  0.00  0.00     0.000 C
ATOM     62  C5  A00 X   4      22.816  51.601  48.9130  0.00  0.00     0.000 C
ATOM     63  O5  A00 X   4      21.538  50.982  48.6190  0.00  0.00     0.000 O
BRANCH 59 66
ATOM     64   N  A00 X   4      20.629  50.613  52.3330  0.00  0.00     0.000 N
ATOM     66  HD  A00 X   4      21.084  49.904  52.5340  0.00  0.00     0.000 HD
ATOM     66   O  A00 X   4      18.426  49.938  51.6310  0.00  0.00     0.000 OA
ATOM     67   S  A00 X   4      19.139  50.292  52.8190  0.00  0.00     0.000 S
ATOM     68   O  A00 X   4      19.391  49.215  53.7310  0.00  0.00     0.000 OA
ATOM     69   O  A00 X   4      18.807  51.535  53.4540  0.00  0.00     0.000 OA
ENDBRANCH 59 66
BRANCH 62 70
ATOM     70   C  A00 X   4      23.807  51.246  47.7780  0.00  0.00     0.000 C
ATOM     71   O  A00 X   4      24.751  47.978  46.5400  0.00  0.00     0.000 OA
ATOM     72   O  A00 X   4      26.075  49.817  47.1790  0.00  0.00     0.000 OA
ATOM     73   O  A00 X   4      23.686  49.850  47.4620  0.00  0.00     0.000 O
ATOM     74   O  A00 X   4      25.019  48.441  48.8910  0.00  0.00     0.000 OA
ATOM     75   S  A00 X   4      24.974  48.961  47.5620  0.00  0.00     0.000 S
ENDBRANCH 62 70
ENDBRANCH 57 61
ENDBRANCH 41 57
ENDBRANCH 40 44
ENDBRANCH 20 40
ENDBRANCH 19 23
ENDBRANCH 1 19
TORSDOF 14
ENDMDL
MODEL 57
REMARK VINA RESULT:      -5.6     21.315     25.459
ROOT
ATOM      1  C1  A00 X   1       7.331  56.283  63.7370  0.00  0.00     0.000 C
ATOM      2  C2  A00 X   1       8.113  55.110  64.3860  0.00  0.00     0.000 C
ATOM      3  C3  A00 X   1       9.357  55.507  65.2480  0.00  0.00     0.000 C
ATOM      4  C4  A00 X   1       9.870  56.957  65.0530  0.00  0.00     0.000 C
ATOM      5  C5  A00 X   1       9.442  57.545  63.7090  0.00  0.00     0.000 C
ATOM      6  O5  A00 X   1       7.998  57.570  63.7620  0.00  0.00     0.000 O
ATOM      7   O  A00 X   1      10.441  54.645  64.9110  0.00  0.00     0.000 O
ATOM      9  HD  A00 X   1      10.766  55.444  64.9930  0.00  0.00     0.000 HD
ATOM      9   O  A00 X   1       9.437  57.811  66.1130  0.00  0.00     0.000 O
ATOM     11  HD  A00 X   1       9.762  58.609  66.1950  0.00  0.00     0.000 HD
ENDROOT
BRANCH 2 11
ATOM     11   O  A00 X   1       7.190  54.370  65.2080  0.00  0.00     0.000 O
ATOM     12   O  A00 X   1       5.232  55.389  66.1540  0.00  0.00     0.000 OA
ATOM     13   O  A00 X   1       7.431  56.166  66.8460  0.00  0.00     0.000 OA
ATOM     14   O  A00 X   1       6.674  53.995  67.4540  0.00  0.00     0.000 OA
ATOM     15   S  A00 X   1       6.594  55.055  66.4860  0.00  0.00     0.000 S
ENDBRANCH 2 11
BRANCH 5 16
ATOM     16   C  A00 X   1       9.998  56.821  62.4780  0.00  0.00     0.000 C
ATOM     17   O  A00 X   1       9.544  57.097  61.3870  0.00  0.00     0.000 OA
ATOM     18   O  A00 X   1      10.878  55.987  62.5560  0.00  0.00     0.000 OA
ENDBRANCH 5 16
BRANCH 1 19
ATOM     19  O4  A00 X   2       6.845  55.966  62.4100  0.00  0.00     0.000 O
BRANCH 19 23
ATOM     20  C1  A00 X   2       3.125  58.016  62.9790  0.00  0.00     0.000 C
ATOM     21  C2  A00 X   2       3.109  56.471  63.0610  0.00  0.00     0.000 C
ATOM     22  C3  A00 X   2       4.534  55.917  63.2710  0.00  0.00     0.000 C
ATOM     23  C4  A00 X   2       5.490  56.450  62.1810  0.00  0.00     0.000 C
ATOM     24  C5  A00 X   2       5.401  58.000  62.1880  0.00  0.00     0.000 C
ATOM     25  O5  A00 X   2       4.032  58.391  61.9080  0.00  0.00     0.000 O
ATOM     26   O  A00 X   2       4.457  54.488  63.4090  0.00  0.00     0.000 O
ATOM     28  HD  A00 X   2       3.976  54.394  62.6950  0.00  0.00     0.000 HD
BRANCH 21 30
ATOM     28   N  A00 X   2       1.763  56.507  62.4800  0.00  0.00     0.000 N
ATOM     30  HD  A00 X   2       1.876  55.710  62.8010  0.00  0.00     0.000 HD
ATOM     30   O  A00 X   2       0.568  54.675  63.3000  0.00  0.00     0.000 OA
ATOM     31   S  A00 X   2       1.081  55.143  62.0620  0.00  0.00     0.000 S
ATOM     32   O  A00 X   2       0.091  55.538  61.1080  0.00  0.00     0.000 OA
ATOM     33   O  A00 X   2       2.087  54.342  61.4320  0.00  0.00     0.000 OA
ENDBRANCH 21 30
BRANCH 24 34
ATOM     34   C  A00 X   2       6.431  58.790  61.3470  0.00  0.00     0.000 C
ATOM     35   O  A00 X   2       7.225  58.050  57.8710  0.00  0.00     0.000 OA
ATOM     36   O  A00 X   2       6.793  58.070  60.1520  0.00  0.00     0.000 O
ATOM     37   O  A00 X   2       5.041  58.497  58.6620  0.00  0.00     0.000 OA
ATOM     38   S  A00 X   2       6.435  58.790  58.8000  0.00  0.00     0.000 S
ATOM     39   O  A00 X   2       6.813  60.162  58.9600  0.00  0.00     0.000 OA
ENDBRANCH 24 34
BRANCH 20 40
ATOM     40  O4  A00 X   3       3.655  58.466  64.2350  0.00  0.00     0.000 O
BRANCH 40 44
ATOM     41  C1  A00 X   3       4.855  60.035  67.2710  0.00  0.00     0.000 C
ATOM     42  C2  A00 X   3       3.447  59.428  67.0920  0.00  0.00     0.000 C
ATOM     43  C3  A00 X   3       2.768  59.969  65.8080  0.00  0.00     0.000 C
ATOM     44  C4  A00 X   3       3.624  59.874  64.5510  0.00  0.00     0.000 C
ATOM     45  C5  A00 X   3       5.019  60.509  64.8080  0.00  0.00     0.000 C
ATOM     46  O5  A00 X   3       5.618  59.978  66.0350  0.00  0.00     0.000 O
ATOM     47   O  A00 X   3       1.426  59.542  65.5850  0.00  0.00     0.000 O
ATOM     49  HD  A00 X   3       1.693  59.505  64.7620  0.00  0.00     0.000 HD
BRANCH 42 49
ATOM     49   O  A00 X   3       3.608  57.993  67.0390  0.00  0.00     0.000 O
ATOM     50   O  A00 X   3       2.173  56.097  66.7680  0.00  0.00     0.000 OA
ATOM     51   O  A00 X   3       1.465  57.874  68.1570  0.00  0.00     0.000 OA
ATOM     52   O  A00 X   3       3.291  56.550  68.8640  0.00  0.00     0.000 OA
ATOM     53   S  A00 X   3       2.580  57.060  67.7420  0.00  0.00     0.000 S
ENDBRANCH 42 49
BRANCH 45 54
ATOM     54   C  A00 X   3       4.959  62.041  64.7820  0.00  0.00     0.000 C
ATOM     55   O  A00 X   3       3.892  62.619  64.7880  0.00  0.00     0.000 OA
ATOM     56   O  A00 X   3       5.983  62.707  64.7520  0.00  0.00     0.000 OA
ENDBRANCH 45 54
BRANCH 41 57
ATOM     57  O4  A00 X   4       4.797  61.352  67.8640  0.00  0.00     0.000 O
BRANCH 57 61
ATOM     58  C1  A00 X   4       7.710  63.560  70.1620  0.00  0.00     0.000 C
ATOM     59  C2  A00 X   4       7.447  63.983  68.6950  0.00  0.00     0.000 C
ATOM     60  C3  A00 X   4       6.159  63.376  68.1010  0.00  0.00     0.000 C
ATOM     61  C4  A00 X   4       6.064  61.859  68.3700  0.00  0.00     0.000 C
ATOM     62  C5  A00 X   4       6.138  61.683  69.9070  0.00  0.00     0.000 C
ATOM     63  O5  A00 X   4       7.423  62.160  70.3810  0.00  0.00     0.000 O
BRANCH 59 66
ATOM     64   N  A00 X   4       8.622  63.403  68.0200  0.00  0.00     0.000 N
ATOM     66  HD  A00 X   4       9.026  62.747  68.4150  0.00  0.00     0.000 HD
ATOM     66   O  A00 X   4       9.796  65.444  68.5290  0.00  0.00     0.000 OA
ATOM     67   S  A00 X   4       9.797  64.389  67.5640  0.00  0.00     0.000 S
ATOM     68   O  A00 X   4      10.919  63.499  67.6240  0.00  0.00     0.000 OA
ATOM     69   O  A00 X   4       9.363  64.700  66.2320  0.00  0.00     0.000 OA
ENDBRANCH 59 66
BRANCH 62 70
ATOM     70   C  A00 X   4       5.947  60.224  70.3860  0.00  0.00     0.000 C
ATOM     71   O  A00 X   4       8.442  57.632  70.7870  0.00  0.00     0.000 OA
ATOM     72   O  A00 X   4       6.352  57.595  69.7040  0.00  0.00     0.000 OA
ATOM     73   O  A00 X   4       7.234  59.632  70.6290  0.00  0.00     0.000 O
ATOM     74   O  A00 X   4       8.238  58.713  68.6410  0.00  0.00     0.000 OA
ATOM     75   S  A00 X   4       7.595  58.318  69.8530  0.00  0.00     0.000 S
ENDBRANCH 62 70
ENDBRANCH 57 61
ENDBRANCH 41 57
ENDBRANCH 40 44
ENDBRANCH 20 40
ENDBRANCH 19 23
ENDBRANCH 1 19
TORSDOF 14
ENDMDL
MODEL 58
REMARK VINA RESULT:      -5.6     20.904     27.098
ROOT
ATOM      1  C1  A00 X   1       6.279  56.203  65.2230  0.00  0.00     0.000 C
ATOM      2  C2  A00 X   1       7.548  55.346  65.4770  0.00  0.00     0.000 C
ATOM      3  C3  A00 X   1       8.727  55.548  64.4690  0.00  0.00     0.000 C
ATOM      4  C4  A00 X   1       8.364  56.285  63.1540  0.00  0.00     0.000 C
ATOM      5  C5  A00 X   1       6.871  56.196  62.8360  0.00  0.00     0.000 C
ATOM      6  O5  A00 X   1       6.221  56.869  63.9370  0.00  0.00     0.000 O
ATOM      7   O  A00 X   1       9.230  54.269  64.0910  0.00  0.00     0.000 O
ATOM      9  HD  A00 X   1       9.207  54.756  63.3760  0.00  0.00     0.000 HD
ATOM      9   O  A00 X   1       8.768  57.653  63.1940  0.00  0.00     0.000 O
ATOM     11  HD  A00 X   1       8.745  58.140  62.4780  0.00  0.00     0.000 HD
ENDROOT
BRANCH 2 11
ATOM     11   O  A00 X   1       8.013  55.636  66.8090  0.00  0.00     0.000 O
ATOM     12   O  A00 X   1       9.459  54.136  68.0040  0.00  0.00     0.000 OA
ATOM     13   O  A00 X   1       7.212  53.410  67.4180  0.00  0.00     0.000 OA
ATOM     14   O  A00 X   1       7.542  55.121  69.0370  0.00  0.00     0.000 OA
ATOM     15   S  A00 X   1       8.066  54.477  67.8630  0.00  0.00     0.000 S
ENDBRANCH 2 11
BRANCH 5 16
ATOM     16   C  A00 X   1       6.345  54.779  62.5870  0.00  0.00     0.000 C
ATOM     17   O  A00 X   1       5.179  54.542  62.8250  0.00  0.00     0.000 OA
ATOM     18   O  A00 X   1       7.050  53.888  62.1550  0.00  0.00     0.000 OA
ENDBRANCH 5 16
BRANCH 1 19
ATOM     19  O4  A00 X   2       5.052  55.487  65.5030  0.00  0.00     0.000 O
BRANCH 19 23
ATOM     20  C1  A00 X   2       2.665  58.905  66.4960  0.00  0.00     0.000 C
ATOM     21  C2  A00 X   2       3.659  58.392  67.5660  0.00  0.00     0.000 C
ATOM     22  C3  A00 X   2       4.722  57.470  66.9320  0.00  0.00     0.000 C
ATOM     23  C4  A00 X   2       4.048  56.326  66.1420  0.00  0.00     0.000 C
ATOM     24  C5  A00 X   2       3.068  56.967  65.1210  0.00  0.00     0.000 C
ATOM     25  O5  A00 X   2       2.080  57.744  65.8470  0.00  0.00     0.000 O
ATOM     26   O  A00 X   2       5.658  57.077  67.9500  0.00  0.00     0.000 O
ATOM     28  HD  A00 X   2       5.035  56.831  68.4980  0.00  0.00     0.000 HD
BRANCH 21 30
ATOM     28   N  A00 X   2       4.770  58.782  68.4400  0.00  0.00     0.000 N
ATOM     30  HD  A00 X   2       4.046  59.091  68.8010  0.00  0.00     0.000 HD
ATOM     30   O  A00 X   2       3.882  59.422  70.5040  0.00  0.00     0.000 OA
ATOM     31   S  A00 X   2       4.574  60.012  69.4130  0.00  0.00     0.000 S
ATOM     32   O  A00 X   2       5.910  60.432  69.7020  0.00  0.00     0.000 OA
ATOM     33   O  A00 X   2       3.881  61.027  68.6780  0.00  0.00     0.000 OA
ENDBRANCH 21 30
BRANCH 24 34
ATOM     34   C  A00 X   2       2.435  56.050  64.0480  0.00  0.00     0.000 C
ATOM     35   O  A00 X   2       1.525  57.153  60.7000  0.00  0.00     0.000 OA
ATOM     36   O  A00 X   2       1.865  56.821  62.9720  0.00  0.00     0.000 O
ATOM     37   O  A00 X   2       3.693  57.373  61.6200  0.00  0.00     0.000 OA
ATOM     38   S  A00 X   2       2.507  56.574  61.5570  0.00  0.00     0.000 S
ATOM     39   O  A00 X   2       2.667  55.157  61.4270  0.00  0.00     0.000 OA
ENDBRANCH 24 34
BRANCH 20 40
ATOM     40  O4  A00 X   3       3.458  59.636  65.5490  0.00  0.00     0.000 O
BRANCH 40 44
ATOM     41  C1  A00 X   3       4.525  61.017  62.3750  0.00  0.00     0.000 C
ATOM     42  C2  A00 X   3       5.117  61.406  63.7470  0.00  0.00     0.000 C
ATOM     43  C3  A00 X   3       3.994  61.779  64.7500  0.00  0.00     0.000 C
ATOM     44  C4  A00 X   3       2.870  60.755  64.8520  0.00  0.00     0.000 C
ATOM     45  C5  A00 X   3       2.325  60.421  63.4350  0.00  0.00     0.000 C
ATOM     46  O5  A00 X   3       3.418  60.085  62.5200  0.00  0.00     0.000 O
ATOM     47   O  A00 X   3       4.429  62.239  66.0280  0.00  0.00     0.000 O
ATOM     49  HD  A00 X   3       3.754  61.769  66.3010  0.00  0.00     0.000 HD
BRANCH 42 49
ATOM     49   O  A00 X   3       5.885  60.275  64.2120  0.00  0.00     0.000 O
ATOM     50   O  A00 X   3       7.017  59.660  66.2300  0.00  0.00     0.000 OA
ATOM     51   O  A00 X   3       7.200  61.885  65.4510  0.00  0.00     0.000 OA
ATOM     52   O  A00 X   3       8.231  60.164  64.2010  0.00  0.00     0.000 OA
ATOM     53   S  A00 X   3       7.160  60.493  65.0780  0.00  0.00     0.000 S
ENDBRANCH 42 49
BRANCH 45 54
ATOM     54   C  A00 X   3       1.412  61.531  62.9020  0.00  0.00     0.000 C
ATOM     55   O  A00 X   3       0.963  61.475  61.7750  0.00  0.00     0.000 OA
ATOM     56   O  A00 X   3       1.120  62.490  63.5990  0.00  0.00     0.000 OA
ENDBRANCH 45 54
BRANCH 41 57
ATOM     57  O4  A00 X   4       4.211  62.183  61.5800  0.00  0.00     0.000 O
BRANCH 57 61
ATOM     58  C1  A00 X   4       3.817  62.831  57.3300  0.00  0.00     0.000 C
ATOM     59  C2  A00 X   4       2.818  61.876  58.0300  0.00  0.00     0.000 C
ATOM     60  C3  A00 X   4       2.823  62.000  59.5670  0.00  0.00     0.000 C
ATOM     61  C4  A00 X   4       4.257  61.979  60.1390  0.00  0.00     0.000 C
ATOM     62  C5  A00 X   4       5.016  63.145  59.4570  0.00  0.00     0.000 C
ATOM     63  O5  A00 X   4       5.081  62.900  58.0290  0.00  0.00     0.000 O
BRANCH 59 66
ATOM     64   N  A00 X   4       1.859  60.757  58.0490  0.00  0.00     0.000 N
ATOM     66  HD  A00 X   4       2.137  59.998  58.3590  0.00  0.00     0.000 HD
ATOM     66   O  A00 X   4       2.020  60.709  55.6460  0.00  0.00     0.000 OA
ATOM     67   S  A00 X   4       1.099  60.388  56.6910  0.00  0.00     0.000 S
ATOM     68   O  A00 X   4       0.864  58.989  56.8980  0.00  0.00     0.000 OA
ATOM     69   O  A00 X   4      -0.072  61.207  56.8260  0.00  0.00     0.000 OA
ENDBRANCH 59 66
BRANCH 62 70
ATOM     70   C  A00 X   4       6.454  63.358  59.9860  0.00  0.00     0.000 C
ATOM     71   O  A00 X   4       9.422  61.393  59.3230  0.00  0.00     0.000 OA
ATOM     72   O  A00 X   4       8.514  62.163  61.3540  0.00  0.00     0.000 OA
ATOM     73   O  A00 X   4       7.355  62.495  59.2730  0.00  0.00     0.000 O
ATOM     74   O  A00 X   4       7.477  60.279  60.2100  0.00  0.00     0.000 OA
ATOM     75   S  A00 X   4       8.223  61.491  60.1080  0.00  0.00     0.000 S
ENDBRANCH 62 70
ENDBRANCH 57 61
ENDBRANCH 41 57
ENDBRANCH 40 44
ENDBRANCH 20 40
ENDBRANCH 19 23
ENDBRANCH 1 19
TORSDOF 14
ENDMDL
MODEL 59
REMARK VINA RESULT:      -5.5     23.057     28.036
ROOT
ATOM      1  C1  A00 X   1      30.071  45.828  62.2220  0.00  0.00     0.000 C
ATOM      2  C2  A00 X   1      31.603  45.714  62.0000  0.00  0.00     0.000 C
ATOM      3  C3  A00 X   1      32.372  44.769  62.9810  0.00  0.00     0.000 C
ATOM      4  C4  A00 X   1      31.596  44.359  64.2590  0.00  0.00     0.000 C
ATOM      5  C5  A00 X   1      30.480  45.346  64.5990  0.00  0.00     0.000 C
ATOM      6  O5  A00 X   1      29.578  45.283  63.4710  0.00  0.00     0.000 O
ATOM      7   O  A00 X   1      33.555  45.432  63.4210  0.00  0.00     0.000 O
ATOM      9  HD  A00 X   1      33.215  45.032  64.1100  0.00  0.00     0.000 HD
ATOM      9   O  A00 X   1      31.057  43.042  64.1420  0.00  0.00     0.000 O
ATOM     11  HD  A00 X   1      30.717  42.643  64.8310  0.00  0.00     0.000 HD
ENDROOT
BRANCH 2 11
ATOM     11   O  A00 X   1      31.817  45.262  60.6480  0.00  0.00     0.000 O
ATOM     12   O  A00 X   1      34.021  45.020  59.7250  0.00  0.00     0.000 OA
ATOM     13   O  A00 X   1      33.237  47.231  60.3690  0.00  0.00     0.000 OA
ATOM     14   O  A00 X   1      32.265  46.101  58.5150  0.00  0.00     0.000 OA
ATOM     15   S  A00 X   1      32.926  45.956  59.7840  0.00  0.00     0.000 S
ENDBRANCH 2 11
BRANCH 5 16
ATOM     16   C  A00 X   1      30.950  46.766  64.9290  0.00  0.00     0.000 C
ATOM     17   O  A00 X   1      30.119  47.646  65.0230  0.00  0.00     0.000 OA
ATOM     18   O  A00 X   1      32.120  47.041  65.1070  0.00  0.00     0.000 OA
ENDBRANCH 5 16
BRANCH 1 19
ATOM     19  O4  A00 X   2      29.569  47.167  61.9950  0.00  0.00     0.000 O
BRANCH 19 23
ATOM     20  C1  A00 X   2      25.862  45.844  60.3000  0.00  0.00     0.000 C
ATOM     21  C2  A00 X   2      27.016  46.177  59.3240  0.00  0.00     0.000 C
ATOM     22  C3  A00 X   2      28.369  46.211  60.0630  0.00  0.00     0.000 C
ATOM     23  C4  A00 X   2      28.306  47.175  61.2690  0.00  0.00     0.000 C
ATOM     24  C5  A00 X   2      27.105  46.748  62.1560  0.00  0.00     0.000 C
ATOM     25  O5  A00 X   2      25.889  46.829  61.3670  0.00  0.00     0.000 O
ATOM     26   O  A00 X   2      29.413  46.455  59.1050  0.00  0.00     0.000 O
ATOM     28  HD  A00 X   2      29.006  47.137  58.7600  0.00  0.00     0.000 HD
BRANCH 21 30
ATOM     28   N  A00 X   2      27.907  45.803  58.2210  0.00  0.00     0.000 N
ATOM     30  HD  A00 X   2      27.114  45.891  57.8840  0.00  0.00     0.000 HD
ATOM     30   O  A00 X   2      26.812  46.271  56.2110  0.00  0.00     0.000 OA
ATOM     31   S  A00 X   2      27.279  45.140  56.9300  0.00  0.00     0.000 S
ATOM     32   O  A00 X   2      28.383  44.456  56.3300  0.00  0.00     0.000 OA
ATOM     33   O  A00 X   2      26.293  44.200  57.3740  0.00  0.00     0.000 OA
ENDBRANCH 21 30
BRANCH 24 34
ATOM     34   C  A00 X   2      26.959  47.409  63.5470  0.00  0.00     0.000 C
ATOM     35   O  A00 X   2      23.932  49.063  64.7120  0.00  0.00     0.000 OA
ATOM     36   O  A00 X   2      25.808  48.276  63.5950  0.00  0.00     0.000 O
ATOM     37   O  A00 X   2      24.003  46.829  63.9410  0.00  0.00     0.000 OA
ATOM     38   S  A00 X   2      24.702  47.866  64.6360  0.00  0.00     0.000 S
ATOM     39   O  A00 X   2      25.391  47.510  65.8400  0.00  0.00     0.000 OA
ENDBRANCH 24 34
BRANCH 20 40
ATOM     40  O4  A00 X   3      26.169  44.548  60.8360  0.00  0.00     0.000 O
BRANCH 40 44
ATOM     41  C1  A00 X   3      26.477  41.583  62.8940  0.00  0.00     0.000 C
ATOM     42  C2  A00 X   3      26.603  41.603  61.3550  0.00  0.00     0.000 C
ATOM     43  C3  A00 X   3      25.397  42.333  60.7090  0.00  0.00     0.000 C
ATOM     44  C4  A00 X   3      25.095  43.704  61.3020  0.00  0.00     0.000 C
ATOM     45  C5  A00 X   3      24.978  43.601  62.8490  0.00  0.00     0.000 C
ATOM     46  O5  A00 X   3      26.131  42.896  63.4140  0.00  0.00     0.000 O
ATOM     47   O  A00 X   3      25.363  42.337  59.2830  0.00  0.00     0.000 O
ATOM     49  HD  A00 X   3      25.078  43.146  59.4050  0.00  0.00     0.000 HD
BRANCH 42 49
ATOM     49   O  A00 X   3      27.849  42.263  61.0410  0.00  0.00     0.000 O
ATOM     50   O  A00 X   3      29.031  42.878  59.0520  0.00  0.00     0.000 OA
ATOM     51   O  A00 X   3      27.976  40.764  59.1450  0.00  0.00     0.000 OA
ATOM     52   O  A00 X   3      29.852  41.149  60.5300  0.00  0.00     0.000 OA
ATOM     53   S  A00 X   3      28.740  41.746  59.8740  0.00  0.00     0.000 S
ENDBRANCH 42 49
BRANCH 45 54
ATOM     54   C  A00 X   3      23.635  43.000  63.2780  0.00  0.00     0.000 C
ATOM     55   O  A00 X   3      22.948  42.390  62.4840  0.00  0.00     0.000 OA
ATOM     56   O  A00 X   3      23.231  43.124  64.4240  0.00  0.00     0.000 OA
ENDBRANCH 45 54
BRANCH 41 57
ATOM     57  O4  A00 X   4      25.603  40.524  63.3440  0.00  0.00     0.000 O
BRANCH 57 61
ATOM     58  C1  A00 X   4      25.515  38.118  66.9280  0.00  0.00     0.000 C
ATOM     59  C2  A00 X   4      25.385  39.655  67.0640  0.00  0.00     0.000 C
ATOM     60  C3  A00 X   4      25.069  40.366  65.7320  0.00  0.00     0.000 C
ATOM     61  C4  A00 X   4      25.995  39.887  64.5930  0.00  0.00     0.000 C
ATOM     62  C5  A00 X   4      25.807  38.353  64.4950  0.00  0.00     0.000 C
ATOM     63  O5  A00 X   4      26.240  37.739  65.7360  0.00  0.00     0.000 O
BRANCH 59 66
ATOM     64   N  A00 X   4      25.150  40.859  67.8810  0.00  0.00     0.000 N
ATOM     66  HD  A00 X   4      25.662  41.544  67.7420  0.00  0.00     0.000 HD
ATOM     66   O  A00 X   4      26.009  39.627  69.7640  0.00  0.00     0.000 OA
ATOM     67   S  A00 X   4      25.108  40.698  69.4720  0.00  0.00     0.000 S
ATOM     68   O  A00 X   4      25.549  42.002  69.8750  0.00  0.00     0.000 OA
ATOM     69   O  A00 X   4      23.705  40.465  69.6670  0.00  0.00     0.000 OA
ENDBRANCH 59 66
BRANCH 62 70
ATOM     70   C  A00 X   4      26.579  37.695  63.3260  0.00  0.00     0.000 C
ATOM     71   O  A00 X   4      30.154  37.312  62.9070  0.00  0.00     0.000 OA
ATOM     72   O  A00 X   4      28.515  38.125  61.4250  0.00  0.00     0.000 OA
ATOM     73   O  A00 X   4      27.960  37.545  63.6930  0.00  0.00     0.000 O
ATOM     74   O  A00 X   4      29.268  39.524  63.2730  0.00  0.00     0.000 OA
ATOM     75   S  A00 X   4      29.040  38.208  62.7700  0.00  0.00     0.000 S
ENDBRANCH 62 70
ENDBRANCH 57 61
ENDBRANCH 41 57
ENDBRANCH 40 44
ENDBRANCH 20 40
ENDBRANCH 19 23
ENDBRANCH 1 19
TORSDOF 14
ENDMDL
MODEL 60
REMARK VINA RESULT:      -5.5     13.598     18.715
ROOT
ATOM      1  C1  A00 X   1       6.826  53.298  72.9150  0.00  0.00     0.000 C
ATOM      2  C2  A00 X   1       6.347  52.077  73.7450  0.00  0.00     0.000 C
ATOM      3  C3  A00 X   1       7.081  50.724  73.4620  0.00  0.00     0.000 C
ATOM      4  C4  A00 X   1       7.920  50.678  72.1600  0.00  0.00     0.000 C
ATOM      5  C5  A00 X   1       7.460  51.719  71.1390  0.00  0.00     0.000 C
ATOM      6  O5  A00 X   1       7.683  52.992  71.7870  0.00  0.00     0.000 O
ATOM      7   O  A00 X   1       6.106  49.690  73.3530  0.00  0.00     0.000 O
ATOM      9  HD  A00 X   1       6.694  49.553  72.7330  0.00  0.00     0.000 HD
ATOM      9   O  A00 X   1       9.311  50.848  72.4290  0.00  0.00     0.000 O
ATOM     11  HD  A00 X   1       9.900  50.711  71.8090  0.00  0.00     0.000 HD
ENDROOT
BRANCH 2 11
ATOM     11   O  A00 X   1       6.495  52.409  75.1390  0.00  0.00     0.000 O
ATOM     12   O  A00 X   1       5.483  51.091  76.8720  0.00  0.00     0.000 OA
ATOM     13   O  A00 X   1       4.061  52.261  75.2830  0.00  0.00     0.000 OA
ATOM     14   O  A00 X   1       5.349  53.478  76.8700  0.00  0.00     0.000 OA
ATOM     15   S  A00 X   1       5.253  52.276  76.0860  0.00  0.00     0.000 S
ENDBRANCH 2 11
BRANCH 5 16
ATOM     16   C  A00 X   1       6.028  51.535  70.6270  0.00  0.00     0.000 C
ATOM     17   O  A00 X   1       5.473  50.474  70.8210  0.00  0.00     0.000 OA
ATOM     18   O  A00 X   1       5.428  52.414  70.0400  0.00  0.00     0.000 OA
ENDBRANCH 5 16
BRANCH 1 19
ATOM     19  O4  A00 X   2       5.740  54.176  72.5290  0.00  0.00     0.000 O
BRANCH 19 23
ATOM     20  C1  A00 X   2       8.126  57.733  72.6640  0.00  0.00     0.000 C
ATOM     21  C2  A00 X   2       7.313  57.370  73.9300  0.00  0.00     0.000 C
ATOM     22  C3  A00 X   2       6.871  55.892  73.8940  0.00  0.00     0.000 C
ATOM     23  C4  A00 X   2       6.112  55.583  72.5840  0.00  0.00     0.000 C
ATOM     24  C5  A00 X   2       7.020  56.006  71.3980  0.00  0.00     0.000 C
ATOM     25  O5  A00 X   2       7.301  57.426  71.5080  0.00  0.00     0.000 O
ATOM     26   O  A00 X   2       6.182  55.586  75.1180  0.00  0.00     0.000 O
ATOM     28  HD  A00 X   2       5.659  56.274  75.0540  0.00  0.00     0.000 HD
BRANCH 21 30
ATOM     28   N  A00 X   2       7.079  57.098  75.3520  0.00  0.00     0.000 N
ATOM     30  HD  A00 X   2       7.358  57.916  75.2950  0.00  0.00     0.000 HD
ATOM     30   O  A00 X   2       7.000  59.143  76.4790  0.00  0.00     0.000 OA
ATOM     31   S  A00 X   2       7.823  57.987  76.4260  0.00  0.00     0.000 S
ATOM     32   O  A00 X   2       7.805  57.179  77.6060  0.00  0.00     0.000 OA
ATOM     33   O  A00 X   2       9.168  58.168  75.9670  0.00  0.00     0.000 OA
ENDBRANCH 21 30
BRANCH 24 34
ATOM     34   C  A00 X   2       6.590  55.592  69.9710  0.00  0.00     0.000 C
ATOM     35   O  A00 X   2       3.406  56.497  68.4550  0.00  0.00     0.000 OA
ATOM     36   O  A00 X   2       5.174  55.780  69.7760  0.00  0.00     0.000 O
ATOM     37   O  A00 X   2       4.945  58.064  69.3310  0.00  0.00     0.000 OA
ATOM     38   S  A00 X   2       4.782  56.813  68.6570  0.00  0.00     0.000 S
ATOM     39   O  A00 X   2       5.636  56.544  67.5400  0.00  0.00     0.000 OA
ENDBRANCH 24 34
BRANCH 20 40
ATOM     40  O4  A00 X   3       9.272  56.870  72.6780  0.00  0.00     0.000 O
BRANCH 40 44
ATOM     41  C1  A00 X   3      11.817  54.814  71.1220  0.00  0.00     0.000 C
ATOM     42  C2  A00 X   3      11.732  55.115  72.6340  0.00  0.00     0.000 C
ATOM     43  C3  A00 X   3      11.601  56.639  72.8900  0.00  0.00     0.000 C
ATOM     44  C4  A00 X   3      10.506  57.324  72.0820  0.00  0.00     0.000 C
ATOM     45  C5  A00 X   3      10.662  56.978  70.5750  0.00  0.00     0.000 C
ATOM     46  O5  A00 X   3      10.793  55.533  70.3810  0.00  0.00     0.000 O
ATOM     47   O  A00 X   3      11.601  57.043  74.2580  0.00  0.00     0.000 O
ATOM     49  HD  A00 X   3      11.000  57.600  73.9770  0.00  0.00     0.000 HD
BRANCH 42 49
ATOM     49   O  A00 X   3      10.590  54.393  73.1460  0.00  0.00     0.000 O
ATOM     50   O  A00 X   3       9.497  54.156  75.2620  0.00  0.00     0.000 OA
ATOM     51   O  A00 X   3      11.860  54.161  75.1930  0.00  0.00     0.000 OA
ATOM     52   O  A00 X   3      10.709  52.325  74.2510  0.00  0.00     0.000 OA
ATOM     53   S  A00 X   3      10.652  53.715  74.5460  0.00  0.00     0.000 S
ENDBRANCH 42 49
BRANCH 45 54
ATOM     54   C  A00 X   3      11.795  57.779  69.9220  0.00  0.00     0.000 C
ATOM     55   O  A00 X   3      12.147  57.540  68.7850  0.00  0.00     0.000 OA
ATOM     56   O  A00 X   3      12.363  58.671  70.5340  0.00  0.00     0.000 OA
ENDBRANCH 45 54
BRANCH 41 57
ATOM     57  O4  A00 X   4      13.156  55.009  70.6140  0.00  0.00     0.000 O
BRANCH 57 61
ATOM     58  C1  A00 X   4      15.606  52.584  68.0150  0.00  0.00     0.000 C
ATOM     59  C2  A00 X   4      14.921  53.842  67.4260  0.00  0.00     0.000 C
ATOM     60  C3  A00 X   4      14.383  54.809  68.5010  0.00  0.00     0.000 C
ATOM     61  C4  A00 X   4      13.568  54.068  69.5830  0.00  0.00     0.000 C
ATOM     62  C5  A00 X   4      14.513  52.996  70.1820  0.00  0.00     0.000 C
ATOM     63  O5  A00 X   4      14.879  52.050  69.1460  0.00  0.00     0.000 O
BRANCH 59 66
ATOM     64   N  A00 X   4      13.919  54.199  66.4060  0.00  0.00     0.000 N
ATOM     66  HD  A00 X   4      13.143  53.817  66.4570  0.00  0.00     0.000 HD
ATOM     66   O  A00 X   4      15.263  52.997  64.8100  0.00  0.00     0.000 OA
ATOM     67   S  A00 X   4      14.332  54.080  64.8650  0.00  0.00     0.000 S
ATOM     68   O  A00 X   4      13.051  53.823  64.2740  0.00  0.00     0.000 OA
ATOM     69   O  A00 X   4      14.831  55.406  64.6340  0.00  0.00     0.000 OA
ENDBRANCH 59 66
BRANCH 62 70
ATOM     70   C  A00 X   4      13.907  52.213  71.3710  0.00  0.00     0.000 C
ATOM     71   O  A00 X   4      15.216  49.288  73.0550  0.00  0.00     0.000 OA
ATOM     72   O  A00 X   4      13.069  49.731  72.1960  0.00  0.00     0.000 OA
ATOM     73   O  A00 X   4      14.879  51.281  71.8710  0.00  0.00     0.000 O
ATOM     74   O  A00 X   4      14.889  49.194  70.6680  0.00  0.00     0.000 OA
ATOM     75   S  A00 X   4      14.487  49.763  71.9130  0.00  0.00     0.000 S
ENDBRANCH 62 70
ENDBRANCH 57 61
ENDBRANCH 41 57
ENDBRANCH 40 44
ENDBRANCH 20 40
ENDBRANCH 19 23
ENDBRANCH 1 19
TORSDOF 14
ENDMDL
MODEL 61
REMARK VINA RESULT:      -5.5     20.962     26.510
ROOT
ATOM      1  C1  A00 X   1      19.011  53.934  59.1710  0.00  0.00     0.000 C
ATOM      2  C2  A00 X   1      19.001  52.388  59.3040  0.00  0.00     0.000 C
ATOM      3  C3  A00 X   1      20.395  51.682  59.2290  0.00  0.00     0.000 C
ATOM      4  C4  A00 X   1      21.554  52.549  58.6730  0.00  0.00     0.000 C
ATOM      5  C5  A00 X   1      21.048  53.706  57.8120  0.00  0.00     0.000 C
ATOM      6  O5  A00 X   1      20.257  54.515  58.7110  0.00  0.00     0.000 O
ATOM      7   O  A00 X   1      20.289  50.549  58.3700  0.00  0.00     0.000 O
ATOM      9  HD  A00 X   1      21.043  50.936  58.1910  0.00  0.00     0.000 HD
ATOM      9   O  A00 X   1      22.378  53.054  59.7230  0.00  0.00     0.000 O
ATOM     11  HD  A00 X   1      23.132  53.441  59.5440  0.00  0.00     0.000 HD
ENDROOT
BRANCH 2 11
ATOM     11   O  A00 X   1      18.376  52.060  60.5600  0.00  0.00     0.000 O
ATOM     12   O  A00 X   1      18.675  49.919  61.6070  0.00  0.00     0.000 OA
ATOM     13   O  A00 X   1      17.548  50.044  59.4550  0.00  0.00     0.000 OA
ATOM     14   O  A00 X   1      16.518  50.928  61.4080  0.00  0.00     0.000 OA
ATOM     15   S  A00 X   1      17.761  50.630  60.7500  0.00  0.00     0.000 S
ENDBRANCH 2 11
BRANCH 5 16
ATOM     16   C  A00 X   1      20.298  53.289  56.5430  0.00  0.00     0.000 C
ATOM     17   O  A00 X   1      19.699  54.138  55.9160  0.00  0.00     0.000 OA
ATOM     18   O  A00 X   1      20.287  52.143  56.1390  0.00  0.00     0.000 OA
ENDBRANCH 5 16
BRANCH 1 19
ATOM     19  O4  A00 X   2      17.883  54.440  58.4180  0.00  0.00     0.000 O
BRANCH 19 23
ATOM     20  C1  A00 X   2      16.306  56.635  61.7440  0.00  0.00     0.000 C
ATOM     21  C2  A00 X   2      15.469  55.447  61.2100  0.00  0.00     0.000 C
ATOM     22  C3  A00 X   2      16.334  54.514  60.3360  0.00  0.00     0.000 C
ATOM     23  C4  A00 X   2      17.028  55.313  59.2100  0.00  0.00     0.000 C
ATOM     24  C5  A00 X   2      17.814  56.479  59.8700  0.00  0.00     0.000 C
ATOM     25  O5  A00 X   2      16.880  57.319  60.5980  0.00  0.00     0.000 O
ATOM     26   O  A00 X   2      15.532  53.395  59.9230  0.00  0.00     0.000 O
ATOM     28  HD  A00 X   2      14.885  53.898  59.6430  0.00  0.00     0.000 HD
BRANCH 21 30
ATOM     28   N  A00 X   2      14.252  56.201  61.5260  0.00  0.00     0.000 N
ATOM     30  HD  A00 X   2      14.014  55.376  61.4140  0.00  0.00     0.000 HD
ATOM     30   O  A00 X   2      12.588  54.677  62.1280  0.00  0.00     0.000 OA
ATOM     31   S  A00 X   2      12.855  55.606  61.0880  0.00  0.00     0.000 S
ATOM     32   O  A00 X   2      11.994  56.747  61.0610  0.00  0.00     0.000 OA
ATOM     33   O  A00 X   2      13.017  55.073  59.7680  0.00  0.00     0.000 OA
ENDBRANCH 21 30
BRANCH 24 34
ATOM     34   C  A00 X   2      18.784  57.295  58.9830  0.00  0.00     0.000 C
ATOM     35   O  A00 X   2      19.426  60.854  59.3990  0.00  0.00     0.000 OA
ATOM     36   O  A00 X   2      18.571  58.712  59.1420  0.00  0.00     0.000 O
ATOM     37   O  A00 X   2      19.704  59.252  61.1160  0.00  0.00     0.000 OA
ATOM     38   S  A00 X   2      19.798  59.514  59.7120  0.00  0.00     0.000 S
ATOM     39   O  A00 X   2      20.955  59.028  59.0220  0.00  0.00     0.000 OA
ENDBRANCH 24 34
BRANCH 20 40
ATOM     40  O4  A00 X   3      17.356  56.049  62.5280  0.00  0.00     0.000 O
BRANCH 40 44
ATOM     41  C1  A00 X   3      19.429  54.790  65.2190  0.00  0.00     0.000 C
ATOM     42  C2  A00 X   3      17.886  54.839  65.2460  0.00  0.00     0.000 C
ATOM     43  C3  A00 X   3      17.369  56.251  64.8680  0.00  0.00     0.000 C
ATOM     44  C4  A00 X   3      17.962  56.821  63.5860  0.00  0.00     0.000 C
ATOM     45  C5  A00 X   3      19.514  56.741  63.6370  0.00  0.00     0.000 C
ATOM     46  O5  A00 X   3      19.956  55.395  64.0060  0.00  0.00     0.000 O
ATOM     47   O  A00 X   3      15.957  56.438  64.9440  0.00  0.00     0.000 O
ATOM     49  HD  A00 X   3      16.093  56.902  64.2260  0.00  0.00     0.000 HD
BRANCH 42 49
ATOM     49   O  A00 X   3      17.414  53.838  64.3170  0.00  0.00     0.000 O
ATOM     50   O  A00 X   3      15.287  53.005  63.6000  0.00  0.00     0.000 OA
ATOM     51   O  A00 X   3      15.623  53.449  65.8970  0.00  0.00     0.000 OA
ATOM     52   O  A00 X   3      16.801  51.652  64.9130  0.00  0.00     0.000 OA
ATOM     53   S  A00 X   3      16.209  52.926  64.6890  0.00  0.00     0.000 S
ENDBRANCH 42 49
BRANCH 45 54
ATOM     54   C  A00 X   3      20.110  57.838  64.5270  0.00  0.00     0.000 C
ATOM     55   O  A00 X   3      19.404  58.469  65.2880  0.00  0.00     0.000 OA
ATOM     56   O  A00 X   3      21.303  58.097  64.4870  0.00  0.00     0.000 OA
ENDBRANCH 45 54
BRANCH 41 57
ATOM     57  O4  A00 X   4      20.001  55.318  66.4360  0.00  0.00     0.000 O
BRANCH 57 61
ATOM     58  C1  A00 X   4      23.585  54.354  68.6410  0.00  0.00     0.000 C
ATOM     59  C2  A00 X   4      23.720  54.788  67.1600  0.00  0.00     0.000 C
ATOM     60  C3  A00 X   4      22.445  55.443  66.5930  0.00  0.00     0.000 C
ATOM     61  C4  A00 X   4      21.182  54.617  66.9190  0.00  0.00     0.000 C
ATOM     62  C5  A00 X   4      21.134  54.484  68.4610  0.00  0.00     0.000 C
ATOM     63  O5  A00 X   4      22.300  53.750  68.9140  0.00  0.00     0.000 O
BRANCH 59 66
ATOM     64   N  A00 X   4      23.954  53.549  66.3970  0.00  0.00     0.000 N
ATOM     66  HD  A00 X   4      23.664  52.808  66.7380  0.00  0.00     0.000 HD
ATOM     66   O  A00 X   4      26.291  53.778  66.9340  0.00  0.00     0.000 OA
ATOM     67   S  A00 X   4      25.447  53.222  65.9230  0.00  0.00     0.000 S
ATOM     68   O  A00 X   4      25.396  51.790  65.8800  0.00  0.00     0.000 OA
ATOM     69   O  A00 X   4      25.445  53.849  64.6320  0.00  0.00     0.000 OA
ENDBRANCH 59 66
BRANCH 62 70
ATOM     70   C  A00 X   4      19.868  53.773  68.9950  0.00  0.00     0.000 C
ATOM     71   O  A00 X   4      18.928  50.291  68.6820  0.00  0.00     0.000 OA
ATOM     72   O  A00 X   4      17.699  52.256  68.2610  0.00  0.00     0.000 OA
ATOM     73   O  A00 X   4      20.028  52.352  68.8580  0.00  0.00     0.000 O
ATOM     74   O  A00 X   4      19.406  51.540  66.6760  0.00  0.00     0.000 OA
ATOM     75   S  A00 X   4      18.951  51.569  68.0280  0.00  0.00     0.000 S
ENDBRANCH 62 70
ENDBRANCH 57 61
ENDBRANCH 41 57
ENDBRANCH 40 44
ENDBRANCH 20 40
ENDBRANCH 19 23
ENDBRANCH 1 19
TORSDOF 14
ENDMDL
MODEL 62
REMARK VINA RESULT:      -5.5     12.397     17.108
ROOT
ATOM      1  C1  A00 X   1       7.320  53.386  72.3850  0.00  0.00     0.000 C
ATOM      2  C2  A00 X   1       6.158  52.426  72.0140  0.00  0.00     0.000 C
ATOM      3  C3  A00 X   1       6.531  51.222  71.0870  0.00  0.00     0.000 C
ATOM      4  C4  A00 X   1       7.898  51.334  70.3640  0.00  0.00     0.000 C
ATOM      5  C5  A00 X   1       8.373  52.782  70.2460  0.00  0.00     0.000 C
ATOM      6  O5  A00 X   1       8.535  53.227  71.6120  0.00  0.00     0.000 O
ATOM      7   O  A00 X   1       5.542  51.106  70.0670  0.00  0.00     0.000 O
ATOM      9  HD  A00 X   1       6.311  50.975  69.6930  0.00  0.00     0.000 HD
ATOM      9   O  A00 X   1       8.898  50.550  71.0150  0.00  0.00     0.000 O
ATOM     11  HD  A00 X   1       9.668  50.419  70.6400  0.00  0.00     0.000 HD
ENDROOT
BRANCH 2 11
ATOM     11   O  A00 X   1       5.600  51.919  73.2410  0.00  0.00     0.000 O
ATOM     12   O  A00 X   1       3.946  50.177  73.2590  0.00  0.00     0.000 OA
ATOM     13   O  A00 X   1       3.408  52.319  72.2400  0.00  0.00     0.000 OA
ATOM     14   O  A00 X   1       3.710  52.147  74.5930  0.00  0.00     0.000 OA
ATOM     15   S  A00 X   1       4.064  51.613  73.3050  0.00  0.00     0.000 S
ENDBRANCH 2 11
BRANCH 5 16
ATOM     16   C  A00 X   1       7.470  53.693  69.4080  0.00  0.00     0.000 C
ATOM     17   O  A00 X   1       7.560  54.895  69.5550  0.00  0.00     0.000 OA
ATOM     18   O  A00 X   1       6.676  53.257  68.5980  0.00  0.00     0.000 OA
ENDBRANCH 5 16
BRANCH 1 19
ATOM     19  O4  A00 X   2       6.906  54.774  72.4390  0.00  0.00     0.000 O
BRANCH 19 23
ATOM     20  C1  A00 X   2       9.647  55.895  75.5370  0.00  0.00     0.000 C
ATOM     21  C2  A00 X   2       8.281  55.310  75.9690  0.00  0.00     0.000 C
ATOM     22  C3  A00 X   2       7.605  54.569  74.7960  0.00  0.00     0.000 C
ATOM     23  C4  A00 X   2       7.499  55.490  73.5600  0.00  0.00     0.000 C
ATOM     24  C5  A00 X   2       8.922  56.024  73.2420  0.00  0.00     0.000 C
ATOM     25  O5  A00 X   2       9.413  56.759  74.3930  0.00  0.00     0.000 O
ATOM     26   O  A00 X   2       6.377  53.987  75.2650  0.00  0.00     0.000 O
ATOM     28  HD  A00 X   2       6.104  54.727  75.6230  0.00  0.00     0.000 HD
BRANCH 21 30
ATOM     28   N  A00 X   2       8.066  54.222  76.9290  0.00  0.00     0.000 N
ATOM     30  HD  A00 X   2       8.042  54.962  77.3790  0.00  0.00     0.000 HD
ATOM     30   O  A00 X   2       7.199  55.146  78.8920  0.00  0.00     0.000 OA
ATOM     31   S  A00 X   2       8.379  54.486  78.4560  0.00  0.00     0.000 S
ATOM     32   O  A00 X   2       8.571  53.175  78.9940  0.00  0.00     0.000 OA
ATOM     33   O  A00 X   2       9.600  55.233  78.5160  0.00  0.00     0.000 OA
ENDBRANCH 21 30
BRANCH 24 34
ATOM     34   C  A00 X   2       9.131  56.786  71.9120  0.00  0.00     0.000 C
ATOM     35   O  A00 X   2      12.281  56.880  70.0870  0.00  0.00     0.000 OA
ATOM     36   O  A00 X   2      10.533  56.941  71.6140  0.00  0.00     0.000 O
ATOM     37   O  A00 X   2      11.164  54.885  70.6940  0.00  0.00     0.000 OA
ATOM     38   S  A00 X   2      11.017  56.249  70.2870  0.00  0.00     0.000 S
ATOM     39   O  A00 X   2      10.028  56.543  69.2940  0.00  0.00     0.000 OA
ENDBRANCH 24 34
BRANCH 20 40
ATOM     40  O4  A00 X   3      10.441  54.770  75.1340  0.00  0.00     0.000 O
BRANCH 40 44
ATOM     41  C1  A00 X   3      12.860  52.527  73.6360  0.00  0.00     0.000 C
ATOM     42  C2  A00 X   3      12.148  52.281  74.9850  0.00  0.00     0.000 C
ATOM     43  C3  A00 X   3      12.271  53.518  75.9110  0.00  0.00     0.000 C
ATOM     44  C4  A00 X   3      11.878  54.838  75.2600  0.00  0.00     0.000 C
ATOM     45  C5  A00 X   3      12.637  55.015  73.9150  0.00  0.00     0.000 C
ATOM     46  O5  A00 X   3      12.502  53.821  73.0780  0.00  0.00     0.000 O
ATOM     47   O  A00 X   3      11.724  53.373  77.2200  0.00  0.00     0.000 O
ATOM     49  HD  A00 X   3      11.474  54.191  77.0840  0.00  0.00     0.000 HD
BRANCH 42 49
ATOM     49   O  A00 X   3      10.768  51.981  74.6860  0.00  0.00     0.000 O
ATOM     50   O  A00 X   3       9.047  50.615  75.6370  0.00  0.00     0.000 OA
ATOM     51   O  A00 X   3      11.245  49.754  75.5060  0.00  0.00     0.000 OA
ATOM     52   O  A00 X   3      10.044  50.089  73.4980  0.00  0.00     0.000 OA
ATOM     53   S  A00 X   3      10.229  50.528  74.8380  0.00  0.00     0.000 S
ENDBRANCH 42 49
BRANCH 45 54
ATOM     54   C  A00 X   3      14.095  55.436  74.1370  0.00  0.00     0.000 C
ATOM     55   O  A00 X   3      14.562  55.482  75.2560  0.00  0.00     0.000 OA
ATOM     56   O  A00 X   3      14.811  55.732  73.1930  0.00  0.00     0.000 OA
ENDBRANCH 45 54
BRANCH 41 57
ATOM     57  O4  A00 X   4      14.284  52.304  73.7360  0.00  0.00     0.000 O
BRANCH 57 61
ATOM     58  C1  A00 X   4      17.212  50.635  71.0370  0.00  0.00     0.000 C
ATOM     59  C2  A00 X   4      16.703  52.075  70.7800  0.00  0.00     0.000 C
ATOM     60  C3  A00 X   4      15.954  52.686  71.9820  0.00  0.00     0.000 C
ATOM     61  C4  A00 X   4      14.901  51.714  72.5560  0.00  0.00     0.000 C
ATOM     62  C5  A00 X   4      15.665  50.422  72.9400  0.00  0.00     0.000 C
ATOM     63  O5  A00 X   4      16.238  49.834  71.7440  0.00  0.00     0.000 O
BRANCH 59 66
ATOM     64   N  A00 X   4      15.830  51.586  69.6980  0.00  0.00     0.000 N
ATOM     66  HD  A00 X   4      15.673  50.734  69.6650  0.00  0.00     0.000 HD
ATOM     66   O  A00 X   4      17.613  52.099  68.1630  0.00  0.00     0.000 OA
ATOM     67   S  A00 X   4      16.188  51.993  68.1940  0.00  0.00     0.000 S
ATOM     68   O  A00 X   4      15.637  50.875  67.4850  0.00  0.00     0.000 OA
ATOM     69   O  A00 X   4      15.423  53.202  68.0700  0.00  0.00     0.000 OA
ENDBRANCH 59 66
BRANCH 62 70
ATOM     70   C  A00 X   4      14.790  49.356  73.6410  0.00  0.00     0.000 C
ATOM     71   O  A00 X   4      15.675  45.979  74.6020  0.00  0.00     0.000 OA
ATOM     72   O  A00 X   4      13.808  46.800  73.4250  0.00  0.00     0.000 OA
ATOM     73   O  A00 X   4      15.618  48.255  74.0490  0.00  0.00     0.000 O
ATOM     74   O  A00 X   4      15.963  46.635  72.3000  0.00  0.00     0.000 OA
ATOM     75   S  A00 X   4      15.250  46.825  73.5220  0.00  0.00     0.000 S
ENDBRANCH 62 70
ENDBRANCH 57 61
ENDBRANCH 41 57
ENDBRANCH 40 44
ENDBRANCH 20 40
ENDBRANCH 19 23
ENDBRANCH 1 19
TORSDOF 14
ENDMDL
MODEL 63
REMARK VINA RESULT:      -5.4     21.598     27.981
ROOT
ATOM      1  C1  A00 X   1       7.563  57.221  64.6690  0.00  0.00     0.000 C
ATOM      2  C2  A00 X   1       7.829  55.960  65.5350  0.00  0.00     0.000 C
ATOM      3  C3  A00 X   1       9.006  55.042  65.0670  0.00  0.00     0.000 C
ATOM      4  C4  A00 X   1       9.514  55.289  63.6240  0.00  0.00     0.000 C
ATOM      5  C5  A00 X   1       8.463  55.973  62.7500  0.00  0.00     0.000 C
ATOM      6  O5  A00 X   1       8.234  57.251  63.3850  0.00  0.00     0.000 O
ATOM      7   O  A00 X   1       8.574  53.684  65.1170  0.00  0.00     0.000 O
ATOM      9  HD  A00 X   1       9.032  53.779  64.3890  0.00  0.00     0.000 HD
ATOM      9   O  A00 X   1      10.718  56.056  63.6190  0.00  0.00     0.000 O
ATOM     11  HD  A00 X   1      11.176  56.151  62.8900  0.00  0.00     0.000 HD
ENDROOT
BRANCH 2 11
ATOM     11   O  A00 X   1       8.084  56.400  66.8830  0.00  0.00     0.000 O
ATOM     12   O  A00 X   1       8.913  54.906  68.5710  0.00  0.00     0.000 OA
ATOM     13   O  A00 X   1       6.716  54.509  67.6040  0.00  0.00     0.000 OA
ATOM     14   O  A00 X   1       7.096  56.399  68.9980  0.00  0.00     0.000 OA
ATOM     15   S  A00 X   1       7.681  55.465  68.0740  0.00  0.00     0.000 S
ENDBRANCH 2 11
BRANCH 5 16
ATOM     16   C  A00 X   1       7.182  55.163  62.5240  0.00  0.00     0.000 C
ATOM     17   O  A00 X   1       7.209  53.965  62.7220  0.00  0.00     0.000 OA
ATOM     18   O  A00 X   1       6.142  55.676  62.1630  0.00  0.00     0.000 OA
ENDBRANCH 5 16
BRANCH 1 19
ATOM     19  O4  A00 X   2       6.153  57.523  64.5360  0.00  0.00     0.000 O
BRANCH 19 23
ATOM     20  C1  A00 X   2       6.694  61.605  63.3500  0.00  0.00     0.000 C
ATOM     21  C2  A00 X   2       6.700  61.294  64.8660  0.00  0.00     0.000 C
ATOM     22  C3  A00 X   2       6.931  59.790  65.1180  0.00  0.00     0.000 C
ATOM     23  C4  A00 X   2       5.901  58.943  64.3370  0.00  0.00     0.000 C
ATOM     24  C5  A00 X   2       5.981  59.360  62.8420  0.00  0.00     0.000 C
ATOM     25  O5  A00 X   2       5.674  60.774  62.7340  0.00  0.00     0.000 O
ATOM     26   O  A00 X   2       6.997  59.565  66.5370  0.00  0.00     0.000 O
ATOM     28  HD  A00 X   2       6.264  59.998  66.6900  0.00  0.00     0.000 HD
BRANCH 21 30
ATOM     28   N  A00 X   2       7.487  61.457  66.0920  0.00  0.00     0.000 N
ATOM     30  HD  A00 X   2       7.109  62.220  65.9350  0.00  0.00     0.000 HD
ATOM     30   O  A00 X   2       6.766  63.402  67.1670  0.00  0.00     0.000 OA
ATOM     31   S  A00 X   2       7.932  62.912  66.5220  0.00  0.00     0.000 S
ATOM     32   O  A00 X   2       9.049  62.684  67.3840  0.00  0.00     0.000 OA
ATOM     33   O  A00 X   2       8.351  63.594  65.3340  0.00  0.00     0.000 OA
ENDBRANCH 21 30
BRANCH 24 34
ATOM     34   C  A00 X   2       5.214  58.502  61.8080  0.00  0.00     0.000 C
ATOM     35   O  A00 X   2       2.745  59.829  59.4850  0.00  0.00     0.000 OA
ATOM     36   O  A00 X   2       4.073  59.210  61.2850  0.00  0.00     0.000 O
ATOM     37   O  A00 X   2       4.965  60.627  59.6530  0.00  0.00     0.000 OA
ATOM     38   S  A00 X   2       4.106  59.486  59.7380  0.00  0.00     0.000 S
ATOM     39   O  A00 X   2       4.551  58.273  59.1190  0.00  0.00     0.000 OA
ENDBRANCH 24 34
BRANCH 20 40
ATOM     40  O4  A00 X   3       7.987  61.212  62.8680  0.00  0.00     0.000 O
BRANCH 40 44
ATOM     41  C1  A00 X   3      10.514  59.833  60.6670  0.00  0.00     0.000 C
ATOM     42  C2  A00 X   3      10.809  60.671  61.9310  0.00  0.00     0.000 C
ATOM     43  C3  A00 X   3       9.994  61.989  61.9250  0.00  0.00     0.000 C
ATOM     44  C4  A00 X   3       8.504  61.812  61.6610  0.00  0.00     0.000 C
ATOM     45  C5  A00 X   3       8.289  60.966  60.3750  0.00  0.00     0.000 C
ATOM     46  O5  A00 X   3       9.084  59.737  60.4180  0.00  0.00     0.000 O
ATOM     47   O  A00 X   3      10.252  62.886  63.0040  0.00  0.00     0.000 O
ATOM     49  HD  A00 X   3       9.395  63.005  62.9620  0.00  0.00     0.000 HD
BRANCH 42 49
ATOM     49   O  A00 X   3      10.475  59.849  63.0710  0.00  0.00     0.000 O
ATOM     50   O  A00 X   3      10.384  60.135  65.4460  0.00  0.00     0.000 OA
ATOM     51   O  A00 X   3      12.195  61.075  64.2520  0.00  0.00     0.000 OA
ATOM     52   O  A00 X   3      12.046  58.721  64.4040  0.00  0.00     0.000 OA
ATOM     53   S  A00 X   3      11.314  59.941  64.3790  0.00  0.00     0.000 S
ENDBRANCH 42 49
BRANCH 45 54
ATOM     54   C  A00 X   3       8.525  61.793  59.1050  0.00  0.00     0.000 C
ATOM     55   O  A00 X   3       9.208  62.796  59.1380  0.00  0.00     0.000 OA
ATOM     56   O  A00 X   3       8.030  61.458  58.0400  0.00  0.00     0.000 OA
ENDBRANCH 45 54
BRANCH 41 57
ATOM     57  O4  A00 X   4      11.278  60.294  59.5310  0.00  0.00     0.000 O
BRANCH 57 61
ATOM     58  C1  A00 X   4      12.463  58.413  55.8300  0.00  0.00     0.000 C
ATOM     59  C2  A00 X   4      11.087  59.121  55.8940  0.00  0.00     0.000 C
ATOM     60  C3  A00 X   4      10.928  60.047  57.1170  0.00  0.00     0.000 C
ATOM     61  C4  A00 X   4      11.367  59.352  58.4240  0.00  0.00     0.000 C
ATOM     62  C5  A00 X   4      12.837  58.913  58.2110  0.00  0.00     0.000 C
ATOM     63  O5  A00 X   4      12.895  57.948  57.1290  0.00  0.00     0.000 O
BRANCH 59 66
ATOM     64   N  A00 X   4      10.476  59.908  54.8080  0.00  0.00     0.000 N
ATOM     66  HD  A00 X   4       9.702  60.267  54.9610  0.00  0.00     0.000 HD
ATOM     66   O  A00 X   4      10.143  57.836  53.6270  0.00  0.00     0.000 OA
ATOM     67   S  A00 X   4      10.333  59.229  53.3670  0.00  0.00     0.000 S
ATOM     68   O  A00 X   4       9.185  59.925  52.8660  0.00  0.00     0.000 OA
ATOM     69   O  A00 X   4      11.574  59.636  52.7720  0.00  0.00     0.000 OA
ENDBRANCH 59 66
BRANCH 62 70
ATOM     70   C  A00 X   4      13.497  58.287  59.4630  0.00  0.00     0.000 C
ATOM     71   O  A00 X   4      13.059  54.963  60.8280  0.00  0.00     0.000 OA
ATOM     72   O  A00 X   4      12.979  57.072  61.8710  0.00  0.00     0.000 OA
ATOM     73   O  A00 X   4      13.228  56.876  59.4870  0.00  0.00     0.000 O
ATOM     74   O  A00 X   4      11.107  56.338  60.4940  0.00  0.00     0.000 OA
ATOM     75   S  A00 X   4      12.510  56.287  60.7510  0.00  0.00     0.000 S
ENDBRANCH 62 70
ENDBRANCH 57 61
ENDBRANCH 41 57
ENDBRANCH 40 44
ENDBRANCH 20 40
ENDBRANCH 19 23
ENDBRANCH 1 19
TORSDOF 14
ENDMDL
MODEL 64
REMARK VINA RESULT:      -5.4     21.791     25.703
ROOT
ATOM      1  C1  A00 X   1       6.857  58.304  64.2560  0.00  0.00     0.000 C
ATOM      2  C2  A00 X   1       8.250  57.622  64.3270  0.00  0.00     0.000 C
ATOM      3  C3  A00 X   1       9.208  58.133  65.4540  0.00  0.00     0.000 C
ATOM      4  C4  A00 X   1       8.809  59.479  66.1110  0.00  0.00     0.000 C
ATOM      5  C5  A00 X   1       7.903  60.316  65.2080  0.00  0.00     0.000 C
ATOM      6  O5  A00 X   1       6.712  59.514  65.0390  0.00  0.00     0.000 O
ATOM      7   O  A00 X   1      10.507  58.322  64.8980  0.00  0.00     0.000 O
ATOM      9  HD  A00 X   1      10.355  58.991  65.4270  0.00  0.00     0.000 HD
ATOM      9   O  A00 X   1       8.177  59.276  67.3740  0.00  0.00     0.000 O
ATOM     11  HD  A00 X   1       8.025  59.945  67.9030  0.00  0.00     0.000 HD
ENDROOT
BRANCH 2 11
ATOM     11   O  A00 X   1       8.037  56.207  64.4980  0.00  0.00     0.000 O
ATOM     12   O  A00 X   1       9.818  54.616  64.2500  0.00  0.00     0.000 OA
ATOM     13   O  A00 X   1       9.119  55.929  62.3260  0.00  0.00     0.000 OA
ATOM     14   O  A00 X   1       7.678  54.272  63.2420  0.00  0.00     0.000 OA
ATOM     15   S  A00 X   1       8.734  55.211  63.5100  0.00  0.00     0.000 S
ENDBRANCH 2 11
BRANCH 5 16
ATOM     16   C  A00 X   1       8.536  60.759  63.8850  0.00  0.00     0.000 C
ATOM     17   O  A00 X   1       7.826  61.268  63.0430  0.00  0.00     0.000 OA
ATOM     18   O  A00 X   1       9.721  60.626  63.6540  0.00  0.00     0.000 OA
ENDBRANCH 5 16
BRANCH 1 19
ATOM     19  O4  A00 X   2       6.396  58.497  62.8960  0.00  0.00     0.000 O
BRANCH 19 23
ATOM     20  C1  A00 X   2       2.310  57.634  63.8560  0.00  0.00     0.000 C
ATOM     21  C2  A00 X   2       3.134  56.517  63.1710  0.00  0.00     0.000 C
ATOM     22  C3  A00 X   2       4.646  56.802  63.2840  0.00  0.00     0.000 C
ATOM     23  C4  A00 X   2       4.977  58.210  62.7410  0.00  0.00     0.000 C
ATOM     24  C5  A00 X   2       4.077  59.231  63.4910  0.00  0.00     0.000 C
ATOM     25  O5  A00 X   2       2.686  58.897  63.2440  0.00  0.00     0.000 O
ATOM     26   O  A00 X   2       5.368  55.706  62.6960  0.00  0.00     0.000 O
ATOM     28  HD  A00 X   2       4.901  55.725  61.9670  0.00  0.00     0.000 HD
BRANCH 21 30
ATOM     28   N  A00 X   2       1.984  55.676  63.5170  0.00  0.00     0.000 N
ATOM     30  HD  A00 X   2       2.272  55.402  62.7470  0.00  0.00     0.000 HD
ATOM     30   O  A00 X   2       2.022  53.789  62.1390  0.00  0.00     0.000 OA
ATOM     31   S  A00 X   2       1.210  54.934  62.3550  0.00  0.00     0.000 S
ATOM     32   O  A00 X   2      -0.075  54.664  62.9230  0.00  0.00     0.000 OA
ATOM     33   O  A00 X   2       1.089  55.859  61.2680  0.00  0.00     0.000 OA
ENDBRANCH 21 30
BRANCH 24 34
ATOM     34   C  A00 X   2       4.372  60.737  63.2980  0.00  0.00     0.000 C
ATOM     35   O  A00 X   2       4.176  62.461  60.0970  0.00  0.00     0.000 OA
ATOM     36   O  A00 X   2       4.562  61.058  61.9050  0.00  0.00     0.000 O
ATOM     37   O  A00 X   2       2.393  61.233  61.0470  0.00  0.00     0.000 OA
ATOM     38   S  A00 X   2       3.522  62.073  61.3030  0.00  0.00     0.000 S
ATOM     39   O  A00 X   2       3.367  63.116  62.2720  0.00  0.00     0.000 OA
ENDBRANCH 24 34
BRANCH 20 40
ATOM     40  O4  A00 X   3       2.716  57.627  65.2320  0.00  0.00     0.000 O
BRANCH 40 44
ATOM     41  C1  A00 X   3       3.690  59.680  68.0540  0.00  0.00     0.000 C
ATOM     42  C2  A00 X   3       3.675  58.136  68.0520  0.00  0.00     0.000 C
ATOM     43  C3  A00 X   3       2.313  57.594  67.5460  0.00  0.00     0.000 C
ATOM     44  C4  A00 X   3       1.841  58.197  66.2290  0.00  0.00     0.000 C
ATOM     45  C5  A00 X   3       1.880  59.749  66.3110  0.00  0.00     0.000 C
ATOM     46  O5  A00 X   3       3.178  60.215  66.8020  0.00  0.00     0.000 O
ATOM     47   O  A00 X   3       2.154  56.177  67.5830  0.00  0.00     0.000 O
ATOM     49  HD  A00 X   3       1.750  56.316  66.8300  0.00  0.00     0.000 HD
BRANCH 42 49
ATOM     49   O  A00 X   3       4.762  57.703  67.2050  0.00  0.00     0.000 O
ATOM     50   O  A00 X   3       5.631  55.610  66.4350  0.00  0.00     0.000 OA
ATOM     51   O  A00 X   3       4.944  55.800  68.6890  0.00  0.00     0.000 OA
ATOM     52   O  A00 X   3       6.860  56.995  67.9900  0.00  0.00     0.000 OA
ATOM     53   S  A00 X   3       5.607  56.453  67.5880  0.00  0.00     0.000 S
ENDBRANCH 42 49
BRANCH 45 54
ATOM     54   C  A00 X   3       0.697  60.305  67.1130  0.00  0.00     0.000 C
ATOM     55   O  A00 X   3       0.162  59.634  67.9710  0.00  0.00     0.000 OA
ATOM     56   O  A00 X   3       0.271  61.430  66.9020  0.00  0.00     0.000 OA
ENDBRANCH 45 54
BRANCH 41 57
ATOM     57  O4  A00 X   4       3.045  60.218  69.2300  0.00  0.00     0.000 O
BRANCH 57 61
ATOM     58  C1  A00 X   4       3.680  63.821  71.5230  0.00  0.00     0.000 C
ATOM     59  C2  A00 X   4       3.350  63.950  70.0150  0.00  0.00     0.000 C
ATOM     60  C3  A00 X   4       2.797  62.652  69.3930  0.00  0.00     0.000 C
ATOM     61  C4  A00 X   4       3.655  61.425  69.7700  0.00  0.00     0.000 C
ATOM     62  C5  A00 X   4       3.676  61.368  71.3180  0.00  0.00     0.000 C
ATOM     63  O5  A00 X   4       4.321  62.562  71.8310  0.00  0.00     0.000 O
BRANCH 59 66
ATOM     64   N  A00 X   4       3.847  64.487  68.7350  0.00  0.00     0.000 N
ATOM     66  HD  A00 X   4       4.602  64.181  68.4400  0.00  0.00     0.000 HD
ATOM     66   O  A00 X   4       4.254  66.566  69.8790  0.00  0.00     0.000 OA
ATOM     67   S  A00 X   4       3.958  66.074  68.5710  0.00  0.00     0.000 S
ATOM     68   O  A00 X   4       5.028  66.161  67.6210  0.00  0.00     0.000 OA
ATOM     69   O  A00 X   4       2.662  66.362  68.0240  0.00  0.00     0.000 OA
ENDBRANCH 59 66
BRANCH 62 70
ATOM     70   C  A00 X   4       4.404  60.130  71.8940  0.00  0.00     0.000 C
ATOM     71   O  A00 X   4       7.929  59.313  71.7610  0.00  0.00     0.000 OA
ATOM     72   O  A00 X   4       6.032  58.014  71.2500  0.00  0.00     0.000 OA
ATOM     73   O  A00 X   4       5.824  60.340  71.8270  0.00  0.00     0.000 O
ATOM     74   O  A00 X   4       6.765  59.739  69.6920  0.00  0.00     0.000 OA
ATOM     75   S  A00 X   4       6.685  59.288  71.0440  0.00  0.00     0.000 S
ENDBRANCH 62 70
ENDBRANCH 57 61
ENDBRANCH 41 57
ENDBRANCH 40 44
ENDBRANCH 20 40
ENDBRANCH 19 23
ENDBRANCH 1 19
TORSDOF 14
ENDMDL
MODEL 65
REMARK VINA RESULT:      -5.3     27.236     31.080
ROOT
ATOM      1  C1  A00 X   1      28.780  43.997  58.3350  0.00  0.00     0.000 C
ATOM      2  C2  A00 X   1      29.092  43.534  59.7830  0.00  0.00     0.000 C
ATOM      3  C3  A00 X   1      28.938  42.003  60.0640  0.00  0.00     0.000 C
ATOM      4  C4  A00 X   1      28.152  41.204  58.9930  0.00  0.00     0.000 C
ATOM      5  C5  A00 X   1      27.227  42.098  58.1680  0.00  0.00     0.000 C
ATOM      6  O5  A00 X   1      28.113  43.022  57.4960  0.00  0.00     0.000 O
ATOM      7   O  A00 X   1      28.235  41.832  61.2930  0.00  0.00     0.000 O
ATOM      9  HD  A00 X   1      27.925  41.245  60.7370  0.00  0.00     0.000 HD
ATOM      9   O  A00 X   1      29.032  40.489  58.1250  0.00  0.00     0.000 O
ATOM     11  HD  A00 X   1      28.721  39.901  57.5700  0.00  0.00     0.000 HD
ENDROOT
BRANCH 2 11
ATOM     11   O  A00 X   1      30.443  43.933  60.0890  0.00  0.00     0.000 O
ATOM     12   O  A00 X   1      31.570  43.183  62.0720  0.00  0.00     0.000 OA
ATOM     13   O  A00 X   1      29.597  44.589  62.2850  0.00  0.00     0.000 OA
ATOM     14   O  A00 X   1      31.617  45.474  61.3930  0.00  0.00     0.000 OA
ATOM     15   S  A00 X   1      30.808  44.298  61.5690  0.00  0.00     0.000 S
ENDBRANCH 2 11
BRANCH 5 16
ATOM     16   C  A00 X   1      26.112  42.786  58.9620  0.00  0.00     0.000 C
ATOM     17   O  A00 X   1      25.459  43.651  58.4170  0.00  0.00     0.000 OA
ATOM     18   O  A00 X   1      25.855  42.491  60.1130  0.00  0.00     0.000 OA
ENDBRANCH 5 16
BRANCH 1 19
ATOM     19  O4  A00 X   2      28.110  45.281  58.2880  0.00  0.00     0.000 O
BRANCH 19 23
ATOM     20  C1  A00 X   2      29.328  48.960  56.4600  0.00  0.00     0.000 C
ATOM     21  C2  A00 X   2      29.554  47.655  55.6580  0.00  0.00     0.000 C
ATOM     22  C3  A00 X   2      28.698  46.506  56.2280  0.00  0.00     0.000 C
ATOM     23  C4  A00 X   2      28.957  46.333  57.7420  0.00  0.00     0.000 C
ATOM     24  C5  A00 X   2      28.715  47.707  58.4240  0.00  0.00     0.000 C
ATOM     25  O5  A00 X   2      29.629  48.680  57.8530  0.00  0.00     0.000 O
ATOM     26   O  A00 X   2      28.890  45.338  55.4110  0.00  0.00     0.000 O
ATOM     28  HD  A00 X   2      29.753  45.394  55.4470  0.00  0.00     0.000 HD
BRANCH 21 30
ATOM     28   N  A00 X   2      30.777  48.251  55.1110  0.00  0.00     0.000 N
ATOM     30  HD  A00 X   2      30.587  47.568  54.6140  0.00  0.00     0.000 HD
ATOM     30   O  A00 X   2      31.095  47.408  52.9550  0.00  0.00     0.000 OA
ATOM     31   S  A00 X   2      31.728  47.351  54.2250  0.00  0.00     0.000 S
ATOM     32   O  A00 X   2      32.991  48.018  54.3000  0.00  0.00     0.000 OA
ATOM     33   O  A00 X   2      31.805  46.067  54.8560  0.00  0.00     0.000 OA
ENDBRANCH 21 30
BRANCH 24 34
ATOM     34   C  A00 X   2      28.685  47.754  59.9700  0.00  0.00     0.000 C
ATOM     35   O  A00 X   2      25.809  48.839  61.9220  0.00  0.00     0.000 OA
ATOM     36   O  A00 X   2      27.576  48.543  60.4470  0.00  0.00     0.000 O
ATOM     37   O  A00 X   2      25.738  47.103  60.3170  0.00  0.00     0.000 OA
ATOM     38   S  A00 X   2      26.522  47.763  61.3150  0.00  0.00     0.000 S
ATOM     39   O  A00 X   2      27.270  46.944  62.2210  0.00  0.00     0.000 OA
ENDBRANCH 24 34
BRANCH 20 40
ATOM     40  O4  A00 X   3      27.932  49.263  56.3220  0.00  0.00     0.000 O
BRANCH 40 44
ATOM     41  C1  A00 X   3      24.805  50.987  55.7110  0.00  0.00     0.000 C
ATOM     42  C2  A00 X   3      26.162  51.378  55.0860  0.00  0.00     0.000 C
ATOM     43  C3  A00 X   3      27.258  51.509  56.1750  0.00  0.00     0.000 C
ATOM     44  C4  A00 X   3      27.356  50.319  57.1210  0.00  0.00     0.000 C
ATOM     45  C5  A00 X   3      25.956  49.991  57.7120  0.00  0.00     0.000 C
ATOM     46  O5  A00 X   3      24.952  49.887  56.6500  0.00  0.00     0.000 O
ATOM     47   O  A00 X   3      28.536  51.951  55.7220  0.00  0.00     0.000 O
ATOM     49  HD  A00 X   3      28.816  51.366  56.2960  0.00  0.00     0.000 HD
BRANCH 42 49
ATOM     49   O  A00 X   3      26.494  50.354  54.1230  0.00  0.00     0.000 O
ATOM     50   O  A00 X   3      28.338  49.871  52.6740  0.00  0.00     0.000 OA
ATOM     51   O  A00 X   3      27.606  52.110  52.8830  0.00  0.00     0.000 OA
ATOM     52   O  A00 X   3      26.188  50.557  51.8040  0.00  0.00     0.000 OA
ATOM     53   S  A00 X   3      27.201  50.729  52.7880  0.00  0.00     0.000 S
ENDBRANCH 42 49
BRANCH 45 54
ATOM     54   C  A00 X   3      25.563  50.976  58.8190  0.00  0.00     0.000 C
ATOM     55   O  A00 X   3      26.253  51.945  59.0590  0.00  0.00     0.000 OA
ATOM     56   O  A00 X   3      24.550  50.802  59.4800  0.00  0.00     0.000 OA
ENDBRANCH 45 54
BRANCH 41 57
ATOM     57  O4  A00 X   4      24.118  52.136  56.2560  0.00  0.00     0.000 O
BRANCH 57 61
ATOM     58  C1  A00 X   4      19.932  53.182  56.3970  0.00  0.00     0.000 C
ATOM     59  C2  A00 X   4      20.590  52.587  57.6660  0.00  0.00     0.000 C
ATOM     60  C3  A00 X   4      22.132  52.591  57.6190  0.00  0.00     0.000 C
ATOM     61  C4  A00 X   4      22.666  52.033  56.2820  0.00  0.00     0.000 C
ATOM     62  C5  A00 X   4      22.045  52.907  55.1650  0.00  0.00     0.000 C
ATOM     63  O5  A00 X   4      20.602  52.758  55.1880  0.00  0.00     0.000 O
BRANCH 59 66
ATOM     64   N  A00 X   4      20.435  51.307  58.3810  0.00  0.00     0.000 N
ATOM     66  HD  A00 X   4      20.434  50.582  57.9080  0.00  0.00     0.000 HD
ATOM     66   O  A00 X   4      18.154  51.943  58.8200  0.00  0.00     0.000 OA
ATOM     67   S  A00 X   4      19.198  51.143  59.3810  0.00  0.00     0.000 S
ATOM     68   O  A00 X   4      18.994  49.726  59.3110  0.00  0.00     0.000 OA
ATOM     69   O  A00 X   4      19.800  51.591  60.6050  0.00  0.00     0.000 OA
ENDBRANCH 59 66
BRANCH 62 70
ATOM     70   C  A00 X   4      22.552  52.569  53.7430  0.00  0.00     0.000 C
ATOM     71   O  A00 X   4      20.648  51.467  50.8670  0.00  0.00     0.000 OA
ATOM     72   O  A00 X   4      22.622  50.608  51.8210  0.00  0.00     0.000 OA
ATOM     73   O  A00 X   4      21.427  52.417  52.8620  0.00  0.00     0.000 O
ATOM     74   O  A00 X   4      20.482  50.202  52.9120  0.00  0.00     0.000 OA
ATOM     75   S  A00 X   4      21.275  51.059  52.0920  0.00  0.00     0.000 S
ENDBRANCH 62 70
ENDBRANCH 57 61
ENDBRANCH 41 57
ENDBRANCH 40 44
ENDBRANCH 20 40
ENDBRANCH 19 23
ENDBRANCH 1 19
TORSDOF 14
ENDMDL
MODEL 66
REMARK VINA RESULT:      -5.2     27.578     32.704
ROOT
ATOM      1  C1  A00 X   1      20.577  55.502  59.4680  0.00  0.00     0.000 C
ATOM      2  C2  A00 X   1      19.072  55.869  59.3750  0.00  0.00     0.000 C
ATOM      3  C3  A00 X   1      18.381  56.280  60.7170  0.00  0.00     0.000 C
ATOM      4  C4  A00 X   1      19.161  55.922  62.0080  0.00  0.00     0.000 C
ATOM      5  C5  A00 X   1      20.159  54.786  61.7830  0.00  0.00     0.000 C
ATOM      6  O5  A00 X   1      21.092  55.304  60.8080  0.00  0.00     0.000 O
ATOM      7   O  A00 X   1      17.123  55.613  60.8060  0.00  0.00     0.000 O
ATOM      9  HD  A00 X   1      17.485  55.582  61.5920  0.00  0.00     0.000 HD
ATOM      9   O  A00 X   1      19.838  57.060  62.5400  0.00  0.00     0.000 O
ATOM     11  HD  A00 X   1      20.200  57.029  63.3270  0.00  0.00     0.000 HD
ENDROOT
BRANCH 2 11
ATOM     11   O  A00 X   1      18.942  56.949  58.4300  0.00  0.00     0.000 O
ATOM     12   O  A00 X   1      16.883  57.382  57.2720  0.00  0.00     0.000 OA
ATOM     13   O  A00 X   1      18.055  55.288  56.8740  0.00  0.00     0.000 OA
ATOM     14   O  A00 X   1      18.982  57.349  56.1300  0.00  0.00     0.000 OA
ATOM     15   S  A00 X   1      18.143  56.704  57.1040  0.00  0.00     0.000 S
ENDBRANCH 2 11
BRANCH 5 16
ATOM     16   C  A00 X   1      19.535  53.445  61.3820  0.00  0.00     0.000 C
ATOM     17   O  A00 X   1      18.360  53.255  61.6240  0.00  0.00     0.000 OA
ATOM     18   O  A00 X   1      20.169  52.571  60.8250  0.00  0.00     0.000 OA
ENDBRANCH 5 16
BRANCH 1 19
ATOM     19  O4  A00 X   2      20.943  54.406  58.5940  0.00  0.00     0.000 O
BRANCH 19 23
ATOM     20  C1  A00 X   2      24.700  53.272  56.8730  0.00  0.00     0.000 C
ATOM     21  C2  A00 X   2      24.569  53.200  58.4130  0.00  0.00     0.000 C
ATOM     22  C3  A00 X   2      23.086  53.209  58.8400  0.00  0.00     0.000 C
ATOM     23  C4  A00 X   2      22.353  54.426  58.2320  0.00  0.00     0.000 C
ATOM     24  C5  A00 X   2      22.575  54.395  56.6950  0.00  0.00     0.000 C
ATOM     25  O5  A00 X   2      24.000  54.464  56.4270  0.00  0.00     0.000 O
ATOM     26   O  A00 X   2      23.016  53.071  60.2690  0.00  0.00     0.000 O
ATOM     28  HD  A00 X   2      23.588  53.706  60.4090  0.00  0.00     0.000 HD
BRANCH 21 30
ATOM     28   N  A00 X   2      24.709  52.344  59.5960  0.00  0.00     0.000 N
ATOM     30  HD  A00 X   2      25.509  52.561  59.3470  0.00  0.00     0.000 HD
ATOM     30   O  A00 X   2      26.879  52.596  60.4230  0.00  0.00     0.000 OA
ATOM     31   S  A00 X   2      26.077  51.587  59.8270  0.00  0.00     0.000 S
ATOM     32   O  A00 X   2      25.724  50.506  60.6940  0.00  0.00     0.000 OA
ATOM     33   O  A00 X   2      26.503  51.086  58.5540  0.00  0.00     0.000 OA
ENDBRANCH 21 30
BRANCH 24 34
ATOM     34   C  A00 X   2      21.755  55.375  55.8230  0.00  0.00     0.000 C
ATOM     35   O  A00 X   2      22.537  58.910  55.4410  0.00  0.00     0.000 OA
ATOM     36   O  A00 X   2      22.073  56.745  56.1380  0.00  0.00     0.000 O
ATOM     37   O  A00 X   2      24.062  57.162  54.9790  0.00  0.00     0.000 OA
ATOM     38   S  A00 X   2      22.693  57.578  54.9570  0.00  0.00     0.000 S
ATOM     39   O  A00 X   2      21.923  57.263  53.7910  0.00  0.00     0.000 OA
ENDBRANCH 24 34
BRANCH 20 40
ATOM     40  O4  A00 X   3      24.030  52.106  56.3710  0.00  0.00     0.000 O
BRANCH 40 44
ATOM     41  C1  A00 X   3      21.999  51.506  53.4320  0.00  0.00     0.000 C
ATOM     42  C2  A00 X   3      22.127  50.536  54.6260  0.00  0.00     0.000 C
ATOM     43  C3  A00 X   3      23.615  50.268  54.9680  0.00  0.00     0.000 C
ATOM     44  C4  A00 X   3      24.465  51.523  55.1240  0.00  0.00     0.000 C
ATOM     45  C5  A00 X   3      24.287  52.444  53.8840  0.00  0.00     0.000 C
ATOM     46  O5  A00 X   3      22.869  52.661  53.5920  0.00  0.00     0.000 O
ATOM     47   O  A00 X   3      23.856  49.317  56.0030  0.00  0.00     0.000 O
ATOM     49  HD  A00 X   3      24.482  49.876  56.2160  0.00  0.00     0.000 HD
BRANCH 42 49
ATOM     49   O  A00 X   3      21.431  51.140  55.7380  0.00  0.00     0.000 O
ATOM     50   O  A00 X   3      20.976  50.566  58.0170  0.00  0.00     0.000 OA
ATOM     51   O  A00 X   3      20.806  48.887  56.3610  0.00  0.00     0.000 OA
ATOM     52   O  A00 X   3      19.221  50.640  56.3560  0.00  0.00     0.000 OA
ATOM     53   S  A00 X   3      20.554  50.269  56.6840  0.00  0.00     0.000 S
ENDBRANCH 42 49
BRANCH 45 54
ATOM     54   C  A00 X   3      25.079  51.928  52.6760  0.00  0.00     0.000 C
ATOM     55   O  A00 X   3      25.733  50.908  52.7550  0.00  0.00     0.000 OA
ATOM     56   O  A00 X   3      25.068  52.534  51.6160  0.00  0.00     0.000 OA
ENDBRANCH 45 54
BRANCH 41 57
ATOM     57  O4  A00 X   4      22.160  50.821  52.1690  0.00  0.00     0.000 O
BRANCH 57 61
ATOM     58  C1  A00 X   4      20.402  51.723  48.3300  0.00  0.00     0.000 C
ATOM     59  C2  A00 X   4      21.942  51.791  48.4740  0.00  0.00     0.000 C
ATOM     60  C3  A00 X   4      22.471  51.113  49.7550  0.00  0.00     0.000 C
ATOM     61  C4  A00 X   4      21.678  51.551  51.0050  0.00  0.00     0.000 C
ATOM     62  C5  A00 X   4      20.196  51.197  50.7260  0.00  0.00     0.000 C
ATOM     63  O5  A00 X   4      19.728  51.964  49.5870  0.00  0.00     0.000 O
BRANCH 59 66
ATOM     64   N  A00 X   4      22.683  53.065  48.5190  0.00  0.00     0.000 N
ATOM     66  HD  A00 X   4      22.311  53.730  48.9310  0.00  0.00     0.000 HD
ATOM     66   O  A00 X   4      22.250  53.284  46.1610  0.00  0.00     0.000 OA
ATOM     67   S  A00 X   4      23.210  53.684  47.1420  0.00  0.00     0.000 S
ATOM     68   O  A00 X   4      23.214  55.080  47.4690  0.00  0.00     0.000 OA
ATOM     69   O  A00 X   4      24.516  53.090  47.0810  0.00  0.00     0.000 OA
ENDBRANCH 59 66
BRANCH 62 70
ATOM     70   C  A00 X   4      19.248  51.463  51.9200  0.00  0.00     0.000 C
ATOM     71   O  A00 X   4      17.704  54.578  52.9320  0.00  0.00     0.000 OA
ATOM     72   O  A00 X   4      18.901  52.981  54.1820  0.00  0.00     0.000 OA
ATOM     73   O  A00 X   4      18.685  52.779  51.7950  0.00  0.00     0.000 O
ATOM     74   O  A00 X   4      20.103  54.501  52.7050  0.00  0.00     0.000 OA
ATOM     75   S  A00 X   4      18.900  53.784  52.9800  0.00  0.00     0.000 S
ENDBRANCH 62 70
ENDBRANCH 57 61
ENDBRANCH 41 57
ENDBRANCH 40 44
ENDBRANCH 20 40
ENDBRANCH 19 23
ENDBRANCH 1 19
TORSDOF 14
ENDMDL
MODEL 67
REMARK VINA RESULT:      -5.2     28.119     33.009
ROOT
ATOM      1  C1  A00 X   1      18.482  54.305  59.2860  0.00  0.00     0.000 C
ATOM      2  C2  A00 X   1      17.076  54.901  59.5630  0.00  0.00     0.000 C
ATOM      3  C3  A00 X   1      16.269  54.246  60.7320  0.00  0.00     0.000 C
ATOM      4  C4  A00 X   1      16.798  52.872  61.2210  0.00  0.00     0.000 C
ATOM      5  C5  A00 X   1      17.639  52.166  60.1580  0.00  0.00     0.000 C
ATOM      6  O5  A00 X   1      18.766  53.043  59.9390  0.00  0.00     0.000 O
ATOM      7   O  A00 X   1      14.928  54.032  60.2990  0.00  0.00     0.000 O
ATOM      9  HD  A00 X   1      15.166  53.331  60.7470  0.00  0.00     0.000 HD
ATOM      9   O  A00 X   1      17.552  53.003  62.4250  0.00  0.00     0.000 O
ATOM     11  HD  A00 X   1      17.790  52.301  62.8740  0.00  0.00     0.000 HD
ENDROOT
BRANCH 2 11
ATOM     11   O  A00 X   1      17.241  56.306  59.8370  0.00  0.00     0.000 O
ATOM     12   O  A00 X   1      15.574  57.576  61.0080  0.00  0.00     0.000 OA
ATOM     13   O  A00 X   1      15.031  56.612  58.8420  0.00  0.00     0.000 OA
ATOM     14   O  A00 X   1      16.599  58.393  59.0100  0.00  0.00     0.000 OA
ATOM     15   S  A00 X   1      16.009  57.261  59.6710  0.00  0.00     0.000 S
ENDBRANCH 2 11
BRANCH 5 16
ATOM     16   C  A00 X   1      16.887  51.802  58.8730  0.00  0.00     0.000 C
ATOM     17   O  A00 X   1      17.530  51.471  57.8980  0.00  0.00     0.000 OA
ATOM     18   O  A00 X   1      15.675  51.826  58.7990  0.00  0.00     0.000 OA
ENDBRANCH 5 16
BRANCH 1 19
ATOM     19  O4  A00 X   2      18.802  54.253  57.8740  0.00  0.00     0.000 O
BRANCH 19 23
ATOM     20  C1  A00 X   2      22.558  54.145  55.8140  0.00  0.00     0.000 C
ATOM     21  C2  A00 X   2      22.216  52.952  56.7390  0.00  0.00     0.000 C
ATOM     22  C3  A00 X   2      20.706  52.916  57.0530  0.00  0.00     0.000 C
ATOM     23  C4  A00 X   2      20.237  54.273  57.6260  0.00  0.00     0.000 C
ATOM     24  C5  A00 X   2      20.654  55.381  56.6210  0.00  0.00     0.000 C
ATOM     25  O5  A00 X   2      22.097  55.356  56.4690  0.00  0.00     0.000 O
ATOM     26   O  A00 X   2      20.429  51.755  57.8560  0.00  0.00     0.000 O
ATOM     28  HD  A00 X   2      21.061  51.933  58.4210  0.00  0.00     0.000 HD
BRANCH 21 30
ATOM     28   N  A00 X   2      22.131  51.489  56.6710  0.00  0.00     0.000 N
ATOM     30  HD  A00 X   2      22.968  51.687  56.7790  0.00  0.00     0.000 HD
ATOM     30   O  A00 X   2      24.133  50.607  57.4910  0.00  0.00     0.000 OA
ATOM     31   S  A00 X   2      23.422  50.673  56.2640  0.00  0.00     0.000 S
ATOM     32   O  A00 X   2      22.901  49.425  55.7990  0.00  0.00     0.000 OA
ATOM     33   O  A00 X   2      24.049  51.382  55.1880  0.00  0.00     0.000 OA
ENDBRANCH 21 30
BRANCH 24 34
ATOM     34   C  A00 X   2      20.101  56.809  56.8450  0.00  0.00     0.000 C
ATOM     35   O  A00 X   2      22.136  59.826  56.7250  0.00  0.00     0.000 OA
ATOM     36   O  A00 X   2      21.167  57.748  57.0900  0.00  0.00     0.000 O
ATOM     37   O  A00 X   2      21.997  58.255  54.9630  0.00  0.00     0.000 OA
ATOM     38   S  A00 X   2      21.299  58.903  56.0310  0.00  0.00     0.000 S
ATOM     39   O  A00 X   2      19.970  59.367  55.7690  0.00  0.00     0.000 OA
ENDBRANCH 24 34
BRANCH 20 40
ATOM     40  O4  A00 X   3      21.804  53.932  54.6120  0.00  0.00     0.000 O
BRANCH 40 44
ATOM     41  C1  A00 X   3      20.026  54.197  51.4670  0.00  0.00     0.000 C
ATOM     42  C2  A00 X   3      20.717  52.916  51.9820  0.00  0.00     0.000 C
ATOM     43  C3  A00 X   3      22.179  53.207  52.4090  0.00  0.00     0.000 C
ATOM     44  C4  A00 X   3      22.339  54.393  53.3520  0.00  0.00     0.000 C
ATOM     45  C5  A00 X   3      21.623  55.641  52.7640  0.00  0.00     0.000 C
ATOM     46  O5  A00 X   3      20.251  55.318  52.3660  0.00  0.00     0.000 O
ATOM     47   O  A00 X   3      22.944  52.077  52.8220  0.00  0.00     0.000 O
ATOM     49  HD  A00 X   3      23.246  52.637  53.4090  0.00  0.00     0.000 HD
BRANCH 42 49
ATOM     49   O  A00 X   3      19.931  52.427  53.0910  0.00  0.00     0.000 O
ATOM     50   O  A00 X   3      20.033  50.576  54.6050  0.00  0.00     0.000 OA
ATOM     51   O  A00 X   3      20.521  50.210  52.3210  0.00  0.00     0.000 OA
ATOM     52   O  A00 X   3      18.300  50.745  52.9270  0.00  0.00     0.000 OA
ATOM     53   S  A00 X   3      19.674  50.902  53.2610  0.00  0.00     0.000 S
ENDBRANCH 42 49
BRANCH 45 54
ATOM     54   C  A00 X   3      22.441  56.288  51.6400  0.00  0.00     0.000 C
ATOM     55   O  A00 X   3      22.240  57.439  51.3110  0.00  0.00     0.000 OA
ATOM     56   O  A00 X   3      23.308  55.657  51.0560  0.00  0.00     0.000 OA
ENDBRANCH 45 54
BRANCH 41 57
ATOM     57  O4  A00 X   4      20.367  54.471  50.0900  0.00  0.00     0.000 O
BRANCH 57 61
ATOM     58  C1  A00 X   4      18.435  56.870  47.0650  0.00  0.00     0.000 C
ATOM     59  C2  A00 X   4      19.644  57.469  47.8260  0.00  0.00     0.000 C
ATOM     60  C3  A00 X   4      20.463  56.419  48.6040  0.00  0.00     0.000 C
ATOM     61  C4  A00 X   4      19.556  55.493  49.4430  0.00  0.00     0.000 C
ATOM     62  C5  A00 X   4      18.562  54.840  48.4510  0.00  0.00     0.000 C
ATOM     63  O5  A00 X   4      17.741  55.874  47.8490  0.00  0.00     0.000 O
BRANCH 59 66
ATOM     64   N  A00 X   4      19.171  58.432  48.8360  0.00  0.00     0.000 N
ATOM     66  HD  A00 X   4      18.378  58.312  49.1630  0.00  0.00     0.000 HD
ATOM     66   O  A00 X   4      19.035  60.065  47.0720  0.00  0.00     0.000 OA
ATOM     67   S  A00 X   4      19.234  59.991  48.4850  0.00  0.00     0.000 S
ATOM     68   O  A00 X   4      18.152  60.481  49.2880  0.00  0.00     0.000 OA
ATOM     69   O  A00 X   4      20.537  60.313  48.9950  0.00  0.00     0.000 OA
ENDBRANCH 59 66
BRANCH 62 70
ATOM     70   C  A00 X   4      17.630  53.784  49.0930  0.00  0.00     0.000 C
ATOM     71   O  A00 X   4      14.552  54.300  50.9260  0.00  0.00     0.000 OA
ATOM     72   O  A00 X   4      16.449  53.006  51.4470  0.00  0.00     0.000 OA
ATOM     73   O  A00 X   4      16.405  54.415  49.4980  0.00  0.00     0.000 O
ATOM     74   O  A00 X   4      16.544  55.430  51.6790  0.00  0.00     0.000 OA
ATOM     75   S  A00 X   4      15.985  54.303  51.0050  0.00  0.00     0.000 S
ENDBRANCH 62 70
ENDBRANCH 57 61
ENDBRANCH 41 57
ENDBRANCH 40 44
ENDBRANCH 20 40
ENDBRANCH 19 23
ENDBRANCH 1 19
TORSDOF 14
ENDMDL
MODEL 68
REMARK VINA RESULT:      -5.2     12.063     17.820
ROOT
ATOM      1  C1  A00 X   1       5.706  53.444  72.0090  0.00  0.00     0.000 C
ATOM      2  C2  A00 X   1       4.871  52.139  71.9210  0.00  0.00     0.000 C
ATOM      3  C3  A00 X   1       5.682  50.801  71.9490  0.00  0.00     0.000 C
ATOM      4  C4  A00 X   1       7.205  50.937  71.6910  0.00  0.00     0.000 C
ATOM      5  C5  A00 X   1       7.550  52.221  70.9360  0.00  0.00     0.000 C
ATOM      6  O5  A00 X   1       7.134  53.288  71.8180  0.00  0.00     0.000 O
ATOM      7   O  A00 X   1       5.175  49.938  70.9340  0.00  0.00     0.000 O
ATOM      9  HD  A00 X   1       6.038  49.869  70.9200  0.00  0.00     0.000 HD
ATOM      9   O  A00 X   1       7.947  50.879  72.9090  0.00  0.00     0.000 O
ATOM     11  HD  A00 X   1       8.810  50.810  72.8950  0.00  0.00     0.000 HD
ENDROOT
BRANCH 2 11
ATOM     11   O  A00 X   1       3.934  52.142  73.0160  0.00  0.00     0.000 O
ATOM     12   O  A00 X   1       2.009  50.708  73.0450  0.00  0.00     0.000 OA
ATOM     13   O  A00 X   1       2.188  52.424  71.3310  0.00  0.00     0.000 OA
ATOM     14   O  A00 X   1       1.856  53.025  73.6080  0.00  0.00     0.000 OA
ATOM     15   S  A00 X   1       2.401  52.051  72.7020  0.00  0.00     0.000 S
ENDBRANCH 2 11
BRANCH 5 16
ATOM     16   C  A00 X   1       6.958  52.323  69.5270  0.00  0.00     0.000 C
ATOM     17   O  A00 X   1       6.639  51.301  68.9550  0.00  0.00     0.000 OA
ATOM     18   O  A00 X   1       6.790  53.388  68.9670  0.00  0.00     0.000 OA
ENDBRANCH 5 16
BRANCH 1 19
ATOM     19  O4  A00 X   2       5.175  54.507  71.1790  0.00  0.00     0.000 O
BRANCH 19 23
ATOM     20  C1  A00 X   2       6.425  57.632  73.8320  0.00  0.00     0.000 C
ATOM     21  C2  A00 X   2       4.965  57.133  73.9540  0.00  0.00     0.000 C
ATOM     22  C3  A00 X   2       4.795  55.760  73.2700  0.00  0.00     0.000 C
ATOM     23  C4  A00 X   2       5.290  55.816  71.8070  0.00  0.00     0.000 C
ATOM     24  C5  A00 X   2       6.750  56.346  71.8200  0.00  0.00     0.000 C
ATOM     25  O5  A00 X   2       6.762  57.668  72.4190  0.00  0.00     0.000 O
ATOM     26   O  A00 X   2       3.444  55.310  73.4700  0.00  0.00     0.000 O
ATOM     28  HD  A00 X   2       3.101  56.057  73.1990  0.00  0.00     0.000 HD
BRANCH 21 30
ATOM     28   N  A00 X   2       4.552  58.503  74.2720  0.00  0.00     0.000 N
ATOM     30  HD  A00 X   2       3.902  57.983  74.5120  0.00  0.00     0.000 HD
ATOM     30   O  A00 X   2       2.741  58.393  75.7440  0.00  0.00     0.000 OA
ATOM     31   S  A00 X   2       3.009  58.816  74.4150  0.00  0.00     0.000 S
ATOM     32   O  A00 X   2       2.928  60.228  74.2030  0.00  0.00     0.000 OA
ATOM     33   O  A00 X   2       2.335  58.115  73.3630  0.00  0.00     0.000 OA
ENDBRANCH 21 30
BRANCH 24 34
ATOM     34   C  A00 X   2       7.557  56.280  70.5020  0.00  0.00     0.000 C
ATOM     35   O  A00 X   2       6.525  57.874  67.3950  0.00  0.00     0.000 OA
ATOM     36   O  A00 X   2       6.753  56.686  69.3760  0.00  0.00     0.000 O
ATOM     37   O  A00 X   2       6.792  59.023  69.4450  0.00  0.00     0.000 OA
ATOM     38   S  A00 X   2       7.265  57.961  68.6110  0.00  0.00     0.000 S
ATOM     39   O  A00 X   2       8.682  57.807  68.4710  0.00  0.00     0.000 OA
ENDBRANCH 24 34
BRANCH 20 40
ATOM     40  O4  A00 X   3       7.230  56.644  74.4920  0.00  0.00     0.000 O
BRANCH 40 44
ATOM     41  C1  A00 X   3       9.643  54.282  75.8040  0.00  0.00     0.000 C
ATOM     42  C2  A00 X   3       8.946  55.381  76.6350  0.00  0.00     0.000 C
ATOM     43  C3  A00 X   3       9.072  56.763  75.9440  0.00  0.00     0.000 C
ATOM     44  C4  A00 X   3       8.667  56.777  74.4750  0.00  0.00     0.000 C
ATOM     45  C5  A00 X   3       9.412  55.649  73.7070  0.00  0.00     0.000 C
ATOM     46  O5  A00 X   3       9.274  54.366  74.4000  0.00  0.00     0.000 O
ATOM     47   O  A00 X   3       8.539  57.872  76.6650  0.00  0.00     0.000 O
ATOM     49  HD  A00 X   3       8.284  58.119  75.8750  0.00  0.00     0.000 HD
BRANCH 42 49
ATOM     49   O  A00 X   3       7.563  54.989  76.7810  0.00  0.00     0.000 O
ATOM     50   O  A00 X   3       5.600  55.905  77.7990  0.00  0.00     0.000 OA
ATOM     51   O  A00 X   3       7.659  56.056  78.9510  0.00  0.00     0.000 OA
ATOM     52   O  A00 X   3       6.675  53.925  78.6760  0.00  0.00     0.000 OA
ATOM     53   S  A00 X   3       6.816  55.228  78.1250  0.00  0.00     0.000 S
ENDBRANCH 42 49
BRANCH 45 54
ATOM     54   C  A00 X   3      10.870  56.026  73.4190  0.00  0.00     0.000 C
ATOM     55   O  A00 X   3      11.589  55.280  72.7860  0.00  0.00     0.000 OA
ATOM     56   O  A00 X   3      11.335  57.081  73.8230  0.00  0.00     0.000 OA
ENDBRANCH 45 54
BRANCH 41 57
ATOM     57  O4  A00 X   4      11.069  54.261  76.0370  0.00  0.00     0.000 O
BRANCH 57 61
ATOM     58  C1  A00 X   4      13.959  51.074  76.3960  0.00  0.00     0.000 C
ATOM     59  C2  A00 X   4      13.468  51.473  74.9820  0.00  0.00     0.000 C
ATOM     60  C3  A00 X   4      12.734  52.829  74.9470  0.00  0.00     0.000 C
ATOM     61  C4  A00 X   4      11.672  52.936  76.0620  0.00  0.00     0.000 C
ATOM     62  C5  A00 X   4      12.420  52.712  77.3990  0.00  0.00     0.000 C
ATOM     63  O5  A00 X   4      12.978  51.373  77.4150  0.00  0.00     0.000 O
BRANCH 59 66
ATOM     64   N  A00 X   4      12.557  50.319  74.8770  0.00  0.00     0.000 N
ATOM     66  HD  A00 X   4      12.341  49.912  75.6100  0.00  0.00     0.000 HD
ATOM     66   O  A00 X   4      14.363  49.116  73.8330  0.00  0.00     0.000 OA
ATOM     67   S  A00 X   4      12.934  49.147  73.8560  0.00  0.00     0.000 S
ATOM     68   O  A00 X   4      12.303  48.031  74.4980  0.00  0.00     0.000 OA
ATOM     69   O  A00 X   4      12.255  49.609  72.6780  0.00  0.00     0.000 OA
ENDBRANCH 59 66
BRANCH 62 70
ATOM     70   C  A00 X   4      11.535  52.890  78.6560  0.00  0.00     0.000 C
ATOM     71   O  A00 X   4      12.560  53.404  82.0900  0.00  0.00     0.000 OA
ATOM     72   O  A00 X   4      11.012  51.893  81.1610  0.00  0.00     0.000 OA
ATOM     73   O  A00 X   4      12.354  53.312  79.7580  0.00  0.00     0.000 O
ATOM     74   O  A00 X   4      13.400  51.474  80.9130  0.00  0.00     0.000 OA
ATOM     75   S  A00 X   4      12.350  52.431  81.0550  0.00  0.00     0.000 S
ENDBRANCH 62 70
ENDBRANCH 57 61
ENDBRANCH 41 57
ENDBRANCH 40 44
ENDBRANCH 20 40
ENDBRANCH 19 23
ENDBRANCH 1 19
TORSDOF 14
ENDMDL
MODEL 69
REMARK VINA RESULT:      -5.2     21.660     26.020
ROOT
ATOM      1  C1  A00 X   1       8.409  57.136  63.8700  0.00  0.00     0.000 C
ATOM      2  C2  A00 X   1       8.879  56.087  64.9130  0.00  0.00     0.000 C
ATOM      3  C3  A00 X   1      10.235  56.392  65.6320  0.00  0.00     0.000 C
ATOM      4  C4  A00 X   1      11.111  57.486  64.9690  0.00  0.00     0.000 C
ATOM      5  C5  A00 X   1      10.778  57.674  63.4900  0.00  0.00     0.000 C
ATOM      6  O5  A00 X   1       9.402  58.115  63.4760  0.00  0.00     0.000 O
ATOM      7   O  A00 X   1      11.019  55.202  65.6530  0.00  0.00     0.000 O
ATOM      9  HD  A00 X   1      11.554  55.857  65.4680  0.00  0.00     0.000 HD
ATOM      9   O  A00 X   1      10.995  58.733  65.6530  0.00  0.00     0.000 O
ATOM     11  HD  A00 X   1      11.530  59.389  65.4680  0.00  0.00     0.000 HD
ENDROOT
BRANCH 2 11
ATOM     11   O  A00 X   1       7.841  55.958  65.9040  0.00  0.00     0.000 O
ATOM     12   O  A00 X   1       8.252  54.966  68.0520  0.00  0.00     0.000 OA
ATOM     13   O  A00 X   1       8.473  53.603  66.0500  0.00  0.00     0.000 OA
ATOM     14   O  A00 X   1       6.337  54.383  66.7460  0.00  0.00     0.000 OA
ATOM     15   S  A00 X   1       7.752  54.636  66.7410  0.00  0.00     0.000 S
ENDBRANCH 2 11
BRANCH 5 16
ATOM     16   C  A00 X   1      11.038  56.450  62.6060  0.00  0.00     0.000 C
ATOM     17   O  A00 X   1      10.605  56.449  61.4720  0.00  0.00     0.000 OA
ATOM     18   O  A00 X   1      11.667  55.486  62.9960  0.00  0.00     0.000 OA
ENDBRANCH 5 16
BRANCH 1 19
ATOM     19  O4  A00 X   2       7.774  56.534  62.7160  0.00  0.00     0.000 O
BRANCH 19 23
ATOM     20  C1  A00 X   2       4.135  58.736  63.2390  0.00  0.00     0.000 C
ATOM     21  C2  A00 X   2       4.091  57.211  63.5010  0.00  0.00     0.000 C
ATOM     22  C3  A00 X   2       5.514  56.646  63.6980  0.00  0.00     0.000 C
ATOM     23  C4  A00 X   2       6.419  57.025  62.5040  0.00  0.00     0.000 C
ATOM     24  C5  A00 X   2       6.363  58.568  62.3360  0.00  0.00     0.000 C
ATOM     25  O5  A00 X   2       4.988  58.960  62.0860  0.00  0.00     0.000 O
ATOM     26   O  A00 X   2       5.415  55.245  64.0050  0.00  0.00     0.000 O
ATOM     28  HD  A00 X   2       4.894  55.083  63.3330  0.00  0.00     0.000 HD
BRANCH 21 30
ATOM     28   N  A00 X   2       2.724  57.198  62.9720  0.00  0.00     0.000 N
ATOM     30  HD  A00 X   2       2.836  56.451  63.3950  0.00  0.00     0.000 HD
ATOM     30   O  A00 X   2       1.531  55.523  64.0810  0.00  0.00     0.000 OA
ATOM     31   S  A00 X   2       2.001  55.807  62.7710  0.00  0.00     0.000 S
ATOM     32   O  A00 X   2       0.980  56.091  61.8110  0.00  0.00     0.000 OA
ATOM     33   O  A00 X   2       2.966  54.904  62.2180  0.00  0.00     0.000 OA
ENDBRANCH 21 30
BRANCH 24 34
ATOM     34   C  A00 X   2       7.361  59.228  61.3560  0.00  0.00     0.000 C
ATOM     35   O  A00 X   2       7.998  58.029  57.9770  0.00  0.00     0.000 OA
ATOM     36   O  A00 X   2       7.665  58.352  60.2520  0.00  0.00     0.000 O
ATOM     37   O  A00 X   2       5.853  58.603  58.7930  0.00  0.00     0.000 OA
ATOM     38   S  A00 X   2       7.254  58.894  58.8330  0.00  0.00     0.000 S
ATOM     39   O  A00 X   2       7.648  60.270  58.7960  0.00  0.00     0.000 OA
ENDBRANCH 24 34
BRANCH 20 40
ATOM     40  O4  A00 X   3       4.743  59.312  64.4050  0.00  0.00     0.000 O
BRANCH 40 44
ATOM     41  C1  A00 X   3       6.735  61.360  66.6320  0.00  0.00     0.000 C
ATOM     42  C2  A00 X   3       5.515  60.518  67.0660  0.00  0.00     0.000 C
ATOM     43  C3  A00 X   3       4.291  60.807  66.1600  0.00  0.00     0.000 C
ATOM     44  C4  A00 X   3       4.574  60.722  64.6650  0.00  0.00     0.000 C
ATOM     45  C5  A00 X   3       5.809  61.597  64.3070  0.00  0.00     0.000 C
ATOM     46  O5  A00 X   3       6.936  61.298  65.1930  0.00  0.00     0.000 O
ATOM     47   O  A00 X   3       3.079  60.148  66.5210  0.00  0.00     0.000 O
ATOM     49  HD  A00 X   3       2.997  60.070  65.6630  0.00  0.00     0.000 HD
BRANCH 42 49
ATOM     49   O  A00 X   3       5.911  59.131  66.9920  0.00  0.00     0.000 O
ATOM     50   O  A00 X   3       4.887  57.011  67.4270  0.00  0.00     0.000 OA
ATOM     51   O  A00 X   3       4.502  58.794  68.9310  0.00  0.00     0.000 OA
ATOM     52   O  A00 X   3       6.672  57.864  68.8170  0.00  0.00     0.000 OA
ATOM     53   S  A00 X   3       5.473  58.128  68.0990  0.00  0.00     0.000 S
ENDBRANCH 42 49
BRANCH 45 54
ATOM     54   C  A00 X   3       5.454  63.088  64.2640  0.00  0.00     0.000 C
ATOM     55   O  A00 X   3       6.308  63.922  64.0430  0.00  0.00     0.000 OA
ATOM     56   O  A00 X   3       4.307  63.464  64.4530  0.00  0.00     0.000 OA
ENDBRANCH 45 54
BRANCH 41 57
ATOM     57  O4  A00 X   4       6.670  62.704  67.1590  0.00  0.00     0.000 O
BRANCH 57 61
ATOM     58  C1  A00 X   4       9.825  65.313  68.5280  0.00  0.00     0.000 C
ATOM     59  C2  A00 X   4       9.061  65.689  67.2340  0.00  0.00     0.000 C
ATOM     60  C3  A00 X   4       7.748  64.903  67.0450  0.00  0.00     0.000 C
ATOM     61  C4  A00 X   4       7.950  63.388  67.2670  0.00  0.00     0.000 C
ATOM     62  C5  A00 X   4       8.524  63.230  68.6970  0.00  0.00     0.000 C
ATOM     63  O5  A00 X   4       9.815  63.887  68.7680  0.00  0.00     0.000 O
BRANCH 59 66
ATOM     64   N  A00 X   4      10.198  65.205  66.4310  0.00  0.00     0.000 N
ATOM     66  HD  A00 X   4      10.783  64.703  66.8260  0.00  0.00     0.000 HD
ATOM     66   O  A00 X   4      11.018  67.469  66.4080  0.00  0.00     0.000 OA
ATOM     67   S  A00 X   4      11.064  66.278  65.6200  0.00  0.00     0.000 S
ATOM     68   O  A00 X   4      12.333  65.611  65.5830  0.00  0.00     0.000 OA
ATOM     69   O  A00 X   4      10.362  66.276  64.3680  0.00  0.00     0.000 OA
ENDBRANCH 59 66
BRANCH 62 70
ATOM     70   C  A00 X   4       8.694  61.761  69.1510  0.00  0.00     0.000 C
ATOM     71   O  A00 X   4      11.752  59.910  69.7230  0.00  0.00     0.000 OA
ATOM     72   O  A00 X   4       9.829  59.350  68.4850  0.00  0.00     0.000 OA
ATOM     73   O  A00 X   4      10.071  61.524  69.4870  0.00  0.00     0.000 O
ATOM     74   O  A00 X   4      11.422  60.954  67.5750  0.00  0.00     0.000 OA
ATOM     75   S  A00 X   4      10.822  60.373  68.7320  0.00  0.00     0.000 S
ENDBRANCH 62 70
ENDBRANCH 57 61
ENDBRANCH 41 57
ENDBRANCH 40 44
ENDBRANCH 20 40
ENDBRANCH 19 23
ENDBRANCH 1 19
TORSDOF 14
ENDMDL
MODEL 70
REMARK VINA RESULT:      -5.2     13.931     19.292
ROOT
ATOM      1  C1  A00 X   1       6.714  53.701  70.9400  0.00  0.00     0.000 C
ATOM      2  C2  A00 X   1       5.713  52.564  71.2770  0.00  0.00     0.000 C
ATOM      3  C3  A00 X   1       6.333  51.146  71.5050  0.00  0.00     0.000 C
ATOM      4  C4  A00 X   1       7.793  50.969  71.0140  0.00  0.00     0.000 C
ATOM      5  C5  A00 X   1       8.169  51.989  69.9400  0.00  0.00     0.000 C
ATOM      6  O5  A00 X   1       8.055  53.272  70.5960  0.00  0.00     0.000 O
ATOM      7   O  A00 X   1       5.550  50.185  70.8000  0.00  0.00     0.000 O
ATOM      9  HD  A00 X   1       6.381  49.972  70.6840  0.00  0.00     0.000 HD
ATOM      9   O  A00 X   1       8.720  51.045  72.0970  0.00  0.00     0.000 O
ATOM     11  HD  A00 X   1       9.551  50.831  71.9810  0.00  0.00     0.000 HD
ENDROOT
BRANCH 2 11
ATOM     11   O  A00 X   1       4.987  52.954  72.4590  0.00  0.00     0.000 O
ATOM     12   O  A00 X   1       6.031  54.175  74.2440  0.00  0.00     0.000 OA
ATOM     13   O  A00 X   1       6.797  51.923  73.7340  0.00  0.00     0.000 OA
ATOM     14   O  A00 X   1       4.638  52.279  74.6660  0.00  0.00     0.000 OA
ATOM     15   S  A00 X   1       5.689  52.830  73.8550  0.00  0.00     0.000 S
ENDBRANCH 2 11
BRANCH 5 16
ATOM     16   C  A00 X   1       7.362  51.890  68.6420  0.00  0.00     0.000 C
ATOM     17   O  A00 X   1       6.644  50.925  68.4760  0.00  0.00     0.000 OA
ATOM     18   O  A00 X   1       7.409  52.743  67.7780  0.00  0.00     0.000 OA
ENDBRANCH 5 16
BRANCH 1 19
ATOM     19  O4  A00 X   2       6.193  54.638  69.9670  0.00  0.00     0.000 O
BRANCH 19 23
ATOM     20  C1  A00 X   2       9.294  57.570  70.3640  0.00  0.00     0.000 C
ATOM     21  C2  A00 X   2       8.202  57.532  71.4600  0.00  0.00     0.000 C
ATOM     22  C3  A00 X   2       7.434  56.194  71.4250  0.00  0.00     0.000 C
ATOM     23  C4  A00 X   2       6.874  55.925  70.0100  0.00  0.00     0.000 C
ATOM     24  C5  A00 X   2       8.057  56.009  69.0070  0.00  0.00     0.000 C
ATOM     25  O5  A00 X   2       8.644  57.334  69.0860  0.00  0.00     0.000 O
ATOM     26   O  A00 X   2       6.482  56.180  72.5020  0.00  0.00     0.000 O
ATOM     28  HD  A00 X   2       6.159  56.956  72.2930  0.00  0.00     0.000 HD
BRANCH 21 30
ATOM     28   N  A00 X   2       8.017  57.427  72.9110  0.00  0.00     0.000 N
ATOM     30  HD  A00 X   2       8.253  58.244  72.7470  0.00  0.00     0.000 HD
ATOM     30   O  A00 X   2       7.864  59.589  73.7830  0.00  0.00     0.000 OA
ATOM     31   S  A00 X   2       8.742  58.475  73.8460  0.00  0.00     0.000 S
ATOM     32   O  A00 X   2       8.794  57.817  75.1150  0.00  0.00     0.000 OA
ATOM     33   O  A00 X   2      10.065  58.660  73.3270  0.00  0.00     0.000 OA
ENDBRANCH 21 30
BRANCH 24 34
ATOM     34   C  A00 X   2       7.807  55.553  67.5500  0.00  0.00     0.000 C
ATOM     35   O  A00 X   2       5.164  56.875  65.4230  0.00  0.00     0.000 OA
ATOM     36   O  A00 X   2       6.508  55.973  67.0870  0.00  0.00     0.000 O
ATOM     37   O  A00 X   2       6.802  58.213  66.4810  0.00  0.00     0.000 OA
ATOM     38   S  A00 X   2       6.519  56.955  65.8590  0.00  0.00     0.000 S
ATOM     39   O  A00 X   2       7.485  56.439  64.9360  0.00  0.00     0.000 OA
ENDBRANCH 24 34
BRANCH 20 40
ATOM     40  O4  A00 X   3      10.179  56.480  70.6600  0.00  0.00     0.000 O
BRANCH 40 44
ATOM     41  C1  A00 X   3      12.592  53.784  70.4700  0.00  0.00     0.000 C
ATOM     42  C2  A00 X   3      12.222  54.545  71.7610  0.00  0.00     0.000 C
ATOM     43  C3  A00 X   3      12.316  56.078  71.5500  0.00  0.00     0.000 C
ATOM     44  C4  A00 X   3      11.578  56.594  70.3210  0.00  0.00     0.000 C
ATOM     45  C5  A00 X   3      12.006  55.785  69.0640  0.00  0.00     0.000 C
ATOM     46  O5  A00 X   3      11.912  54.345  69.3120  0.00  0.00     0.000 O
ATOM     47   O  A00 X   3      12.079  56.881  72.7040  0.00  0.00     0.000 O
ATOM     49  HD  A00 X   3      11.670  57.385  72.1300  0.00  0.00     0.000 HD
BRANCH 42 49
ATOM     49   O  A00 X   3      10.882  54.142  72.1200  0.00  0.00     0.000 O
ATOM     50   O  A00 X   3       9.317  54.676  73.8510  0.00  0.00     0.000 OA
ATOM     51   O  A00 X   3      11.595  54.397  74.4190  0.00  0.00     0.000 OA
ATOM     52   O  A00 X   3      10.367  52.502  73.7200  0.00  0.00     0.000 OA
ATOM     53   S  A00 X   3      10.502  53.914  73.6120  0.00  0.00     0.000 S
ENDBRANCH 42 49
BRANCH 45 54
ATOM     54   C  A00 X   3      13.384  56.220  68.5520  0.00  0.00     0.000 C
ATOM     55   O  A00 X   3      13.925  57.212  68.9960  0.00  0.00     0.000 OA
ATOM     56   O  A00 X   3      13.962  55.578  67.6880  0.00  0.00     0.000 OA
ENDBRANCH 45 54
BRANCH 41 57
ATOM     57  O4  A00 X   4      14.024  53.669  70.3100  0.00  0.00     0.000 O
BRANCH 57 61
ATOM     58  C1  A00 X   4      16.482  50.237  69.4060  0.00  0.00     0.000 C
ATOM     59  C2  A00 X   4      16.305  51.328  68.3210  0.00  0.00     0.000 C
ATOM     60  C3  A00 X   4      15.722  52.648  68.8660  0.00  0.00     0.000 C
ATOM     61  C4  A00 X   4      14.484  52.404  69.7550  0.00  0.00     0.000 C
ATOM     62  C5  A00 X   4      14.943  51.456  70.8910  0.00  0.00     0.000 C
ATOM     63  O5  A00 X   4      15.360  50.190  70.3160  0.00  0.00     0.000 O
BRANCH 59 66
ATOM     64   N  A00 X   4      16.673  51.904  67.0150  0.00  0.00     0.000 N
ATOM     66  HD  A00 X   4      16.034  52.220  66.5220  0.00  0.00     0.000 HD
ATOM     66   O  A00 X   4      17.174  49.666  66.2820  0.00  0.00     0.000 OA
ATOM     67   S  A00 X   4      17.556  51.018  66.0180  0.00  0.00     0.000 S
ATOM     68   O  A00 X   4      17.128  51.545  64.7550  0.00  0.00     0.000 OA
ATOM     69   O  A00 X   4      18.873  51.431  66.4120  0.00  0.00     0.000 OA
ENDBRANCH 59 66
BRANCH 62 70
ATOM     70   C  A00 X   4      13.858  51.177  71.9580  0.00  0.00     0.000 C
ATOM     71   O  A00 X   4      13.630  48.409  74.2810  0.00  0.00     0.000 OA
ATOM     72   O  A00 X   4      12.022  49.327  72.8260  0.00  0.00     0.000 OA
ATOM     73   O  A00 X   4      14.297  50.109  72.8140  0.00  0.00     0.000 O
ATOM     74   O  A00 X   4      13.800  47.925  71.9250  0.00  0.00     0.000 OA
ATOM     75   S  A00 X   4      13.380  48.843  72.9350  0.00  0.00     0.000 S
ENDBRANCH 62 70
ENDBRANCH 57 61
ENDBRANCH 41 57
ENDBRANCH 40 44
ENDBRANCH 20 40
ENDBRANCH 19 23
ENDBRANCH 1 19
TORSDOF 14
ENDMDL
MODEL 71
REMARK VINA RESULT:      -5.1     21.205     25.750
ROOT
ATOM      1  C1  A00 X   1      29.727  41.592  64.1260  0.00  0.00     0.000 C
ATOM      2  C2  A00 X   1      30.623  40.354  64.3980  0.00  0.00     0.000 C
ATOM      3  C3  A00 X   1      30.565  39.769  65.8480  0.00  0.00     0.000 C
ATOM      4  C4  A00 X   1      29.924  40.692  66.9160  0.00  0.00     0.000 C
ATOM      5  C5  A00 X   1      29.964  42.164  66.5060  0.00  0.00     0.000 C
ATOM      6  O5  A00 X   1      29.169  42.231  65.3010  0.00  0.00     0.000 O
ATOM      7   O  A00 X   1      31.895  39.504  66.2880  0.00  0.00     0.000 O
ATOM      9  HD  A00 X   1      31.469  39.852  66.9570  0.00  0.00     0.000 HD
ATOM      9   O  A00 X   1      28.579  40.306  67.2000  0.00  0.00     0.000 O
ATOM     11  HD  A00 X   1      28.153  40.653  67.8690  0.00  0.00     0.000 HD
ENDROOT
BRANCH 2 11
ATOM     11   O  A00 X   1      30.246  39.326  63.4620  0.00  0.00     0.000 O
ATOM     12   O  A00 X   1      31.140  37.101  63.5930  0.00  0.00     0.000 OA
ATOM     13   O  A00 X   1      32.638  38.959  63.1260  0.00  0.00     0.000 OA
ATOM     14   O  A00 X   1      31.018  38.285  61.5200  0.00  0.00     0.000 OA
ATOM     15   S  A00 X   1      31.350  38.356  62.9170  0.00  0.00     0.000 S
ENDBRANCH 2 11
BRANCH 5 16
ATOM     16   C  A00 X   1      31.368  42.755  66.3480  0.00  0.00     0.000 C
ATOM     17   O  A00 X   1      32.306  42.168  66.8480  0.00  0.00     0.000 OA
ATOM     18   O  A00 X   1      31.578  43.783  65.7350  0.00  0.00     0.000 OA
ENDBRANCH 5 16
BRANCH 1 19
ATOM     19  O4  A00 X   2      30.355  42.557  63.2480  0.00  0.00     0.000 O
BRANCH 19 23
ATOM     20  C1  A00 X   2      26.755  43.374  61.0700  0.00  0.00     0.000 C
ATOM     21  C2  A00 X   2      27.756  42.371  60.4460  0.00  0.00     0.000 C
ATOM     22  C3  A00 X   2      28.753  41.858  61.5060  0.00  0.00     0.000 C
ATOM     23  C4  A00 X   2      29.451  43.042  62.2130  0.00  0.00     0.000 C
ATOM     24  C5  A00 X   2      28.346  43.977  62.7760  0.00  0.00     0.000 C
ATOM     25  O5  A00 X   2      27.526  44.446  61.6750  0.00  0.00     0.000 O
ATOM     26   O  A00 X   2      29.614  40.882  60.8960  0.00  0.00     0.000 O
ATOM     28  HD  A00 X   2      29.806  41.397  60.2260  0.00  0.00     0.000 HD
BRANCH 21 30
ATOM     28   N  A00 X   2      27.424  42.884  59.1130  0.00  0.00     0.000 N
ATOM     30  HD  A00 X   2      27.806  42.115  58.9990  0.00  0.00     0.000 HD
ATOM     30   O  A00 X   2      27.551  41.109  57.5990  0.00  0.00     0.000 OA
ATOM     31   S  A00 X   2      28.224  42.330  57.8670  0.00  0.00     0.000 S
ATOM     32   O  A00 X   2      28.051  43.346  56.8750  0.00  0.00     0.000 OA
ATOM     33   O  A00 X   2      29.601  42.242  58.2530  0.00  0.00     0.000 OA
ENDBRANCH 21 30
BRANCH 24 34
ATOM     34   C  A00 X   2      28.777  45.119  63.7280  0.00  0.00     0.000 C
ATOM     35   O  A00 X   2      31.023  47.824  62.7840  0.00  0.00     0.000 OA
ATOM     36   O  A00 X   2      29.921  45.826  63.2110  0.00  0.00     0.000 O
ATOM     37   O  A00 X   2      29.029  47.298  61.6270  0.00  0.00     0.000 OA
ATOM     38   S  A00 X   2      29.684  47.349  62.8980  0.00  0.00     0.000 S
ATOM     39   O  A00 X   2      28.944  47.879  64.0040  0.00  0.00     0.000 OA
ENDBRANCH 24 34
BRANCH 20 40
ATOM     40  O4  A00 X   3      26.063  42.644  62.0940  0.00  0.00     0.000 O
BRANCH 40 44
ATOM     41  C1  A00 X   3      24.759  42.648  65.4740  0.00  0.00     0.000 C
ATOM     42  C2  A00 X   3      24.704  41.443  64.5110  0.00  0.00     0.000 C
ATOM     43  C3  A00 X   3      24.112  41.856  63.1390  0.00  0.00     0.000 C
ATOM     44  C4  A00 X   3      24.756  43.088  62.5160  0.00  0.00     0.000 C
ATOM     45  C5  A00 X   3      24.770  44.256  63.5420  0.00  0.00     0.000 C
ATOM     46  O5  A00 X   3      25.326  43.819  64.8240  0.00  0.00     0.000 O
ATOM     47   O  A00 X   3      23.932  40.801  62.1950  0.00  0.00     0.000 O
ATOM     49  HD  A00 X   3      24.202  41.406  61.6370  0.00  0.00     0.000 HD
BRANCH 42 49
ATOM     49   O  A00 X   3      26.053  40.946  64.3760  0.00  0.00     0.000 O
ATOM     50   O  A00 X   3      27.156  39.250  63.0960  0.00  0.00     0.000 OA
ATOM     51   O  A00 X   3      25.047  38.770  64.0500  0.00  0.00     0.000 OA
ATOM     52   O  A00 X   3      26.896  39.060  65.4920  0.00  0.00     0.000 OA
ATOM     53   S  A00 X   3      26.320  39.418  64.2420  0.00  0.00     0.000 S
ENDBRANCH 42 49
BRANCH 45 54
ATOM     54   C  A00 X   3      23.390  44.912  63.6760  0.00  0.00     0.000 C
ATOM     55   O  A00 X   3      23.288  46.109  63.8490  0.00  0.00     0.000 OA
ATOM     56   O  A00 X   3      22.371  44.242  63.6110  0.00  0.00     0.000 OA
ENDBRANCH 45 54
BRANCH 41 57
ATOM     57  O4  A00 X   4      23.481  42.887  66.1040  0.00  0.00     0.000 O
BRANCH 57 61
ATOM     58  C1  A00 X   4      22.274  45.164  69.5680  0.00  0.00     0.000 C
ATOM     59  C2  A00 X   4      22.533  45.917  68.2390  0.00  0.00     0.000 C
ATOM     60  C3  A00 X   4      22.601  44.989  67.0100  0.00  0.00     0.000 C
ATOM     61  C4  A00 X   4      23.517  43.772  67.2600  0.00  0.00     0.000 C
ATOM     62  C5  A00 X   4      22.951  43.049  68.5070  0.00  0.00     0.000 C
ATOM     63  O5  A00 X   4      23.033  43.936  69.6510  0.00  0.00     0.000 O
BRANCH 59 66
ATOM     64   N  A00 X   4      23.366  46.974  67.6370  0.00  0.00     0.000 N
ATOM     66  HD  A00 X   4      24.225  46.861  67.6490  0.00  0.00     0.000 HD
ATOM     66   O  A00 X   4      22.749  48.379  69.4930  0.00  0.00     0.000 OA
ATOM     67   S  A00 X   4      23.146  48.482  68.1230  0.00  0.00     0.000 S
ATOM     68   O  A00 X   4      24.455  49.020  67.8980  0.00  0.00     0.000 OA
ATOM     69   O  A00 X   4      22.161  48.913  67.1710  0.00  0.00     0.000 OA
ENDBRANCH 59 66
BRANCH 62 70
ATOM     70   C  A00 X   4      23.677  41.728  68.8560  0.00  0.00     0.000 C
ATOM     71   O  A00 X   4      26.937  41.269  70.3620  0.00  0.00     0.000 OA
ATOM     72   O  A00 X   4      25.980  40.287  68.4480  0.00  0.00     0.000 OA
ATOM     73   O  A00 X   4      24.831  42.019  69.6600  0.00  0.00     0.000 O
ATOM     74   O  A00 X   4      26.772  42.590  68.3510  0.00  0.00     0.000 OA
ATOM     75   S  A00 X   4      26.229  41.532  69.1410  0.00  0.00     0.000 S
ENDBRANCH 62 70
ENDBRANCH 57 61
ENDBRANCH 41 57
ENDBRANCH 40 44
ENDBRANCH 20 40
ENDBRANCH 19 23
ENDBRANCH 1 19
TORSDOF 14
ENDMDL
MODEL 72
REMARK VINA RESULT:      -5.1      9.463     16.761
ROOT
ATOM      1  C1  A00 X   1       6.581  54.216  72.2810  0.00  0.00     0.000 C
ATOM      2  C2  A00 X   1       5.134  53.682  72.1020  0.00  0.00     0.000 C
ATOM      3  C3  A00 X   1       4.994  52.141  71.8720  0.00  0.00     0.000 C
ATOM      4  C4  A00 X   1       6.300  51.401  71.4870  0.00  0.00     0.000 C
ATOM      5  C5  A00 X   1       7.340  52.343  70.8800  0.00  0.00     0.000 C
ATOM      6  O5  A00 X   1       7.638  53.288  71.9320  0.00  0.00     0.000 O
ATOM      7   O  A00 X   1       4.074  51.920  70.8060  0.00  0.00     0.000 O
ATOM      9  HD  A00 X   1       4.727  51.363  70.6980  0.00  0.00     0.000 HD
ATOM      9   O  A00 X   1       6.863  50.719  72.6070  0.00  0.00     0.000 O
ATOM     11  HD  A00 X   1       7.517  50.161  72.5000  0.00  0.00     0.000 HD
ENDROOT
BRANCH 2 11
ATOM     11   O  A00 X   1       4.383  54.052  73.2740  0.00  0.00     0.000 O
ATOM     12   O  A00 X   1       2.171  53.209  73.6830  0.00  0.00     0.000 OA
ATOM     13   O  A00 X   1       2.565  54.630  71.7490  0.00  0.00     0.000 OA
ATOM     14   O  A00 X   1       2.701  55.525  73.9480  0.00  0.00     0.000 OA
ATOM     15   S  A00 X   1       2.851  54.353  73.1290  0.00  0.00     0.000 S
ENDBRANCH 2 11
BRANCH 5 16
ATOM     16   C  A00 X   1       6.924  53.004  69.5620  0.00  0.00     0.000 C
ATOM     17   O  A00 X   1       5.812  53.484  69.4780  0.00  0.00     0.000 OA
ATOM     18   O  A00 X   1       7.667  53.071  68.6030  0.00  0.00     0.000 OA
ENDBRANCH 5 16
BRANCH 1 19
ATOM     19  O4  A00 X   2       6.784  55.507  71.6570  0.00  0.00     0.000 O
BRANCH 19 23
ATOM     20  C1  A00 X   2       9.386  56.943  74.7450  0.00  0.00     0.000 C
ATOM     21  C2  A00 X   2       7.891  57.335  74.8310  0.00  0.00     0.000 C
ATOM     22  C3  A00 X   2       7.030  56.418  73.9370  0.00  0.00     0.000 C
ATOM     23  C4  A00 X   2       7.567  56.412  72.4880  0.00  0.00     0.000 C
ATOM     24  C5  A00 X   2       9.070  56.024  72.5400  0.00  0.00     0.000 C
ATOM     25  O5  A00 X   2       9.777  57.002  73.3470  0.00  0.00     0.000 O
ATOM     26   O  A00 X   2       5.648  56.776  74.1040  0.00  0.00     0.000 O
ATOM     28  HD  A00 X   2       5.798  57.618  73.9710  0.00  0.00     0.000 HD
BRANCH 21 30
ATOM     28   N  A00 X   2       7.586  57.285  76.2640  0.00  0.00     0.000 N
ATOM     30  HD  A00 X   2       7.558  58.119  76.0300  0.00  0.00     0.000 HD
ATOM     30   O  A00 X   2       6.633  59.329  76.8750  0.00  0.00     0.000 OA
ATOM     31   S  A00 X   2       7.815  58.585  77.1330  0.00  0.00     0.000 S
ATOM     32   O  A00 X   2       7.934  58.084  78.4680  0.00  0.00     0.000 OA
ATOM     33   O  A00 X   2       9.054  59.166  76.7080  0.00  0.00     0.000 OA
ENDBRANCH 21 30
BRANCH 24 34
ATOM     34   C  A00 X   2       9.788  55.723  71.2030  0.00  0.00     0.000 C
ATOM     35   O  A00 X   2      12.696  53.553  70.8930  0.00  0.00     0.000 OA
ATOM     36   O  A00 X   2      11.087  55.138  71.4280  0.00  0.00     0.000 O
ATOM     37   O  A00 X   2      10.643  52.882  71.8580  0.00  0.00     0.000 OA
ATOM     38   S  A00 X   2      11.276  53.685  70.8570  0.00  0.00     0.000 S
ATOM     39   O  A00 X   2      10.701  53.687  69.5460  0.00  0.00     0.000 OA
ENDBRANCH 24 34
BRANCH 20 40
ATOM     40  O4  A00 X   3       9.458  55.586  75.2070  0.00  0.00     0.000 O
BRANCH 40 44
ATOM     41  C1  A00 X   3      10.332  52.161  75.9980  0.00  0.00     0.000 C
ATOM     42  C2  A00 X   3       9.456  53.073  76.8840  0.00  0.00     0.000 C
ATOM     43  C3  A00 X   3      10.150  54.436  77.1350  0.00  0.00     0.000 C
ATOM     44  C4  A00 X   3      10.654  55.131  75.8770  0.00  0.00     0.000 C
ATOM     45  C5  A00 X   3      11.529  54.154  75.0430  0.00  0.00     0.000 C
ATOM     46  O5  A00 X   3      10.840  52.878  74.8390  0.00  0.00     0.000 O
ATOM     47   O  A00 X   3       9.469  55.329  78.0140  0.00  0.00     0.000 O
ATOM     49  HD  A00 X   3       9.746  55.921  77.4450  0.00  0.00     0.000 HD
BRANCH 42 49
ATOM     49   O  A00 X   3       8.194  53.240  76.2010  0.00  0.00     0.000 O
ATOM     50   O  A00 X   3       6.233  54.582  76.4890  0.00  0.00     0.000 OA
ATOM     51   O  A00 X   3       7.242  53.612  78.3940  0.00  0.00     0.000 OA
ATOM     52   O  A00 X   3       6.191  52.188  76.8270  0.00  0.00     0.000 OA
ATOM     53   S  A00 X   3       6.878  53.419  77.0120  0.00  0.00     0.000 S
ENDBRANCH 42 49
BRANCH 45 54
ATOM     54   C  A00 X   3      12.931  53.993  75.6440  0.00  0.00     0.000 C
ATOM     55   O  A00 X   3      13.770  53.317  75.0860  0.00  0.00     0.000 OA
ATOM     56   O  A00 X   3      13.226  54.540  76.6960  0.00  0.00     0.000 OA
ENDBRANCH 45 54
BRANCH 41 57
ATOM     57  O4  A00 X   4      11.355  51.491  76.7690  0.00  0.00     0.000 O
BRANCH 57 61
ATOM     58  C1  A00 X   4      13.089  47.542  76.5820  0.00  0.00     0.000 C
ATOM     59  C2  A00 X   4      13.513  48.588  75.5220  0.00  0.00     0.000 C
ATOM     60  C3  A00 X   4      13.120  50.033  75.8920  0.00  0.00     0.000 C
ATOM     61  C4  A00 X   4      11.650  50.127  76.3520  0.00  0.00     0.000 C
ATOM     62  C5  A00 X   4      11.504  49.157  77.5510  0.00  0.00     0.000 C
ATOM     63  O5  A00 X   4      11.765  47.803  77.1030  0.00  0.00     0.000 O
BRANCH 59 66
ATOM     64   N  A00 X   4      13.549  48.846  74.0710  0.00  0.00     0.000 N
ATOM     66  HD  A00 X   4      12.793  48.858  73.6480  0.00  0.00     0.000 HD
ATOM     66   O  A00 X   4      14.542  46.668  73.8090  0.00  0.00     0.000 OA
ATOM     67   S  A00 X   4      14.510  47.944  73.1650  0.00  0.00     0.000 S
ATOM     68   O  A00 X   4      13.804  47.987  71.9170  0.00  0.00     0.000 OA
ATOM     69   O  A00 X   4      15.704  48.739  73.1920  0.00  0.00     0.000 OA
ENDBRANCH 59 66
BRANCH 62 70
ATOM     70   C  A00 X   4      10.113  49.192  78.2270  0.00  0.00     0.000 C
ATOM     71   O  A00 X   4       9.314  49.213  81.7580  0.00  0.00     0.000 OA
ATOM     72   O  A00 X   4       8.476  47.885  80.0030  0.00  0.00     0.000 OA
ATOM     73   O  A00 X   4      10.274  49.439  79.6330  0.00  0.00     0.000 O
ATOM     74   O  A00 X   4      10.697  47.434  80.9000  0.00  0.00     0.000 OA
ATOM     75   S  A00 X   4       9.674  48.393  80.6350  0.00  0.00     0.000 S
ENDBRANCH 62 70
ENDBRANCH 57 61
ENDBRANCH 41 57
ENDBRANCH 40 44
ENDBRANCH 20 40
ENDBRANCH 19 23
ENDBRANCH 1 19
TORSDOF 14
ENDMDL
MODEL 73
REMARK VINA RESULT:      -5.1     28.458     33.250
ROOT
ATOM      1  C1  A00 X   1      18.900  53.642  57.9560  0.00  0.00     0.000 C
ATOM      2  C2  A00 X   1      18.150  54.230  59.1810  0.00  0.00     0.000 C
ATOM      3  C3  A00 X   1      17.976  53.272  60.4050  0.00  0.00     0.000 C
ATOM      4  C4  A00 X   1      18.237  51.770  60.1210  0.00  0.00     0.000 C
ATOM      5  C5  A00 X   1      18.080  51.427  58.6400  0.00  0.00     0.000 C
ATOM      6  O5  A00 X   1      19.098  52.206  57.9730  0.00  0.00     0.000 O
ATOM      7   O  A00 X   1      16.633  53.368  60.8750  0.00  0.00     0.000 O
ATOM      9  HD  A00 X   1      16.852  52.530  60.8970  0.00  0.00     0.000 HD
ATOM      9   O  A00 X   1      19.530  51.370  60.5750  0.00  0.00     0.000 O
ATOM     11  HD  A00 X   1      19.749  50.533  60.5970  0.00  0.00     0.000 HD
ENDROOT
BRANCH 2 11
ATOM     11   O  A00 X   1      18.859  55.410  59.6050  0.00  0.00     0.000 O
ATOM     12   O  A00 X   1      18.332  56.539  61.6580  0.00  0.00     0.000 OA
ATOM     13   O  A00 X   1      16.667  56.450  59.8870  0.00  0.00     0.000 OA
ATOM     14   O  A00 X   1      18.649  57.735  59.6130  0.00  0.00     0.000 OA
ATOM     15   S  A00 X   1      18.051  56.591  60.2450  0.00  0.00     0.000 S
ENDBRANCH 2 11
BRANCH 5 16
ATOM     16   C  A00 X   1      16.673  51.640  58.0710  0.00  0.00     0.000 C
ATOM     17   O  A00 X   1      15.739  51.711  58.8430  0.00  0.00     0.000 OA
ATOM     18   O  A00 X   1      16.462  51.747  56.8800  0.00  0.00     0.000 OA
ENDBRANCH 5 16
BRANCH 1 19
ATOM     19  O4  A00 X   2      18.347  54.085  56.6930  0.00  0.00     0.000 O
BRANCH 19 23
ATOM     20  C1  A00 X   2      20.216  54.598  52.8710  0.00  0.00     0.000 C
ATOM     21  C2  A00 X   2      19.567  53.225  53.1710  0.00  0.00     0.000 C
ATOM     22  C3  A00 X   2      18.587  53.328  54.3570  0.00  0.00     0.000 C
ATOM     23  C4  A00 X   2      19.287  53.942  55.5900  0.00  0.00     0.000 C
ATOM     24  C5  A00 X   2      19.908  55.298  55.1570  0.00  0.00     0.000 C
ATOM     25  O5  A00 X   2      20.862  55.055  54.0900  0.00  0.00     0.000 O
ATOM     26   O  A00 X   2      17.961  52.048  54.5510  0.00  0.00     0.000 O
ATOM     28  HD  A00 X   2      18.716  51.623  54.5520  0.00  0.00     0.000 HD
BRANCH 21 30
ATOM     28   N  A00 X   2      20.641  52.573  52.4150  0.00  0.00     0.000 N
ATOM     30  HD  A00 X   2      20.000  51.995  52.4880  0.00  0.00     0.000 HD
ATOM     30   O  A00 X   2      19.752  50.680  51.3740  0.00  0.00     0.000 OA
ATOM     31   S  A00 X   2      20.698  50.994  52.3850  0.00  0.00     0.000 S
ATOM     32   O  A00 X   2      22.058  50.709  52.0500  0.00  0.00     0.000 OA
ATOM     33   O  A00 X   2      20.406  50.535  53.7110  0.00  0.00     0.000 OA
ENDBRANCH 21 30
BRANCH 24 34
ATOM     34   C  A00 X   2      20.471  56.224  56.2600  0.00  0.00     0.000 C
ATOM     35   O  A00 X   2      23.673  57.943  56.0450  0.00  0.00     0.000 OA
ATOM     36   O  A00 X   2      21.878  56.472  56.0670  0.00  0.00     0.000 O
ATOM     37   O  A00 X   2      21.955  58.144  54.4330  0.00  0.00     0.000 OA
ATOM     38   S  A00 X   2      22.266  57.976  55.8200  0.00  0.00     0.000 S
ATOM     39   O  A00 X   2      21.517  58.749  56.7650  0.00  0.00     0.000 OA
ENDBRANCH 24 34
BRANCH 20 40
ATOM     40  O4  A00 X   3      19.130  55.477  52.5450  0.00  0.00     0.000 O
BRANCH 40 44
ATOM     41  C1  A00 X   3      16.719  57.988  51.5420  0.00  0.00     0.000 C
ATOM     42  C2  A00 X   3      17.049  56.713  50.7360  0.00  0.00     0.000 C
ATOM     43  C3  A00 X   3      18.579  56.563  50.5360  0.00  0.00     0.000 C
ATOM     44  C4  A00 X   3      19.400  56.692  51.8130  0.00  0.00     0.000 C
ATOM     45  C5  A00 X   3      19.016  57.998  52.5630  0.00  0.00     0.000 C
ATOM     46  O5  A00 X   3      17.563  58.103  52.7200  0.00  0.00     0.000 O
ATOM     47   O  A00 X   3      18.997  55.464  49.7290  0.00  0.00     0.000 O
ATOM     49  HD  A00 X   3      19.629  55.416  50.3200  0.00  0.00     0.000 HD
BRANCH 42 49
ATOM     49   O  A00 X   3      16.500  55.595  51.4680  0.00  0.00     0.000 O
ATOM     50   O  A00 X   3      16.535  53.210  51.2720  0.00  0.00     0.000 OA
ATOM     51   O  A00 X   3      16.262  54.512  49.3170  0.00  0.00     0.000 OA
ATOM     52   O  A00 X   3      14.512  54.481  50.9050  0.00  0.00     0.000 OA
ATOM     53   S  A00 X   3      15.916  54.368  50.7090  0.00  0.00     0.000 S
ENDBRANCH 42 49
BRANCH 45 54
ATOM     54   C  A00 X   3      19.642  59.235  51.9080  0.00  0.00     0.000 C
ATOM     55   O  A00 X   3      19.546  60.327  52.4280  0.00  0.00     0.000 OA
ATOM     56   O  A00 X   3      20.248  59.143  50.8510  0.00  0.00     0.000 OA
ENDBRANCH 45 54
BRANCH 41 57
ATOM     57  O4  A00 X   4      16.718  59.164  50.7020  0.00  0.00     0.000 O
BRANCH 57 61
ATOM     58  C1  A00 X   4      14.422  62.819  50.7770  0.00  0.00     0.000 C
ATOM     59  C2  A00 X   4      15.738  62.755  51.5900  0.00  0.00     0.000 C
ATOM     60  C3  A00 X   4      16.639  61.562  51.2090  0.00  0.00     0.000 C
ATOM     61  C4  A00 X   4      15.844  60.240  51.1470  0.00  0.00     0.000 C
ATOM     62  C5  A00 X   4      14.705  60.464  50.1200  0.00  0.00     0.000 C
ATOM     63  O5  A00 X   4      13.827  61.513  50.6030  0.00  0.00     0.000 O
BRANCH 59 66
ATOM     64   N  A00 X   4      15.027  62.566  52.8670  0.00  0.00     0.000 N
ATOM     66  HD  A00 X   4      14.200  62.309  52.8300  0.00  0.00     0.000 HD
ATOM     66   O  A00 X   4      15.078  64.958  53.1350  0.00  0.00     0.000 OA
ATOM     67   S  A00 X   4      15.034  63.767  53.9230  0.00  0.00     0.000 S
ATOM     68   O  A00 X   4      13.795  63.522  54.6020  0.00  0.00     0.000 OA
ATOM     69   O  A00 X   4      16.201  63.426  54.6870  0.00  0.00     0.000 OA
ENDBRANCH 59 66
BRANCH 62 70
ATOM     70   C  A00 X   4      13.855  59.203  49.8350  0.00  0.00     0.000 C
ATOM     71   O  A00 X   4      10.604  58.320  51.1620  0.00  0.00     0.000 OA
ATOM     72   O  A00 X   4      12.591  57.067  51.0110  0.00  0.00     0.000 OA
ATOM     73   O  A00 X   4      12.537  59.387  50.3780  0.00  0.00     0.000 O
ATOM     74   O  A00 X   4      12.389  58.801  52.7110  0.00  0.00     0.000 OA
ATOM     75   S  A00 X   4      12.018  58.331  51.4150  0.00  0.00     0.000 S
ENDBRANCH 62 70
ENDBRANCH 57 61
ENDBRANCH 41 57
ENDBRANCH 40 44
ENDBRANCH 20 40
ENDBRANCH 19 23
ENDBRANCH 1 19
TORSDOF 14
ENDMDL
MODEL 74
REMARK VINA RESULT:      -5.1     52.055     56.009
ROOT
ATOM      1  C1  A00 X   1       8.652  65.155  28.4650  0.00  0.00     0.000 C
ATOM      2  C2  A00 X   1       8.423  64.141  27.3130  0.00  0.00     0.000 C
ATOM      3  C3  A00 X   1       9.661  63.841  26.4050  0.00  0.00     0.000 C
ATOM      4  C4  A00 X   1      10.838  64.843  26.5260  0.00  0.00     0.000 C
ATOM      5  C5  A00 X   1      10.387  66.199  27.0690  0.00  0.00     0.000 C
ATOM      6  O5  A00 X   1       9.884  65.915  28.3940  0.00  0.00     0.000 O
ATOM      7   O  A00 X   1       9.246  63.867  25.0410  0.00  0.00     0.000 O
ATOM      9  HD  A00 X   1      10.013  64.268  25.0820  0.00  0.00     0.000 HD
ATOM      9   O  A00 X   1      11.886  64.321  27.3420  0.00  0.00     0.000 O
ATOM     11  HD  A00 X   1      12.653  64.722  27.3830  0.00  0.00     0.000 HD
ENDROOT
BRANCH 2 11
ATOM     11   O  A00 X   1       7.961  62.909  27.8990  0.00  0.00     0.000 O
ATOM     12   O  A00 X   1       9.224  61.751  29.5830  0.00  0.00     0.000 OA
ATOM     13   O  A00 X   1      10.158  61.993  27.3500  0.00  0.00     0.000 OA
ATOM     14   O  A00 X   1       8.265  60.601  27.7200  0.00  0.00     0.000 OA
ATOM     15   S  A00 X   1       8.995  61.759  28.1600  0.00  0.00     0.000 S
ENDBRANCH 2 11
BRANCH 5 16
ATOM     16   C  A00 X   1       9.390  66.953  26.1830  0.00  0.00     0.000 C
ATOM     17   O  A00 X   1       8.836  67.934  26.6360  0.00  0.00     0.000 OA
ATOM     18   O  A00 X   1       9.139  66.609  25.0460  0.00  0.00     0.000 OA
ENDBRANCH 5 16
BRANCH 1 19
ATOM     19  O4  A00 X   2       7.511  66.019  28.6880  0.00  0.00     0.000 O
BRANCH 19 23
ATOM     20  C1  A00 X   2       7.124  64.888  32.8030  0.00  0.00     0.000 C
ATOM     21  C2  A00 X   2       6.010  64.433  31.8290  0.00  0.00     0.000 C
ATOM     22  C3  A00 X   2       6.488  64.527  30.3650  0.00  0.00     0.000 C
ATOM     23  C4  A00 X   2       7.013  65.946  30.0550  0.00  0.00     0.000 C
ATOM     24  C5  A00 X   2       8.105  66.289  31.1060  0.00  0.00     0.000 C
ATOM     25  O5  A00 X   2       7.512  66.237  32.4290  0.00  0.00     0.000 O
ATOM     26   O  A00 X   2       5.446  64.031  29.5070  0.00  0.00     0.000 O
ATOM     28  HD  A00 X   2       4.838  64.525  29.8750  0.00  0.00     0.000 HD
BRANCH 21 30
ATOM     28   N  A00 X   2       5.044  64.597  32.9200  0.00  0.00     0.000 N
ATOM     30  HD  A00 X   2       4.653  64.126  32.3080  0.00  0.00     0.000 HD
ATOM     30   O  A00 X   2       3.341  63.025  32.6270  0.00  0.00     0.000 OA
ATOM     31   S  A00 X   2       3.504  64.435  32.6010  0.00  0.00     0.000 S
ATOM     32   O  A00 X   2       2.862  65.137  33.6690  0.00  0.00     0.000 OA
ATOM     33   O  A00 X   2       3.259  65.095  31.3530  0.00  0.00     0.000 OA
ENDBRANCH 21 30
BRANCH 24 34
ATOM     34   C  A00 X   2       8.954  67.562  30.8820  0.00  0.00     0.000 C
ATOM     35   O  A00 X   2      12.219  68.129  32.3890  0.00  0.00     0.000 OA
ATOM     36   O  A00 X   2      10.007  67.667  31.8610  0.00  0.00     0.000 O
ATOM     37   O  A00 X   2      11.684  66.243  31.0670  0.00  0.00     0.000 OA
ATOM     38   S  A00 X   2      11.468  67.642  31.2800  0.00  0.00     0.000 S
ATOM     39   O  A00 X   2      11.461  68.494  30.1290  0.00  0.00     0.000 OA
ENDBRANCH 24 34
BRANCH 20 40
ATOM     40  O4  A00 X   3       8.223  63.993  32.5800  0.00  0.00     0.000 O
BRANCH 40 44
ATOM     41  C1  A00 X   3      10.561  61.247  32.9270  0.00  0.00     0.000 C
ATOM     42  C2  A00 X   3       9.121  61.254  33.4860  0.00  0.00     0.000 C
ATOM     43  C3  A00 X   3       8.853  62.538  34.3130  0.00  0.00     0.000 C
ATOM     44  C4  A00 X   3       9.225  63.835  33.6070  0.00  0.00     0.000 C
ATOM     45  C5  A00 X   3      10.685  63.754  33.0780  0.00  0.00     0.000 C
ATOM     46  O5  A00 X   3      10.896  62.523  32.3130  0.00  0.00     0.000 O
ATOM     47   O  A00 X   3       7.580  62.612  34.9520  0.00  0.00     0.000 O
ATOM     49  HD  A00 X   3       7.635  63.443  34.7140  0.00  0.00     0.000 HD
BRANCH 42 49
ATOM     49   O  A00 X   3       8.228  61.158  32.3550  0.00  0.00     0.000 O
ATOM     50   O  A00 X   3       5.859  61.061  32.0220  0.00  0.00     0.000 OA
ATOM     51   O  A00 X   3       6.814  59.820  33.7940  0.00  0.00     0.000 OA
ATOM     52   O  A00 X   3       7.280  59.156  31.5740  0.00  0.00     0.000 OA
ATOM     53   S  A00 X   3       6.965  60.251  32.4260  0.00  0.00     0.000 S
ENDBRANCH 42 49
BRANCH 45 54
ATOM     54   C  A00 X   3      11.708  63.947  34.2040  0.00  0.00     0.000 C
ATOM     55   O  A00 X   3      12.824  64.358  33.9620  0.00  0.00     0.000 OA
ATOM     56   O  A00 X   3      11.419  63.690  35.3630  0.00  0.00     0.000 OA
ENDBRANCH 45 54
BRANCH 41 57
ATOM     57  O4  A00 X   4      11.516  60.803  33.9160  0.00  0.00     0.000 O
BRANCH 57 61
ATOM     58  C1  A00 X   4      15.490  59.154  33.5570  0.00  0.00     0.000 C
ATOM     59  C2  A00 X   4      15.339  60.662  33.8760  0.00  0.00     0.000 C
ATOM     60  C3  A00 X   4      13.919  61.056  34.3310  0.00  0.00     0.000 C
ATOM     61  C4  A00 X   4      12.836  60.474  33.3970  0.00  0.00     0.000 C
ATOM     62  C5  A00 X   4      13.043  58.939  33.3930  0.00  0.00     0.000 C
ATOM     63  O5  A00 X   4      14.348  58.635  32.8370  0.00  0.00     0.000 O
BRANCH 59 66
ATOM     64   N  A00 X   4      15.615  61.260  32.5570  0.00  0.00     0.000 N
ATOM     66  HD  A00 X   4      15.502  60.760  31.8590  0.00  0.00     0.000 HD
ATOM     66   O  A00 X   4      17.950  61.239  33.1480  0.00  0.00     0.000 OA
ATOM     67   S  A00 X   4      17.033  61.966  32.3270  0.00  0.00     0.000 S
ATOM     68   O  A00 X   4      17.188  61.779  30.9140  0.00  0.00     0.000 OA
ATOM     69   O  A00 X   4      16.711  63.311  32.7120  0.00  0.00     0.000 OA
ENDBRANCH 59 66
BRANCH 62 70
ATOM     70   C  A00 X   4      11.974  58.159  32.5910  0.00  0.00     0.000 C
ATOM     71   O  A00 X   4      11.788  57.600  29.0190  0.00  0.00     0.000 OA
ATOM     72   O  A00 X   4      10.158  58.356  30.5400  0.00  0.00     0.000 OA
ATOM     73   O  A00 X   4      12.429  57.983  31.2390  0.00  0.00     0.000 O
ATOM     74   O  A00 X   4      11.930  59.869  29.8240  0.00  0.00     0.000 OA
ATOM     75   S  A00 X   4      11.519  58.526  30.0830  0.00  0.00     0.000 S
ENDBRANCH 62 70
ENDBRANCH 57 61
ENDBRANCH 41 57
ENDBRANCH 40 44
ENDBRANCH 20 40
ENDBRANCH 19 23
ENDBRANCH 1 19
TORSDOF 14
ENDMDL
MODEL 75
REMARK VINA RESULT:      -4.9     38.534     42.822
ROOT
ATOM      1  C1  A00 X   1      33.302  47.431  44.2640  0.00  0.00     0.000 C
ATOM      2  C2  A00 X   1      34.610  47.858  44.9830  0.00  0.00     0.000 C
ATOM      3  C3  A00 X   1      34.631  49.309  45.5670  0.00  0.00     0.000 C
ATOM      4  C4  A00 X   1      33.517  50.254  45.0490  0.00  0.00     0.000 C
ATOM      5  C5  A00 X   1      32.954  49.800  43.7030  0.00  0.00     0.000 C
ATOM      6  O5  A00 X   1      32.374  48.503  43.9660  0.00  0.00     0.000 O
ATOM      7   O  A00 X   1      35.873  49.921  45.2260  0.00  0.00     0.000 O
ATOM      9  HD  A00 X   1      35.255  50.519  45.1200  0.00  0.00     0.000 HD
ATOM      9   O  A00 X   1      32.457  50.380  45.9970  0.00  0.00     0.000 O
ATOM     11  HD  A00 X   1      31.840  50.978  45.8910  0.00  0.00     0.000 HD
ENDROOT
BRANCH 2 11
ATOM     11   O  A00 X   1      34.851  46.919  46.0490  0.00  0.00     0.000 O
ATOM     12   O  A00 X   1      36.546  47.289  47.7080  0.00  0.00     0.000 OA
ATOM     13   O  A00 X   1      37.200  46.989  45.3850  0.00  0.00     0.000 OA
ATOM     14   O  A00 X   1      36.291  45.174  46.6250  0.00  0.00     0.000 OA
ATOM     15   S  A00 X   1      36.329  46.602  46.4610  0.00  0.00     0.000 S
ENDBRANCH 2 11
BRANCH 5 16
ATOM     16   C  A00 X   1      33.961  49.798  42.5480  0.00  0.00     0.000 C
ATOM     17   O  A00 X   1      33.654  49.246  41.5110  0.00  0.00     0.000 OA
ATOM     18   O  A00 X   1      35.048  50.334  42.6300  0.00  0.00     0.000 OA
ENDBRANCH 5 16
BRANCH 1 19
ATOM     19  O4  A00 X   2      33.546  46.605  43.0990  0.00  0.00     0.000 O
BRANCH 19 23
ATOM     20  C1  A00 X   2      30.571  43.717  44.1820  0.00  0.00     0.000 C
ATOM     21  C2  A00 X   2      32.053  43.335  44.4110  0.00  0.00     0.000 C
ATOM     22  C3  A00 X   2      32.952  44.589  44.3920  0.00  0.00     0.000 C
ATOM     23  C4  A00 X   2      32.734  45.396  43.0920  0.00  0.00     0.000 C
ATOM     24  C5  A00 X   2      31.215  45.698  42.9710  0.00  0.00     0.000 C
ATOM     25  O5  A00 X   2      30.491  44.441  42.9260  0.00  0.00     0.000 O
ATOM     26   O  A00 X   2      34.305  44.191  44.6760  0.00  0.00     0.000 O
ATOM     28  HD  A00 X   2      34.298  43.563  44.0810  0.00  0.00     0.000 HD
BRANCH 21 30
ATOM     28   N  A00 X   2      32.810  42.840  45.5650  0.00  0.00     0.000 N
ATOM     30  HD  A00 X   2      32.458  42.149  45.1800  0.00  0.00     0.000 HD
ATOM     30   O  A00 X   2      33.109  40.538  45.3040  0.00  0.00     0.000 OA
ATOM     31   S  A00 X   2      32.429  41.432  46.1730  0.00  0.00     0.000 S
ATOM     32   O  A00 X   2      32.945  41.488  47.5060  0.00  0.00     0.000 OA
ATOM     33   O  A00 X   2      30.999  41.353  46.1970  0.00  0.00     0.000 OA
ENDBRANCH 21 30
BRANCH 24 34
ATOM     34   C  A00 X   2      30.758  46.690  41.8760  0.00  0.00     0.000 C
ATOM     35   O  A00 X   2      31.187  46.127  38.3040  0.00  0.00     0.000 OA
ATOM     36   O  A00 X   2      31.364  46.381  40.6050  0.00  0.00     0.000 O
ATOM     37   O  A00 X   2      30.068  44.630  39.7530  0.00  0.00     0.000 OA
ATOM     38   S  A00 X   2      30.358  46.000  39.4570  0.00  0.00     0.000 S
ATOM     39   O  A00 X   2      29.279  46.939  39.5360  0.00  0.00     0.000 OA
ENDBRANCH 24 34
BRANCH 20 40
ATOM     40  O4  A00 X   3      30.225  44.594  45.2640  0.00  0.00     0.000 O
BRANCH 40 44
ATOM     41  C1  A00 X   3      28.747  47.080  47.4460  0.00  0.00     0.000 C
ATOM     42  C2  A00 X   3      29.521  45.834  47.9280  0.00  0.00     0.000 C
ATOM     43  C3  A00 X   3      28.977  44.548  47.2540  0.00  0.00     0.000 C
ATOM     44  C4  A00 X   3      28.861  44.628  45.7370  0.00  0.00     0.000 C
ATOM     45  C5  A00 X   3      28.068  45.902  45.3310  0.00  0.00     0.000 C
ATOM     46  O5  A00 X   3      28.608  47.089  45.9980  0.00  0.00     0.000 O
ATOM     47   O  A00 X   3      29.561  43.322  47.6910  0.00  0.00     0.000 O
ATOM     49  HD  A00 X   3      29.499  43.124  46.8500  0.00  0.00     0.000 HD
BRANCH 42 49
ATOM     49   O  A00 X   3      30.913  46.050  47.6080  0.00  0.00     0.000 O
ATOM     50   O  A00 X   3      32.959  44.835  47.8670  0.00  0.00     0.000 OA
ATOM     51   O  A00 X   3      31.400  44.837  49.6450  0.00  0.00     0.000 OA
ATOM     52   O  A00 X   3      32.517  46.854  49.1230  0.00  0.00     0.000 OA
ATOM     53   S  A00 X   3      32.025  45.622  48.6090  0.00  0.00     0.000 S
ENDBRANCH 42 49
BRANCH 45 54
ATOM     54   C  A00 X   3      26.560  45.724  45.5450  0.00  0.00     0.000 C
ATOM     55   O  A00 X   3      26.125  44.723  46.0770  0.00  0.00     0.000 OA
ATOM     56   O  A00 X   3      25.771  46.583  45.1830  0.00  0.00     0.000 OA
ENDBRANCH 45 54
BRANCH 41 57
ATOM     57  O4  A00 X   4      27.499  47.242  48.1560  0.00  0.00     0.000 O
BRANCH 57 61
ATOM     58  C1  A00 X   4      25.130  50.746  49.0230  0.00  0.00     0.000 C
ATOM     59  C2  A00 X   4      24.676  49.809  47.8770  0.00  0.00     0.000 C
ATOM     60  C3  A00 X   4      25.372  48.433  47.8950  0.00  0.00     0.000 C
ATOM     61  C4  A00 X   4      26.901  48.566  48.0620  0.00  0.00     0.000 C
ATOM     62  C5  A00 X   4      27.129  49.353  49.3770  0.00  0.00     0.000 C
ATOM     63  O5  A00 X   4      26.558  50.680  49.2440  0.00  0.00     0.000 O
BRANCH 59 66
ATOM     64   N  A00 X   4      23.361  49.410  47.3420  0.00  0.00     0.000 N
ATOM     66  HD  A00 X   4      23.352  48.939  46.6150  0.00  0.00     0.000 HD
ATOM     66   O  A00 X   4      23.006  51.720  46.7640  0.00  0.00     0.000 OA
ATOM     67   S  A00 X   4      22.263  50.548  47.1040  0.00  0.00     0.000 S
ATOM     68   O  A00 X   4      21.511  49.962  46.0340  0.00  0.00     0.000 OA
ATOM     69   O  A00 X   4      21.595  50.524  48.3750  0.00  0.00     0.000 OA
ENDBRANCH 59 66
BRANCH 62 70
ATOM     70   C  A00 X   4      28.616  49.495  49.7780  0.00  0.00     0.000 C
ATOM     71   O  A00 X   4      30.902  52.210  49.0610  0.00  0.00     0.000 OA
ATOM     72   O  A00 X   4      31.152  49.883  48.7960  0.00  0.00     0.000 OA
ATOM     73   O  A00 X   4      29.057  50.834  49.4990  0.00  0.00     0.000 O
ATOM     74   O  A00 X   4      29.777  51.134  47.2200  0.00  0.00     0.000 OA
ATOM     75   S  A00 X   4      30.289  51.017  48.5470  0.00  0.00     0.000 S
ENDBRANCH 62 70
ENDBRANCH 57 61
ENDBRANCH 41 57
ENDBRANCH 40 44
ENDBRANCH 20 40
ENDBRANCH 19 23
ENDBRANCH 1 19
TORSDOF 14
ENDMDL
MODEL 76
REMARK VINA RESULT:      -4.9     21.228     27.118
ROOT
ATOM      1  C1  A00 X   1       6.241  56.414  65.1920  0.00  0.00     0.000 C
ATOM      2  C2  A00 X   1       7.629  55.734  65.3340  0.00  0.00     0.000 C
ATOM      3  C3  A00 X   1       8.667  56.049  64.2070  0.00  0.00     0.000 C
ATOM      4  C4  A00 X   1       8.084  56.687  62.9200  0.00  0.00     0.000 C
ATOM      5  C5  A00 X   1       6.592  56.397  62.7580  0.00  0.00     0.000 C
ATOM      6  O5  A00 X   1       5.970  57.021  63.9040  0.00  0.00     0.000 O
ATOM      7   O  A00 X   1       9.293  54.832  63.8090  0.00  0.00     0.000 O
ATOM      9  HD  A00 X   1       9.136  55.286  63.0880  0.00  0.00     0.000 HD
ATOM      9   O  A00 X   1       8.309  58.096  62.8880  0.00  0.00     0.000 O
ATOM     11  HD  A00 X   1       8.152  58.550  62.1670  0.00  0.00     0.000 HD
ENDROOT
BRANCH 2 11
ATOM     11   O  A00 X   1       8.181  56.128  66.6050  0.00  0.00     0.000 O
ATOM     12   O  A00 X   1      10.156  55.099  67.5050  0.00  0.00     0.000 OA
ATOM     13   O  A00 X   1       8.152  53.756  67.1890  0.00  0.00     0.000 OA
ATOM     14   O  A00 X   1       8.209  55.464  68.8430  0.00  0.00     0.000 OA
ATOM     15   S  A00 X   1       8.718  55.019  67.5740  0.00  0.00     0.000 S
ENDBRANCH 2 11
BRANCH 5 16
ATOM     16   C  A00 X   1       6.233  54.917  62.5950  0.00  0.00     0.000 C
ATOM     17   O  A00 X   1       5.089  54.570  62.8060  0.00  0.00     0.000 OA
ATOM     18   O  A00 X   1       7.048  54.082  62.2570  0.00  0.00     0.000 OA
ENDBRANCH 5 16
BRANCH 1 19
ATOM     19  O4  A00 X   2       5.151  55.557  65.6110  0.00  0.00     0.000 O
BRANCH 19 23
ATOM     20  C1  A00 X   2       2.571  58.743  66.8590  0.00  0.00     0.000 C
ATOM     21  C2  A00 X   2       3.611  58.224  67.8810  0.00  0.00     0.000 C
ATOM     22  C3  A00 X   2       4.719  57.416  67.1750  0.00  0.00     0.000 C
ATOM     23  C4  A00 X   2       4.106  56.287  66.3160  0.00  0.00     0.000 C
ATOM     24  C5  A00 X   2       3.073  56.931  65.3520  0.00  0.00     0.000 C
ATOM     25  O5  A00 X   2       2.050  57.594  66.1380  0.00  0.00     0.000 O
ATOM     26   O  A00 X   2       5.693  57.016  68.1540  0.00  0.00     0.000 O
ATOM     28  HD  A00 X   2       5.095  56.694  68.6910  0.00  0.00     0.000 HD
BRANCH 21 30
ATOM     28   N  A00 X   2       4.686  58.236  68.8780  0.00  0.00     0.000 N
ATOM     30  HD  A00 X   2       4.053  58.742  69.1850  0.00  0.00     0.000 HD
ATOM     30   O  A00 X   2       3.812  59.067  70.8790  0.00  0.00     0.000 OA
ATOM     31   S  A00 X   2       4.764  59.443  69.8950  0.00  0.00     0.000 S
ATOM     32   O  A00 X   2       6.125  59.429  70.3330  0.00  0.00     0.000 OA
ATOM     33   O  A00 X   2       4.493  60.639  69.1530  0.00  0.00     0.000 OA
ENDBRANCH 21 30
BRANCH 24 34
ATOM     34   C  A00 X   2       2.483  56.050  64.2260  0.00  0.00     0.000 C
ATOM     35   O  A00 X   2       1.232  57.346  61.0620  0.00  0.00     0.000 OA
ATOM     36   O  A00 X   2       1.757  56.844  63.2660  0.00  0.00     0.000 O
ATOM     37   O  A00 X   2       3.414  57.743  61.8820  0.00  0.00     0.000 OA
ATOM     38   S  A00 X   2       2.328  56.814  61.8020  0.00  0.00     0.000 S
ATOM     39   O  A00 X   2       2.645  55.446  61.5180  0.00  0.00     0.000 OA
ENDBRANCH 24 34
BRANCH 20 40
ATOM     40  O4  A00 X   3       3.302  59.585  65.9550  0.00  0.00     0.000 O
BRANCH 40 44
ATOM     41  C1  A00 X   3       4.628  61.745  63.3660  0.00  0.00     0.000 C
ATOM     42  C2  A00 X   3       4.867  61.936  64.8800  0.00  0.00     0.000 C
ATOM     43  C3  A00 X   3       3.528  61.905  65.6620  0.00  0.00     0.000 C
ATOM     44  C4  A00 X   3       2.637  60.711  65.3440  0.00  0.00     0.000 C
ATOM     45  C5  A00 X   3       2.439  60.588  63.8060  0.00  0.00     0.000 C
ATOM     46  O5  A00 X   3       3.726  60.633  63.1090  0.00  0.00     0.000 O
ATOM     47   O  A00 X   3       3.619  62.158  67.0620  0.00  0.00     0.000 O
ATOM     49  HD  A00 X   3       3.015  61.538  67.0990  0.00  0.00     0.000 HD
BRANCH 42 49
ATOM     49   O  A00 X   3       5.751  60.876  65.3060  0.00  0.00     0.000 O
ATOM     50   O  A00 X   3       7.550  60.644  66.8680  0.00  0.00     0.000 OA
ATOM     51   O  A00 X   3       7.434  62.599  65.5440  0.00  0.00     0.000 OA
ATOM     52   O  A00 X   3       7.925  60.545  64.4820  0.00  0.00     0.000 OA
ATOM     53   S  A00 X   3       7.257  61.168  65.5720  0.00  0.00     0.000 S
ENDBRANCH 42 49
BRANCH 45 54
ATOM     54   C  A00 X   3       1.432  61.618  63.2800  0.00  0.00     0.000 C
ATOM     55   O  A00 X   3       1.146  61.656  62.1000  0.00  0.00     0.000 OA
ATOM     56   O  A00 X   3       0.902  62.417  64.0350  0.00  0.00     0.000 OA
ENDBRANCH 45 54
BRANCH 41 57
ATOM     57  O4  A00 X   4       4.233  62.980  62.7280  0.00  0.00     0.000 O
BRANCH 57 61
ATOM     58  C1  A00 X   4       5.289  64.818  58.9670  0.00  0.00     0.000 C
ATOM     59  C2  A00 X   4       4.144  63.775  58.9870  0.00  0.00     0.000 C
ATOM     60  C3  A00 X   4       3.621  63.463  60.4040  0.00  0.00     0.000 C
ATOM     61  C4  A00 X   4       4.774  63.186  61.3920  0.00  0.00     0.000 C
ATOM     62  C5  A00 X   4       5.680  64.442  61.3680  0.00  0.00     0.000 C
ATOM     63  O5  A00 X   4       6.236  64.604  60.0380  0.00  0.00     0.000 O
BRANCH 59 66
ATOM     64   N  A00 X   4       3.217  62.820  58.3520  0.00  0.00     0.000 N
ATOM     66  HD  A00 X   4       3.344  61.978  58.5060  0.00  0.00     0.000 HD
ATOM     66   O  A00 X   4       4.244  63.379  56.2460  0.00  0.00     0.000 OA
ATOM     67   S  A00 X   4       2.997  62.917  56.7700  0.00  0.00     0.000 S
ATOM     68   O  A00 X   4       2.669  61.554  56.4710  0.00  0.00     0.000 OA
ATOM     69   O  A00 X   4       1.878  63.815  56.7250  0.00  0.00     0.000 OA
ENDBRANCH 59 66
BRANCH 62 70
ATOM     70   C  A00 X   4       6.844  64.401  62.3860  0.00  0.00     0.000 C
ATOM     71   O  A00 X   4       7.215  66.256  65.4730  0.00  0.00     0.000 OA
ATOM     72   O  A00 X   4       8.712  65.941  63.6830  0.00  0.00     0.000 OA
ATOM     73   O  A00 X   4       6.459  65.107  63.5770  0.00  0.00     0.000 O
ATOM     74   O  A00 X   4       6.840  67.481  63.4310  0.00  0.00     0.000 OA
ATOM     75   S  A00 X   4       7.360  66.302  64.0450  0.00  0.00     0.000 S
ENDBRANCH 62 70
ENDBRANCH 57 61
ENDBRANCH 41 57
ENDBRANCH 40 44
ENDBRANCH 20 40
ENDBRANCH 19 23
ENDBRANCH 1 19
TORSDOF 14
ENDMDL
MODEL 77
REMARK VINA RESULT:      -4.8     22.202     28.116
ROOT
ATOM      1  C1  A00 X   1       8.701  57.697  64.9360  0.00  0.00     0.000 C
ATOM      2  C2  A00 X   1       9.806  57.086  65.8380  0.00  0.00     0.000 C
ATOM      3  C3  A00 X   1      10.829  56.141  65.1270  0.00  0.00     0.000 C
ATOM      4  C4  A00 X   1      10.412  55.641  63.7200  0.00  0.00     0.000 C
ATOM      5  C5  A00 X   1       8.899  55.703  63.5110  0.00  0.00     0.000 C
ATOM      6  O5  A00 X   1       8.570  57.106  63.6190  0.00  0.00     0.000 O
ATOM      7   O  A00 X   1      11.013  54.978  65.9310  0.00  0.00     0.000 O
ATOM      9  HD  A00 X   1      10.971  54.714  65.1070  0.00  0.00     0.000 HD
ATOM      9   O  A00 X   1      11.071  56.376  62.6880  0.00  0.00     0.000 O
ATOM     11  HD  A00 X   1      11.029  56.113  61.8650  0.00  0.00     0.000 HD
ENDROOT
BRANCH 2 11
ATOM     11   O  A00 X   1      10.522  58.175  66.4530  0.00  0.00     0.000 O
ATOM     12   O  A00 X   1      12.530  57.819  67.7200  0.00  0.00     0.000 OA
ATOM     13   O  A00 X   1      10.436  56.873  68.5190  0.00  0.00     0.000 OA
ATOM     14   O  A00 X   1      10.774  59.228  68.5220  0.00  0.00     0.000 OA
ATOM     15   S  A00 X   1      11.109  57.979  67.8930  0.00  0.00     0.000 S
ENDBRANCH 2 11
BRANCH 5 16
ATOM     16   C  A00 X   1       8.079  54.807  64.4450  0.00  0.00     0.000 C
ATOM     17   O  A00 X   1       6.878  54.973  64.5030  0.00  0.00     0.000 OA
ATOM     18   O  A00 X   1       8.586  53.935  65.1220  0.00  0.00     0.000 OA
ENDBRANCH 5 16
BRANCH 1 19
ATOM     19  O4  A00 X   2       7.419  57.790  65.6030  0.00  0.00     0.000 O
BRANCH 19 23
ATOM     20  C1  A00 X   2       6.534  61.667  64.0080  0.00  0.00     0.000 C
ATOM     21  C2  A00 X   2       7.077  61.597  65.4560  0.00  0.00     0.000 C
ATOM     22  C3  A00 X   2       7.743  60.232  65.7270  0.00  0.00     0.000 C
ATOM     23  C4  A00 X   2       6.771  59.077  65.3940  0.00  0.00     0.000 C
ATOM     24  C5  A00 X   2       6.288  59.272  63.9310  0.00  0.00     0.000 C
ATOM     25  O5  A00 X   2       5.618  60.555  63.8260  0.00  0.00     0.000 O
ATOM     26   O  A00 X   2       8.289  60.242  67.0570  0.00  0.00     0.000 O
ATOM     28  HD  A00 X   2       7.552  60.527  67.4120  0.00  0.00     0.000 HD
BRANCH 21 30
ATOM     28   N  A00 X   2       8.189  62.383  65.9990  0.00  0.00     0.000 N
ATOM     30  HD  A00 X   2       7.465  62.832  66.1540  0.00  0.00     0.000 HD
ATOM     30   O  A00 X   2       7.305  63.991  67.4450  0.00  0.00     0.000 OA
ATOM     31   S  A00 X   2       7.991  63.938  66.2030  0.00  0.00     0.000 S
ATOM     32   O  A00 X   2       9.327  64.449  66.2280  0.00  0.00     0.000 OA
ATOM     33   O  A00 X   2       7.292  64.430  65.0530  0.00  0.00     0.000 OA
ENDBRANCH 21 30
BRANCH 24 34
ATOM     34   C  A00 X   2       5.485  58.124  63.2730  0.00  0.00     0.000 C
ATOM     35   O  A00 X   2       5.253  57.595  59.6790  0.00  0.00     0.000 OA
ATOM     36   O  A00 X   2       5.282  58.367  61.8670  0.00  0.00     0.000 O
ATOM     37   O  A00 X   2       7.294  57.718  60.8670  0.00  0.00     0.000 OA
ATOM     38   S  A00 X   2       5.924  57.304  60.9030  0.00  0.00     0.000 S
ATOM     39   O  A00 X   2       5.633  56.020  61.4650  0.00  0.00     0.000 OA
ENDBRANCH 24 34
BRANCH 20 40
ATOM     40  O4  A00 X   3       7.676  61.492  63.1570  0.00  0.00     0.000 O
BRANCH 40 44
ATOM     41  C1  A00 X   3      10.191  61.099  60.5790  0.00  0.00     0.000 C
ATOM     42  C2  A00 X   3      10.289  62.088  61.7610  0.00  0.00     0.000 C
ATOM     43  C3  A00 X   3       9.003  62.946  61.8740  0.00  0.00     0.000 C
ATOM     44  C4  A00 X   3       7.706  62.147  61.8700  0.00  0.00     0.000 C
ATOM     45  C5  A00 X   3       7.680  61.181  60.6530  0.00  0.00     0.000 C
ATOM     46  O5  A00 X   3       8.916  60.399  60.5790  0.00  0.00     0.000 O
ATOM     47   O  A00 X   3       9.016  63.957  62.8800  0.00  0.00     0.000 O
ATOM     49  HD  A00 X   3       8.193  63.707  62.9830  0.00  0.00     0.000 HD
BRANCH 42 49
ATOM     49   O  A00 X   3      10.507  61.302  62.9530  0.00  0.00     0.000 O
ATOM     50   O  A00 X   3      10.832  61.744  65.2830  0.00  0.00     0.000 OA
ATOM     51   O  A00 X   3      11.916  63.123  63.6990  0.00  0.00     0.000 OA
ATOM     52   O  A00 X   3      12.613  60.873  63.8990  0.00  0.00     0.000 OA
ATOM     53   S  A00 X   3      11.523  61.777  64.0330  0.00  0.00     0.000 S
ENDBRANCH 42 49
BRANCH 45 54
ATOM     54   C  A00 X   3       7.355  61.920  59.3490  0.00  0.00     0.000 C
ATOM     55   O  A00 X   3       7.476  61.365  58.2760  0.00  0.00     0.000 OA
ATOM     56   O  A00 X   3       6.969  63.079  59.3660  0.00  0.00     0.000 OA
ENDBRANCH 45 54
BRANCH 41 57
ATOM     57  O4  A00 X   4      10.512  61.735  59.3220  0.00  0.00     0.000 O
BRANCH 57 61
ATOM     58  C1  A00 X   4      12.925  60.266  56.0570  0.00  0.00     0.000 C
ATOM     59  C2  A00 X   4      11.425  60.555  55.7990  0.00  0.00     0.000 C
ATOM     60  C3  A00 X   4      10.762  61.399  56.9060  0.00  0.00     0.000 C
ATOM     61  C4  A00 X   4      11.090  60.858  58.3140  0.00  0.00     0.000 C
ATOM     62  C5  A00 X   4      12.635  60.852  58.4300  0.00  0.00     0.000 C
ATOM     63  O5  A00 X   4      13.184  59.943  57.4430  0.00  0.00     0.000 O
BRANCH 59 66
ATOM     64   N  A00 X   4      11.390  59.083  55.8780  0.00  0.00     0.000 N
ATOM     66  HD  A00 X   4      12.105  58.681  56.1540  0.00  0.00     0.000 HD
ATOM     66   O  A00 X   4      11.375  59.055  53.4700  0.00  0.00     0.000 OA
ATOM     67   S  A00 X   4      10.938  58.266  54.5790  0.00  0.00     0.000 S
ATOM     68   O  A00 X   4      11.653  57.040  54.7840  0.00  0.00     0.000 OA
ATOM     69   O  A00 X   4       9.526  58.171  54.8190  0.00  0.00     0.000 OA
ENDBRANCH 59 66
BRANCH 62 70
ATOM     70   C  A00 X   4      13.162  60.440  59.8250  0.00  0.00     0.000 C
ATOM     71   O  A00 X   4      14.554  57.265  60.8690  0.00  0.00     0.000 OA
ATOM     72   O  A00 X   4      12.883  58.604  61.8490  0.00  0.00     0.000 OA
ATOM     73   O  A00 X   4      13.846  59.180  59.7210  0.00  0.00     0.000 O
ATOM     74   O  A00 X   4      12.361  57.288  59.8650  0.00  0.00     0.000 OA
ATOM     75   S  A00 X   4      13.344  57.997  60.6200  0.00  0.00     0.000 S
ENDBRANCH 62 70
ENDBRANCH 57 61
ENDBRANCH 41 57
ENDBRANCH 40 44
ENDBRANCH 20 40
ENDBRANCH 19 23
ENDBRANCH 1 19
TORSDOF 14
ENDMDL
MODEL 78
REMARK VINA RESULT:      -4.8      8.473     15.381
ROOT
ATOM      1  C1  A00 X   1       6.886  52.874  73.7030  0.00  0.00     0.000 C
ATOM      2  C2  A00 X   1       5.411  53.356  73.7440  0.00  0.00     0.000 C
ATOM      3  C3  A00 X   1       4.432  52.499  74.6110  0.00  0.00     0.000 C
ATOM      4  C4  A00 X   1       4.951  51.095  75.0150  0.00  0.00     0.000 C
ATOM      5  C5  A00 X   1       6.048  50.593  74.0760  0.00  0.00     0.000 C
ATOM      6  O5  A00 X   1       7.125  51.544  74.2270  0.00  0.00     0.000 O
ATOM      7   O  A00 X   1       3.231  52.289  73.8720  0.00  0.00     0.000 O
ATOM      9  HD  A00 X   1       3.424  51.541  74.2640  0.00  0.00     0.000 HD
ATOM      9   O  A00 X   1       5.426  51.081  76.3610  0.00  0.00     0.000 O
ATOM     11  HD  A00 X   1       5.619  50.333  76.7530  0.00  0.00     0.000 HD
ENDROOT
BRANCH 2 11
ATOM     11   O  A00 X   1       5.407  54.712  74.2330  0.00  0.00     0.000 O
ATOM     12   O  A00 X   1       3.383  55.807  74.9210  0.00  0.00     0.000 OA
ATOM     13   O  A00 X   1       3.646  55.143  72.5950  0.00  0.00     0.000 OA
ATOM     14   O  A00 X   1       4.978  56.889  73.5070  0.00  0.00     0.000 OA
ATOM     15   S  A00 X   1       4.256  55.676  73.7820  0.00  0.00     0.000 S
ENDBRANCH 2 11
BRANCH 5 16
ATOM     16   C  A00 X   1       5.611  50.387  72.6220  0.00  0.00     0.000 C
ATOM     17   O  A00 X   1       6.466  50.237  71.7740  0.00  0.00     0.000 OA
ATOM     18   O  A00 X   1       4.443  50.361  72.2900  0.00  0.00     0.000 OA
ENDBRANCH 5 16
BRANCH 1 19
ATOM     19  O4  A00 X   2       7.496  53.046  72.4000  0.00  0.00     0.000 O
BRANCH 19 23
ATOM     20  C1  A00 X   2      11.022  54.898  73.9830  0.00  0.00     0.000 C
ATOM     21  C2  A00 X   2       9.963  55.819  73.3290  0.00  0.00     0.000 C
ATOM     22  C3  A00 X   2       8.605  55.096  73.2090  0.00  0.00     0.000 C
ATOM     23  C4  A00 X   2       8.770  53.750  72.4680  0.00  0.00     0.000 C
ATOM     24  C5  A00 X   2       9.865  52.932  73.2070  0.00  0.00     0.000 C
ATOM     25  O5  A00 X   2      11.104  53.687  73.1860  0.00  0.00     0.000 O
ATOM     26   O  A00 X   2       7.642  56.012  72.6610  0.00  0.00     0.000 O
ATOM     28  HD  A00 X   2       8.157  56.238  72.0020  0.00  0.00     0.000 HD
BRANCH 21 30
ATOM     28   N  A00 X   2      11.054  56.669  72.8430  0.00  0.00     0.000 N
ATOM     30  HD  A00 X   2      10.325  57.132  72.7730  0.00  0.00     0.000 HD
ATOM     30   O  A00 X   2      10.282  58.874  72.7740  0.00  0.00     0.000 OA
ATOM     31   S  A00 X   2      10.707  57.865  71.8690  0.00  0.00     0.000 S
ATOM     32   O  A00 X   2      11.946  58.132  71.2050  0.00  0.00     0.000 OA
ATOM     33   O  A00 X   2       9.736  57.382  70.9340  0.00  0.00     0.000 OA
ENDBRANCH 21 30
BRANCH 24 34
ATOM     34   C  A00 X   2      10.060  51.452  72.8040  0.00  0.00     0.000 C
ATOM     35   O  A00 X   2      13.306  49.903  72.2330  0.00  0.00     0.000 OA
ATOM     36   O  A00 X   2      11.393  51.216  72.3080  0.00  0.00     0.000 O
ATOM     37   O  A00 X   2      12.703  51.009  74.2350  0.00  0.00     0.000 OA
ATOM     38   S  A00 X   2      12.250  50.198  73.1460  0.00  0.00     0.000 S
ATOM     39   O  A00 X   2      11.387  49.098  73.4520  0.00  0.00     0.000 OA
ENDBRANCH 24 34
BRANCH 20 40
ATOM     40  O4  A00 X   3      10.509  54.582  75.2850  0.00  0.00     0.000 O
BRANCH 40 44
ATOM     41  C1  A00 X   3       9.842  52.751  78.3400  0.00  0.00     0.000 C
ATOM     42  C2  A00 X   3       9.538  54.250  78.1280  0.00  0.00     0.000 C
ATOM     43  C3  A00 X   3      10.782  54.997  77.5820  0.00  0.00     0.000 C
ATOM     44  C4  A00 X   3      11.432  54.343  76.3690  0.00  0.00     0.000 C
ATOM     45  C5  A00 X   3      11.711  52.841  76.6610  0.00  0.00     0.000 C
ATOM     46  O5  A00 X   3      10.514  52.179  77.1830  0.00  0.00     0.000 O
ATOM     47   O  A00 X   3      10.644  56.408  77.4290  0.00  0.00     0.000 O
ATOM     49  HD  A00 X   3      11.103  56.262  76.7100  0.00  0.00     0.000 HD
BRANCH 42 49
ATOM     49   O  A00 X   3       8.427  54.331  77.2080  0.00  0.00     0.000 O
ATOM     50   O  A00 X   3       7.108  56.074  76.2340  0.00  0.00     0.000 OA
ATOM     51   O  A00 X   3       7.689  56.225  78.5200  0.00  0.00     0.000 OA
ATOM     52   O  A00 X   3       6.178  54.535  77.8500  0.00  0.00     0.000 OA
ATOM     53   S  A00 X   3       7.275  55.348  77.4530  0.00  0.00     0.000 S
ENDBRANCH 42 49
BRANCH 45 54
ATOM     54   C  A00 X   3      12.942  52.656  77.5560  0.00  0.00     0.000 C
ATOM     55   O  A00 X   3      13.423  51.554  77.7260  0.00  0.00     0.000 OA
ATOM     56   O  A00 X   3      13.460  53.612  78.1130  0.00  0.00     0.000 OA
ENDBRANCH 45 54
BRANCH 41 57
ATOM     57  O4  A00 X   4      10.525  52.517  79.5910  0.00  0.00     0.000 O
BRANCH 57 61
ATOM     58  C1  A00 X   4      10.728  48.901  81.9420  0.00  0.00     0.000 C
ATOM     59  C2  A00 X   4      10.588  48.778  80.4040  0.00  0.00     0.000 C
ATOM     60  C3  A00 X   4      10.886  50.092  79.6530  0.00  0.00     0.000 C
ATOM     61  C4  A00 X   4      10.146  51.292  80.2820  0.00  0.00     0.000 C
ATOM     62  C5  A00 X   4      10.595  51.352  81.7640  0.00  0.00     0.000 C
ATOM     63  O5  A00 X   4      10.173  50.140  82.4390  0.00  0.00     0.000 O
BRANCH 59 66
ATOM     64   N  A00 X   4       9.328  48.437  81.0880  0.00  0.00     0.000 N
ATOM     66  HD  A00 X   4       9.307  48.513  81.9500  0.00  0.00     0.000 HD
ATOM     66   O  A00 X   4       9.765  46.136  80.5300  0.00  0.00     0.000 OA
ATOM     67   S  A00 X   4       8.666  47.012  80.7890  0.00  0.00     0.000 S
ATOM     68   O  A00 X   4       7.973  46.785  82.0240  0.00  0.00     0.000 OA
ATOM     69   O  A00 X   4       7.810  47.356  79.6890  0.00  0.00     0.000 OA
ENDBRANCH 59 66
BRANCH 62 70
ATOM     70   C  A00 X   4      10.039  52.568  82.5440  0.00  0.00     0.000 C
ATOM     71   O  A00 X   4       9.772  56.015  81.4680  0.00  0.00     0.000 OA
ATOM     72   O  A00 X   4      10.647  55.089  83.4480  0.00  0.00     0.000 OA
ATOM     73   O  A00 X   4       9.897  53.682  81.6480  0.00  0.00     0.000 O
ATOM     74   O  A00 X   4      11.932  54.945  81.3830  0.00  0.00     0.000 OA
ATOM     75   S  A00 X   4      10.648  55.011  82.0040  0.00  0.00     0.000 S
ENDBRANCH 62 70
ENDBRANCH 57 61
ENDBRANCH 41 57
ENDBRANCH 40 44
ENDBRANCH 20 40
ENDBRANCH 19 23
ENDBRANCH 1 19
TORSDOF 14
ENDMDL
MODEL 79
REMARK VINA RESULT:      -4.8     38.765     43.058
ROOT
ATOM      1  C1  A00 X   1      28.295  48.013  45.7030  0.00  0.00     0.000 C
ATOM      2  C2  A00 X   1      29.330  46.877  45.9190  0.00  0.00     0.000 C
ATOM      3  C3  A00 X   1      30.691  47.035  45.1640  0.00  0.00     0.000 C
ATOM      4  C4  A00 X   1      30.707  48.088  44.0270  0.00  0.00     0.000 C
ATOM      5  C5  A00 X   1      29.305  48.380  43.4910  0.00  0.00     0.000 C
ATOM      6  O5  A00 X   1      28.588  48.929  44.6190  0.00  0.00     0.000 O
ATOM      7   O  A00 X   1      31.030  45.786  44.5650  0.00  0.00     0.000 O
ATOM      9  HD  A00 X   1      31.222  46.406  43.9910  0.00  0.00     0.000 HD
ATOM      9   O  A00 X   1      31.324  49.304  44.4490  0.00  0.00     0.000 O
ATOM     11  HD  A00 X   1      31.516  49.923  43.8750  0.00  0.00     0.000 HD
ENDROOT
BRANCH 2 11
ATOM     11   O  A00 X   1      29.586  46.780  47.3330  0.00  0.00     0.000 O
ATOM     12   O  A00 X   1      30.555  44.815  48.3160  0.00  0.00     0.000 OA
ATOM     13   O  A00 X   1      28.369  44.663  47.2610  0.00  0.00     0.000 OA
ATOM     14   O  A00 X   1      28.650  45.890  49.2790  0.00  0.00     0.000 OA
ATOM     15   S  A00 X   1      29.276  45.430  48.0690  0.00  0.00     0.000 S
ENDBRANCH 2 11
BRANCH 5 16
ATOM     16   C  A00 X   1      28.600  47.187  42.8380  0.00  0.00     0.000 C
ATOM     17   O  A00 X   1      29.262  46.216  42.5330  0.00  0.00     0.000 OA
ATOM     18   O  A00 X   1      27.404  47.174  42.6230  0.00  0.00     0.000 OA
ENDBRANCH 5 16
BRANCH 1 19
ATOM     19  O4  A00 X   2      26.933  47.525  45.6280  0.00  0.00     0.000 O
BRANCH 19 23
ATOM     20  C1  A00 X   2      25.196  51.147  47.1210  0.00  0.00     0.000 C
ATOM     21  C2  A00 X   2      25.507  50.028  48.1450  0.00  0.00     0.000 C
ATOM     22  C3  A00 X   2      26.497  49.003  47.5550  0.00  0.00     0.000 C
ATOM     23  C4  A00 X   2      25.974  48.455  46.2080  0.00  0.00     0.000 C
ATOM     24  C5  A00 X   2      25.684  49.668  45.2830  0.00  0.00     0.000 C
ATOM     25  O5  A00 X   2      24.688  50.512  45.9170  0.00  0.00     0.000 O
ATOM     26   O  A00 X   2      26.807  48.027  48.5640  0.00  0.00     0.000 O
ATOM     28  HD  A00 X   2      25.974  47.879  48.7490  0.00  0.00     0.000 HD
BRANCH 21 30
ATOM     28   N  A00 X   2      24.334  50.478  48.9010  0.00  0.00     0.000 N
ATOM     30  HD  A00 X   2      24.784  49.955  49.4240  0.00  0.00     0.000 HD
ATOM     30   O  A00 X   2      24.711  50.033  51.1630  0.00  0.00     0.000 OA
ATOM     31   S  A00 X   2      23.841  49.607  50.1250  0.00  0.00     0.000 S
ATOM     32   O  A00 X   2      22.473  49.994  50.2860  0.00  0.00     0.000 OA
ATOM     33   O  A00 X   2      23.926  48.233  49.7290  0.00  0.00     0.000 OA
ENDBRANCH 21 30
BRANCH 24 34
ATOM     34   C  A00 X   2      25.366  49.386  43.7950  0.00  0.00     0.000 C
ATOM     35   O  A00 X   2      22.600  47.311  42.6560  0.00  0.00     0.000 OA
ATOM     36   O  A00 X   2      24.461  48.273  43.6560  0.00  0.00     0.000 O
ATOM     37   O  A00 X   2      22.348  49.186  44.0760  0.00  0.00     0.000 OA
ATOM     38   S  A00 X   2      23.079  48.613  42.9870  0.00  0.00     0.000 S
ATOM     39   O  A00 X   2      23.368  49.456  41.8660  0.00  0.00     0.000 OA
ENDBRANCH 24 34
BRANCH 20 40
ATOM     40  O4  A00 X   3      26.454  51.775  46.8390  0.00  0.00     0.000 O
BRANCH 40 44
ATOM     41  C1  A00 X   3      28.841  53.256  44.5510  0.00  0.00     0.000 C
ATOM     42  C2  A00 X   3      29.042  53.138  46.0780  0.00  0.00     0.000 C
ATOM     43  C3  A00 X   3      27.813  53.692  46.8440  0.00  0.00     0.000 C
ATOM     44  C4  A00 X   3      26.473  53.142  46.3730  0.00  0.00     0.000 C
ATOM     45  C5  A00 X   3      26.344  53.301  44.8320  0.00  0.00     0.000 C
ATOM     46  O5  A00 X   3      27.529  52.775  44.1510  0.00  0.00     0.000 O
ATOM     47   O  A00 X   3      27.923  53.713  48.2660  0.00  0.00     0.000 O
ATOM     49  HD  A00 X   3      27.092  53.475  48.2210  0.00  0.00     0.000 HD
BRANCH 42 49
ATOM     49   O  A00 X   3      29.259  51.740  46.3690  0.00  0.00     0.000 O
ATOM     50   O  A00 X   3      29.557  50.405  48.3330  0.00  0.00     0.000 OA
ATOM     51   O  A00 X   3      30.637  52.504  48.2060  0.00  0.00     0.000 OA
ATOM     52   O  A00 X   3      31.362  50.774  46.7680  0.00  0.00     0.000 OA
ATOM     53   S  A00 X   3      30.259  51.315  47.4840  0.00  0.00     0.000 S
ENDBRANCH 42 49
BRANCH 45 54
ATOM     54   C  A00 X   3      26.012  54.745  44.4360  0.00  0.00     0.000 C
ATOM     55   O  A00 X   3      25.512  54.992  43.3580  0.00  0.00     0.000 OA
ATOM     56   O  A00 X   3      26.245  55.671  45.1980  0.00  0.00     0.000 OA
ENDBRANCH 45 54
BRANCH 41 57
ATOM     57  O4  A00 X   4      29.150  54.585  44.0740  0.00  0.00     0.000 O
BRANCH 57 61
ATOM     58  C1  A00 X   4      30.369  56.134  40.2330  0.00  0.00     0.000 C
ATOM     59  C2  A00 X   4      28.866  55.845  40.4730  0.00  0.00     0.000 C
ATOM     60  C3  A00 X   4      28.508  55.647  41.9590  0.00  0.00     0.000 C
ATOM     61  C4  A00 X   4      29.480  54.672  42.6580  0.00  0.00     0.000 C
ATOM     62  C5  A00 X   4      30.899  55.265  42.4740  0.00  0.00     0.000 C
ATOM     63  O5  A00 X   4      31.219  55.306  41.0600  0.00  0.00     0.000 O
BRANCH 59 66
ATOM     64   N  A00 X   4      28.140  54.708  39.8790  0.00  0.00     0.000 N
ATOM     66  HD  A00 X   4      28.562  53.955  39.8100  0.00  0.00     0.000 HD
ATOM     66   O  A00 X   4      28.270  55.857  37.7670  0.00  0.00     0.000 OA
ATOM     67   S  A00 X   4      27.443  54.915  38.4540  0.00  0.00     0.000 S
ATOM     68   O  A00 X   4      27.484  53.574  37.9480  0.00  0.00     0.000 OA
ATOM     69   O  A00 X   4      26.139  55.347  38.8700  0.00  0.00     0.000 OA
ENDBRANCH 59 66
BRANCH 62 70
ATOM     70   C  A00 X   4      32.012  54.479  43.2070  0.00  0.00     0.000 C
ATOM     71   O  A00 X   4      33.752  51.491  42.1350  0.00  0.00     0.000 OA
ATOM     72   O  A00 X   4      32.710  52.008  44.1820  0.00  0.00     0.000 OA
ATOM     73   O  A00 X   4      32.581  53.512  42.3100  0.00  0.00     0.000 O
ATOM     74   O  A00 X   4      31.343  51.446  42.2450  0.00  0.00     0.000 OA
ATOM     75   S  A00 X   4      32.558  52.006  42.7440  0.00  0.00     0.000 S
ENDBRANCH 62 70
ENDBRANCH 57 61
ENDBRANCH 41 57
ENDBRANCH 40 44
ENDBRANCH 20 40
ENDBRANCH 19 23
ENDBRANCH 1 19
TORSDOF 14
ENDMDL
MODEL 80
REMARK VINA RESULT:      -4.8     26.250     31.306
ROOT
ATOM      1  C1  A00 X   1      31.113  47.290  60.5410  0.00  0.00     0.000 C
ATOM      2  C2  A00 X   1      32.420  47.762  59.8500  0.00  0.00     0.000 C
ATOM      3  C3  A00 X   1      33.585  46.720  59.7990  0.00  0.00     0.000 C
ATOM      4  C4  A00 X   1      33.435  45.503  60.7470  0.00  0.00     0.000 C
ATOM      5  C5  A00 X   1      32.497  45.794  61.9170  0.00  0.00     0.000 C
ATOM      6  O5  A00 X   1      31.216  46.062  61.3030  0.00  0.00     0.000 O
ATOM      7   O  A00 X   1      34.798  47.373  60.1670  0.00  0.00     0.000 O
ATOM      9  HD  A00 X   1      34.800  46.596  60.5500  0.00  0.00     0.000 HD
ATOM      9   O  A00 X   1      32.983  44.346  60.0430  0.00  0.00     0.000 O
ATOM     11  HD  A00 X   1      32.985  43.569  60.4250  0.00  0.00     0.000 HD
ENDROOT
BRANCH 2 11
ATOM     11   O  A00 X   1      32.086  48.160  58.5060  0.00  0.00     0.000 O
ATOM     12   O  A00 X   1      33.775  48.683  56.8800  0.00  0.00     0.000 OA
ATOM     13   O  A00 X   1      33.558  50.077  58.8620  0.00  0.00     0.000 OA
ATOM     14   O  A00 X   1      31.861  50.079  57.1960  0.00  0.00     0.000 OA
ATOM     15   S  A00 X   1      32.901  49.318  57.8340  0.00  0.00     0.000 S
ENDBRANCH 2 11
BRANCH 5 16
ATOM     16   C  A00 X   1      32.966  46.904  62.8640  0.00  0.00     0.000 C
ATOM     17   O  A00 X   1      34.133  47.236  62.8350  0.00  0.00     0.000 OA
ATOM     18   O  A00 X   1      32.213  47.466  63.6340  0.00  0.00     0.000 OA
ENDBRANCH 5 16
BRANCH 1 19
ATOM     19  O4  A00 X   2      30.475  48.338  61.3110  0.00  0.00     0.000 O
BRANCH 19 23
ATOM     20  C1  A00 X   2      26.529  47.321  59.9850  0.00  0.00     0.000 C
ATOM     21  C2  A00 X   2      27.234  48.508  59.2860  0.00  0.00     0.000 C
ATOM     22  C3  A00 X   2      28.753  48.477  59.5490  0.00  0.00     0.000 C
ATOM     23  C4  A00 X   2      29.041  48.418  61.0660  0.00  0.00     0.000 C
ATOM     24  C5  A00 X   2      28.268  47.203  61.6490  0.00  0.00     0.000 C
ATOM     25  O5  A00 X   2      26.850  47.389  61.4000  0.00  0.00     0.000 O
ATOM     26   O  A00 X   2      29.369  49.556  58.8250  0.00  0.00     0.000 O
ATOM     28  HD  A00 X   2      28.813  50.146  59.1310  0.00  0.00     0.000 HD
BRANCH 21 30
ATOM     28   N  A00 X   2      27.754  49.395  58.2400  0.00  0.00     0.000 N
ATOM     30  HD  A00 X   2      26.909  49.289  58.0810  0.00  0.00     0.000 HD
ATOM     30   O  A00 X   2      25.940  50.438  57.2020  0.00  0.00     0.000 OA
ATOM     31   S  A00 X   2      26.962  49.507  56.8770  0.00  0.00     0.000 S
ATOM     32   O  A00 X   2      27.943  49.985  55.9530  0.00  0.00     0.000 OA
ATOM     33   O  A00 X   2      26.545  48.184  56.5200  0.00  0.00     0.000 OA
ENDBRANCH 21 30
BRANCH 24 34
ATOM     34   C  A00 X   2      28.568  46.783  63.1070  0.00  0.00     0.000 C
ATOM     35   O  A00 X   2      26.011  46.245  65.6430  0.00  0.00     0.000 OA
ATOM     36   O  A00 X   2      27.422  46.990  63.9570  0.00  0.00     0.000 O
ATOM     37   O  A00 X   2      26.058  45.132  63.5570  0.00  0.00     0.000 OA
ATOM     38   S  A00 X   2      26.836  45.690  64.6200  0.00  0.00     0.000 S
ATOM     39   O  A00 X   2      27.958  44.934  65.0890  0.00  0.00     0.000 OA
ENDBRANCH 24 34
BRANCH 20 40
ATOM     40  O4  A00 X   3      27.109  46.137  59.4180  0.00  0.00     0.000 O
BRANCH 40 44
ATOM     41  C1  A00 X   3      28.326  42.740  59.0920  0.00  0.00     0.000 C
ATOM     42  C2  A00 X   3      28.105  43.713  57.9130  0.00  0.00     0.000 C
ATOM     43  C3  A00 X   3      26.687  44.338  57.9670  0.00  0.00     0.000 C
ATOM     44  C4  A00 X   3      26.310  44.938  59.3160  0.00  0.00     0.000 C
ATOM     45  C5  A00 X   3      26.555  43.901  60.4470  0.00  0.00     0.000 C
ATOM     46  O5  A00 X   3      27.900  43.330  60.3520  0.00  0.00     0.000 O
ATOM     47   O  A00 X   3      26.339  45.189  56.8770  0.00  0.00     0.000 O
ATOM     49  HD  A00 X   3      25.964  45.652  57.5050  0.00  0.00     0.000 HD
BRANCH 42 49
ATOM     49   O  A00 X   3      29.131  44.725  58.0020  0.00  0.00     0.000 O
ATOM     50   O  A00 X   3      30.262  46.184  56.4770  0.00  0.00     0.000 OA
ATOM     51   O  A00 X   3      29.858  43.946  55.8290  0.00  0.00     0.000 OA
ATOM     52   O  A00 X   3      31.409  44.354  57.5650  0.00  0.00     0.000 OA
ATOM     53   S  A00 X   3      30.237  44.822  56.9100  0.00  0.00     0.000 S
ENDBRANCH 42 49
BRANCH 45 54
ATOM     54   C  A00 X   3      25.451  42.838  60.4910  0.00  0.00     0.000 C
ATOM     55   O  A00 X   3      24.719  42.666  59.5380  0.00  0.00     0.000 OA
ATOM     56   O  A00 X   3      25.287  42.148  61.4850  0.00  0.00     0.000 OA
ENDBRANCH 45 54
BRANCH 41 57
ATOM     57  O4  A00 X   4      27.750  41.442  58.8270  0.00  0.00     0.000 O
BRANCH 57 61
ATOM     58  C1  A00 X   4      28.777  37.462  60.1500  0.00  0.00     0.000 C
ATOM     59  C2  A00 X   4      28.454  38.538  61.2170  0.00  0.00     0.000 C
ATOM     60  C3  A00 X   4      27.763  39.789  60.6390  0.00  0.00     0.000 C
ATOM     61  C4  A00 X   4      28.487  40.314  59.3810  0.00  0.00     0.000 C
ATOM     62  C5  A00 X   4      28.511  39.141  58.3690  0.00  0.00     0.000 C
ATOM     63  O5  A00 X   4      29.282  38.046  58.9270  0.00  0.00     0.000 O
BRANCH 59 66
ATOM     64   N  A00 X   4      29.294  39.228  62.2130  0.00  0.00     0.000 N
ATOM     66  HD  A00 X   4      30.061  39.530  61.9480  0.00  0.00     0.000 HD
ATOM     66   O  A00 X   4      29.632  37.087  63.2630  0.00  0.00     0.000 OA
ATOM     67   S  A00 X   4      29.604  38.478  63.5910  0.00  0.00     0.000 S
ATOM     68   O  A00 X   4      30.872  39.060  63.9220  0.00  0.00     0.000 OA
ATOM     69   O  A00 X   4      28.511  38.956  64.3910  0.00  0.00     0.000 OA
ENDBRANCH 59 66
BRANCH 62 70
ATOM     70   C  A00 X   4      29.106  39.508  56.9890  0.00  0.00     0.000 C
ATOM     71   O  A00 X   4      29.274  37.488  53.9900  0.00  0.00     0.000 OA
ATOM     72   O  A00 X   4      30.935  38.745  55.0880  0.00  0.00     0.000 OA
ATOM     73   O  A00 X   4      28.735  38.505  56.0300  0.00  0.00     0.000 O
ATOM     74   O  A00 X   4      30.224  36.611  56.0250  0.00  0.00     0.000 OA
ATOM     75   S  A00 X   4      29.884  37.767  55.2590  0.00  0.00     0.000 S
ENDBRANCH 62 70
ENDBRANCH 57 61
ENDBRANCH 41 57
ENDBRANCH 40 44
ENDBRANCH 20 40
ENDBRANCH 19 23
ENDBRANCH 1 19
TORSDOF 14
ENDMDL
MODEL 81
REMARK VINA RESULT:      -4.7     15.002     19.767
ROOT
ATOM      1  C1  A00 X   1       6.511  53.589  71.1640  0.00  0.00     0.000 C
ATOM      2  C2  A00 X   1       5.651  52.320  71.4080  0.00  0.00     0.000 C
ATOM      3  C3  A00 X   1       6.414  50.955  71.3710  0.00  0.00     0.000 C
ATOM      4  C4  A00 X   1       7.831  50.999  70.7420  0.00  0.00     0.000 C
ATOM      5  C5  A00 X   1       8.010  52.193  69.8050  0.00  0.00     0.000 C
ATOM      6  O5  A00 X   1       7.845  53.352  70.6520  0.00  0.00     0.000 O
ATOM      7   O  A00 X   1       5.656  50.028  70.5970  0.00  0.00     0.000 O
ATOM      9  HD  A00 X   1       6.488  49.919  70.3830  0.00  0.00     0.000 HD
ATOM      9   O  A00 X   1       8.846  51.016  71.7450  0.00  0.00     0.000 O
ATOM     11  HD  A00 X   1       9.678  50.907  71.5310  0.00  0.00     0.000 HD
ENDROOT
BRANCH 2 11
ATOM     11   O  A00 X   1       5.010  52.464  72.6900  0.00  0.00     0.000 O
ATOM     12   O  A00 X   1       6.228  53.119  74.6530  0.00  0.00     0.000 OA
ATOM     13   O  A00 X   1       6.763  51.008  73.5690  0.00  0.00     0.000 OA
ATOM     14   O  A00 X   1       4.682  51.296  74.6850  0.00  0.00     0.000 OA
ATOM     15   S  A00 X   1       5.749  51.944  73.9700  0.00  0.00     0.000 S
ENDBRANCH 2 11
BRANCH 5 16
ATOM     16   C  A00 X   1       7.094  52.195  68.5760  0.00  0.00     0.000 C
ATOM     17   O  A00 X   1       6.509  51.173  68.2860  0.00  0.00     0.000 OA
ATOM     18   O  A00 X   1       6.929  53.183  67.8890  0.00  0.00     0.000 OA
ENDBRANCH 5 16
BRANCH 1 19
ATOM     19  O4  A00 X   2       5.817  54.596  70.3870  0.00  0.00     0.000 O
BRANCH 19 23
ATOM     20  C1  A00 X   2       8.405  57.905  71.2350  0.00  0.00     0.000 C
ATOM     21  C2  A00 X   2       7.484  57.407  72.3760  0.00  0.00     0.000 C
ATOM     22  C3  A00 X   2       6.955  55.990  72.0760  0.00  0.00     0.000 C
ATOM     23  C4  A00 X   2       6.271  55.946  70.6900  0.00  0.00     0.000 C
ATOM     24  C5  A00 X   2       7.285  56.484  69.6440  0.00  0.00     0.000 C
ATOM     25  O5  A00 X   2       7.646  57.845  69.9990  0.00  0.00     0.000 O
ATOM     26   O  A00 X   2       6.164  55.546  73.1910  0.00  0.00     0.000 O
ATOM     28  HD  A00 X   2       5.691  56.272  73.2090  0.00  0.00     0.000 HD
BRANCH 21 30
ATOM     28   N  A00 X   2       7.443  56.931  73.7620  0.00  0.00     0.000 N
ATOM     30  HD  A00 X   2       7.562  57.789  73.7950  0.00  0.00     0.000 HD
ATOM     30   O  A00 X   2       7.106  58.776  75.1550  0.00  0.00     0.000 OA
ATOM     31   S  A00 X   2       8.115  57.814  74.8880  0.00  0.00     0.000 S
ATOM     32   O  A00 X   2       8.359  56.885  75.9470  0.00  0.00     0.000 OA
ATOM     33   O  A00 X   2       9.354  58.303  74.3590  0.00  0.00     0.000 OA
ENDBRANCH 21 30
BRANCH 24 34
ATOM     34   C  A00 X   2       6.931  56.332  68.1460  0.00  0.00     0.000 C
ATOM     35   O  A00 X   2       3.763  57.370  66.6820  0.00  0.00     0.000 OA
ATOM     36   O  A00 X   2       5.515  56.491  67.9240  0.00  0.00     0.000 O
ATOM     37   O  A00 X   2       5.185  58.806  67.9090  0.00  0.00     0.000 OA
ATOM     38   S  A00 X   2       5.112  57.700  67.0040  0.00  0.00     0.000 S
ATOM     39   O  A00 X   2       6.021  57.687  65.8970  0.00  0.00     0.000 OA
ENDBRANCH 24 34
BRANCH 20 40
ATOM     40  O4  A00 X   3       9.492  56.970  71.1780  0.00  0.00     0.000 O
BRANCH 40 44
ATOM     41  C1  A00 X   3      12.051  54.808  69.7990  0.00  0.00     0.000 C
ATOM     42  C2  A00 X   3      11.930  55.189  71.2900  0.00  0.00     0.000 C
ATOM     43  C3  A00 X   3      11.811  56.725  71.4630  0.00  0.00     0.000 C
ATOM     44  C4  A00 X   3      10.746  57.379  70.5920  0.00  0.00     0.000 C
ATOM     45  C5  A00 X   3      10.936  56.953  69.1090  0.00  0.00     0.000 C
ATOM     46  O5  A00 X   3      11.055  55.498  68.9940  0.00  0.00     0.000 O
ATOM     47   O  A00 X   3      11.780  57.200  72.8080  0.00  0.00     0.000 O
ATOM     49  HD  A00 X   3      11.194  57.748  72.4820  0.00  0.00     0.000 HD
BRANCH 42 49
ATOM     49   O  A00 X   3      10.767  54.507  71.8080  0.00  0.00     0.000 O
ATOM     50   O  A00 X   3       9.571  54.453  73.8810  0.00  0.00     0.000 OA
ATOM     51   O  A00 X   3      11.935  54.470  73.9280  0.00  0.00     0.000 OA
ATOM     52   O  A00 X   3      10.838  52.547  73.1000  0.00  0.00     0.000 OA
ATOM     53   S  A00 X   3      10.762  53.958  73.2650  0.00  0.00     0.000 S
ENDBRANCH 42 49
BRANCH 45 54
ATOM     54   C  A00 X   3      12.095  57.707  68.4460  0.00  0.00     0.000 C
ATOM     55   O  A00 X   3      12.735  58.530  69.0690  0.00  0.00     0.000 OA
ATOM     56   O  A00 X   3      12.395  57.494  67.2810  0.00  0.00     0.000 OA
ENDBRANCH 45 54
BRANCH 41 57
ATOM     57  O4  A00 X   4      13.405  54.962  69.3160  0.00  0.00     0.000 O
BRANCH 57 61
ATOM     58  C1  A00 X   4      15.776  52.768  66.4530  0.00  0.00     0.000 C
ATOM     59  C2  A00 X   4      14.842  53.890  65.9370  0.00  0.00     0.000 C
ATOM     60  C3  A00 X   4      14.332  54.827  67.0510  0.00  0.00     0.000 C
ATOM     61  C4  A00 X   4      13.794  54.036  68.2630  0.00  0.00     0.000 C
ATOM     62  C5  A00 X   4      14.958  53.134  68.7450  0.00  0.00     0.000 C
ATOM     63  O5  A00 X   4      15.302  52.196  67.6940  0.00  0.00     0.000 O
BRANCH 59 66
ATOM     64   N  A00 X   4      13.676  54.088  65.0560  0.00  0.00     0.000 N
ATOM     66  HD  A00 X   4      12.964  53.626  65.2260  0.00  0.00     0.000 HD
ATOM     66   O  A00 X   4      14.921  52.972  63.3240  0.00  0.00     0.000 OA
ATOM     67   S  A00 X   4      13.887  53.946  63.4770  0.00  0.00     0.000 S
ATOM     68   O  A00 X   4      12.576  53.523  63.0780  0.00  0.00     0.000 OA
ATOM     69   O  A00 X   4      14.194  55.307  63.1400  0.00  0.00     0.000 OA
ENDBRANCH 59 66
BRANCH 62 70
ATOM     70   C  A00 X   4      14.646  52.336  70.0340  0.00  0.00     0.000 C
ATOM     71   O  A00 X   4      16.233  52.570  73.2790  0.00  0.00     0.000 OA
ATOM     72   O  A00 X   4      15.739  50.694  71.9450  0.00  0.00     0.000 OA
ATOM     73   O  A00 X   4      15.347  52.926  71.1400  0.00  0.00     0.000 O
ATOM     74   O  A00 X   4      17.613  52.133  71.3510  0.00  0.00     0.000 OA
ATOM     75   S  A00 X   4      16.327  52.015  71.9580  0.00  0.00     0.000 S
ENDBRANCH 62 70
ENDBRANCH 57 61
ENDBRANCH 41 57
ENDBRANCH 40 44
ENDBRANCH 20 40
ENDBRANCH 19 23
ENDBRANCH 1 19
TORSDOF 14
ENDMDL
MODEL 82
REMARK VINA RESULT:      -4.7     22.840     29.671
ROOT
ATOM      1  C1  A00 X   1       9.135  63.831  62.2490  0.00  0.00     0.000 C
ATOM      2  C2  A00 X   1       9.770  64.305  63.5830  0.00  0.00     0.000 C
ATOM      3  C3  A00 X   1       8.901  64.102  64.8680  0.00  0.00     0.000 C
ATOM      4  C4  A00 X   1       7.400  63.803  64.6190  0.00  0.00     0.000 C
ATOM      5  C5  A00 X   1       6.934  64.288  63.2470  0.00  0.00     0.000 C
ATOM      6  O5  A00 X   1       7.719  63.526  62.3020  0.00  0.00     0.000 O
ATOM      7   O  A00 X   1       8.952  65.294  65.6480  0.00  0.00     0.000 O
ATOM      9  HD  A00 X   1       8.134  65.012  65.6670  0.00  0.00     0.000 HD
ATOM      9   O  A00 X   1       7.114  62.412  64.7620  0.00  0.00     0.000 O
ATOM     11  HD  A00 X   1       6.295  62.130  64.7800  0.00  0.00     0.000 HD
ENDROOT
BRANCH 2 11
ATOM     11   O  A00 X   1      11.019  63.607  63.7470  0.00  0.00     0.000 O
ATOM     12   O  A00 X   1      12.306  63.763  65.7680  0.00  0.00     0.000 OA
ATOM     13   O  A00 X   1      11.966  65.756  64.4170  0.00  0.00     0.000 OA
ATOM     14   O  A00 X   1      13.321  63.974  63.6150  0.00  0.00     0.000 OA
ATOM     15   S  A00 X   1      12.211  64.341  64.4520  0.00  0.00     0.000 S
ENDBRANCH 2 11
BRANCH 5 16
ATOM     16   C  A00 X   1       7.018  65.803  63.0320  0.00  0.00     0.000 C
ATOM     17   O  A00 X   1       7.130  66.522  64.0030  0.00  0.00     0.000 OA
ATOM     18   O  A00 X   1       6.984  66.307  61.9270  0.00  0.00     0.000 OA
ENDBRANCH 5 16
BRANCH 1 19
ATOM     19  O4  A00 X   2       9.444  64.707  61.1380  0.00  0.00     0.000 O
BRANCH 19 23
ATOM     20  C1  A00 X   2       9.874  61.508  58.3180  0.00  0.00     0.000 C
ATOM     21  C2  A00 X   2      11.161  62.048  58.9880  0.00  0.00     0.000 C
ATOM     22  C3  A00 X   2      10.822  62.860  60.2550  0.00  0.00     0.000 C
ATOM     23  C4  A00 X   2       9.801  63.974  59.9310  0.00  0.00     0.000 C
ATOM     24  C5  A00 X   2       8.573  63.310  59.2510  0.00  0.00     0.000 C
ATOM     25  O5  A00 X   2       9.013  62.644  58.0380  0.00  0.00     0.000 O
ATOM     26   O  A00 X   2      12.049  63.280  60.8760  0.00  0.00     0.000 O
ATOM     28  HD  A00 X   2      12.371  63.601  60.1390  0.00  0.00     0.000 HD
BRANCH 21 30
ATOM     28   N  A00 X   2      11.870  61.766  57.7360  0.00  0.00     0.000 N
ATOM     30  HD  A00 X   2      12.474  61.895  58.3430  0.00  0.00     0.000 HD
ATOM     30   O  A00 X   2      14.085  61.237  58.2580  0.00  0.00     0.000 OA
ATOM     31   S  A00 X   2      13.364  62.258  57.5830  0.00  0.00     0.000 S
ATOM     32   O  A00 X   2      13.563  62.302  56.1670  0.00  0.00     0.000 OA
ATOM     33   O  A00 X   2      13.434  63.577  58.1370  0.00  0.00     0.000 OA
ENDBRANCH 21 30
BRANCH 24 34
ATOM     34   C  A00 X   2       7.309  64.174  59.0320  0.00  0.00     0.000 C
ATOM     35   O  A00 X   2       3.952  62.818  58.6430  0.00  0.00     0.000 OA
ATOM     36   O  A00 X   2       6.204  63.375  58.5640  0.00  0.00     0.000 O
ATOM     37   O  A00 X   2       5.351  62.371  60.4970  0.00  0.00     0.000 OA
ATOM     38   S  A00 X   2       4.954  63.335  59.5170  0.00  0.00     0.000 S
ATOM     39   O  A00 X   2       4.738  64.680  59.9590  0.00  0.00     0.000 OA
ENDBRANCH 24 34
BRANCH 20 40
ATOM     40  O4  A00 X   3       9.251  60.665  59.2990  0.00  0.00     0.000 O
BRANCH 40 44
ATOM     41  C1  A00 X   3       7.861  58.016  61.3410  0.00  0.00     0.000 C
ATOM     42  C2  A00 X   3       9.240  57.962  60.6490  0.00  0.00     0.000 C
ATOM     43  C3  A00 X   3       9.122  58.324  59.1470  0.00  0.00     0.000 C
ATOM     44  C4  A00 X   3       8.362  59.614  58.8640  0.00  0.00     0.000 C
ATOM     45  C5  A00 X   3       6.986  59.590  59.5870  0.00  0.00     0.000 C
ATOM     46  O5  A00 X   3       7.144  59.234  60.9990  0.00  0.00     0.000 O
ATOM     47   O  A00 X   3      10.324  58.223  58.3850  0.00  0.00     0.000 O
ATOM     49  HD  A00 X   3      10.016  58.942  58.0140  0.00  0.00     0.000 HD
BRANCH 42 49
ATOM     49   O  A00 X   3      10.101  58.887  61.3500  0.00  0.00     0.000 O
ATOM     50   O  A00 X   3      12.380  59.599  61.1820  0.00  0.00     0.000 OA
ATOM     51   O  A00 X   3      11.880  57.303  60.9210  0.00  0.00     0.000 OA
ATOM     52   O  A00 X   3      11.599  58.282  63.0540  0.00  0.00     0.000 OA
ATOM     53   S  A00 X   3      11.581  58.510  61.6500  0.00  0.00     0.000 S
ENDBRANCH 42 49
BRANCH 45 54
ATOM     54   C  A00 X   3       5.973  58.705  58.8520  0.00  0.00     0.000 C
ATOM     55   O  A00 X   3       4.806  58.691  59.1870  0.00  0.00     0.000 OA
ATOM     56   O  A00 X   3       6.322  57.999  57.9180  0.00  0.00     0.000 OA
ENDBRANCH 45 54
BRANCH 41 57
ATOM     57  O4  A00 X   4       7.103  56.806  61.1150  0.00  0.00     0.000 O
BRANCH 57 61
ATOM     58  C1  A00 X   4       4.149  54.764  63.5110  0.00  0.00     0.000 C
ATOM     59  C2  A00 X   4       3.665  55.682  62.3610  0.00  0.00     0.000 C
ATOM     60  C3  A00 X   4       4.780  56.062  61.3670  0.00  0.00     0.000 C
ATOM     61  C4  A00 X   4       6.056  56.541  62.0920  0.00  0.00     0.000 C
ATOM     62  C5  A00 X   4       6.482  55.387  63.0330  0.00  0.00     0.000 C
ATOM     63  O5  A00 X   4       5.441  55.167  64.0190  0.00  0.00     0.000 O
BRANCH 59 66
ATOM     64   N  A00 X   4       2.515  55.584  61.4430  0.00  0.00     0.000 N
ATOM     66  HD  A00 X   4       2.377  56.247  60.9040  0.00  0.00     0.000 HD
ATOM     66   O  A00 X   4       1.087  55.845  63.3640  0.00  0.00     0.000 OA
ATOM     67   S  A00 X   4       1.078  55.254  62.0620  0.00  0.00     0.000 S
ATOM     68   O  A00 X   4       0.229  55.895  61.1000  0.00  0.00     0.000 OA
ATOM     69   O  A00 X   4       1.087  53.822  61.9760  0.00  0.00     0.000 OA
ENDBRANCH 59 66
BRANCH 62 70
ATOM     70   C  A00 X   4       7.817  55.636  63.7750  0.00  0.00     0.000 C
ATOM     71   O  A00 X   4       8.840  54.465  67.0440  0.00  0.00     0.000 OA
ATOM     72   O  A00 X   4       8.918  56.617  66.0920  0.00  0.00     0.000 OA
ATOM     73   O  A00 X   4       7.885  54.782  64.9290  0.00  0.00     0.000 O
ATOM     74   O  A00 X   4       6.787  55.717  66.8590  0.00  0.00     0.000 OA
ATOM     75   S  A00 X   4       8.087  55.457  66.3300  0.00  0.00     0.000 S
ENDBRANCH 62 70
ENDBRANCH 57 61
ENDBRANCH 41 57
ENDBRANCH 40 44
ENDBRANCH 20 40
ENDBRANCH 19 23
ENDBRANCH 1 19
TORSDOF 14
ENDMDL
MODEL 83
REMARK VINA RESULT:      -4.7     31.112     35.421
ROOT
ATOM      1  C1  A00 X   1      29.485  29.083  53.5050  0.00  0.00     0.000 C
ATOM      2  C2  A00 X   1      29.639  29.071  51.9610  0.00  0.00     0.000 C
ATOM      3  C3  A00 X   1      29.706  27.661  51.2870  0.00  0.00     0.000 C
ATOM      4  C4  A00 X   1      29.981  26.474  52.2470  0.00  0.00     0.000 C
ATOM      5  C5  A00 X   1      30.661  26.923  53.5400  0.00  0.00     0.000 C
ATOM      6  O5  A00 X   1      29.709  27.813  54.1660  0.00  0.00     0.000 O
ATOM      7   O  A00 X   1      30.764  27.660  50.3310  0.00  0.00     0.000 O
ATOM      9  HD  A00 X   1      30.796  26.902  50.7480  0.00  0.00     0.000 HD
ATOM      9   O  A00 X   1      28.781  25.764  52.5550  0.00  0.00     0.000 O
ATOM     11  HD  A00 X   1      28.813  25.005  52.9710  0.00  0.00     0.000 HD
ENDROOT
BRANCH 2 11
ATOM     11   O  A00 X   1      28.530  29.804  51.4040  0.00  0.00     0.000 O
ATOM     12   O  A00 X   1      28.064  29.807  49.0480  0.00  0.00     0.000 OA
ATOM     13   O  A00 X   1      30.143  30.781  49.8510  0.00  0.00     0.000 OA
ATOM     14   O  A00 X   1      28.060  31.824  50.3300  0.00  0.00     0.000 OA
ATOM     15   S  A00 X   1      28.735  30.583  50.0590  0.00  0.00     0.000 S
ENDBRANCH 2 11
BRANCH 5 16
ATOM     16   C  A00 X   1      32.051  27.542  53.3600  0.00  0.00     0.000 C
ATOM     17   O  A00 X   1      32.557  28.118  54.3010  0.00  0.00     0.000 OA
ATOM     18   O  A00 X   1      32.666  27.470  52.3140  0.00  0.00     0.000 OA
ENDBRANCH 5 16
BRANCH 1 19
ATOM     19  O4  A00 X   2      30.239  30.147  54.1360  0.00  0.00     0.000 O
BRANCH 19 23
ATOM     20  C1  A00 X   2      27.006  31.323  56.6910  0.00  0.00     0.000 C
ATOM     21  C2  A00 X   2      27.248  32.162  55.4130  0.00  0.00     0.000 C
ATOM     22  C3  A00 X   2      28.124  31.389  54.4060  0.00  0.00     0.000 C
ATOM     23  C4  A00 X   2      29.436  30.920  55.0740  0.00  0.00     0.000 C
ATOM     24  C5  A00 X   2      29.059  30.111  56.3450  0.00  0.00     0.000 C
ATOM     25  O5  A00 X   2      28.304  30.969  57.2380  0.00  0.00     0.000 O
ATOM     26   O  A00 X   2      28.262  32.179  53.2130  0.00  0.00     0.000 O
ATOM     28  HD  A00 X   2      28.498  32.889  53.6500  0.00  0.00     0.000 HD
BRANCH 21 30
ATOM     28   N  A00 X   2      26.867  33.371  56.1510  0.00  0.00     0.000 N
ATOM     30  HD  A00 X   2      26.817  33.565  55.3090  0.00  0.00     0.000 HD
ATOM     30   O  A00 X   2      25.798  34.823  54.6660  0.00  0.00     0.000 OA
ATOM     31   S  A00 X   2      26.994  34.771  55.4290  0.00  0.00     0.000 S
ATOM     32   O  A00 X   2      27.061  35.705  56.5110  0.00  0.00     0.000 OA
ATOM     33   O  A00 X   2      28.228  34.763  54.7020  0.00  0.00     0.000 OA
ENDBRANCH 21 30
BRANCH 24 34
ATOM     34   C  A00 X   2      30.183  29.335  57.0710  0.00  0.00     0.000 C
ATOM     35   O  A00 X   2      33.229  30.871  58.3450  0.00  0.00     0.000 OA
ATOM     36   O  A00 X   2      31.395  30.113  57.1410  0.00  0.00     0.000 O
ATOM     37   O  A00 X   2      31.048  31.568  58.9390  0.00  0.00     0.000 OA
ATOM     38   S  A00 X   2      31.886  30.460  58.5940  0.00  0.00     0.000 S
ATOM     39   O  A00 X   2      31.751  29.261  59.3640  0.00  0.00     0.000 OA
ENDBRANCH 24 34
BRANCH 20 40
ATOM     40  O4  A00 X   3      26.330  30.135  56.2530  0.00  0.00     0.000 O
BRANCH 40 44
ATOM     41  C1  A00 X   3      24.002  27.454  55.5350  0.00  0.00     0.000 C
ATOM     42  C2  A00 X   3      23.630  28.951  55.5900  0.00  0.00     0.000 C
ATOM     43  C3  A00 X   3      24.137  29.602  56.9030  0.00  0.00     0.000 C
ATOM     44  C4  A00 X   3      25.604  29.339  57.2140  0.00  0.00     0.000 C
ATOM     45  C5  A00 X   3      25.899  27.814  57.1450  0.00  0.00     0.000 C
ATOM     46  O5  A00 X   3      25.395  27.241  55.8950  0.00  0.00     0.000 O
ATOM     47   O  A00 X   3      23.774  30.967  57.1020  0.00  0.00     0.000 O
ATOM     49  HD  A00 X   3      24.578  31.017  57.4180  0.00  0.00     0.000 HD
BRANCH 42 49
ATOM     49   O  A00 X   3      24.221  29.576  54.4290  0.00  0.00     0.000 O
ATOM     50   O  A00 X   3      24.353  31.792  53.5340  0.00  0.00     0.000 OA
ATOM     51   O  A00 X   3      22.304  31.053  54.4510  0.00  0.00     0.000 OA
ATOM     52   O  A00 X   3      23.063  30.062  52.4450  0.00  0.00     0.000 OA
ATOM     53   S  A00 X   3      23.452  30.690  53.6600  0.00  0.00     0.000 S
ENDBRANCH 42 49
BRANCH 45 54
ATOM     54   C  A00 X   3      25.392  27.081  58.3930  0.00  0.00     0.000 C
ATOM     55   O  A00 X   3      25.633  25.903  58.5590  0.00  0.00     0.000 OA
ATOM     56   O  A00 X   3      24.736  27.668  59.2400  0.00  0.00     0.000 OA
ENDBRANCH 45 54
BRANCH 41 57
ATOM     57  O4  A00 X   4      23.071  26.645  56.2880  0.00  0.00     0.000 O
BRANCH 57 61
ATOM     58  C1  A00 X   4      21.466  22.698  55.5920  0.00  0.00     0.000 C
ATOM     59  C2  A00 X   4      22.640  22.855  56.5900  0.00  0.00     0.000 C
ATOM     60  C3  A00 X   4      22.885  24.314  57.0260  0.00  0.00     0.000 C
ATOM     61  C4  A00 X   4      22.922  25.275  55.8180  0.00  0.00     0.000 C
ATOM     62  C5  A00 X   4      21.568  25.104  55.0850  0.00  0.00     0.000 C
ATOM     63  O5  A00 X   4      21.459  23.744  54.5930  0.00  0.00     0.000 O
BRANCH 59 66
ATOM     64   N  A00 X   4      22.999  22.155  57.8360  0.00  0.00     0.000 N
ATOM     66  HD  A00 X   4      23.760  22.351  58.2000  0.00  0.00     0.000 HD
ATOM     66   O  A00 X   4      23.270  20.157  56.5180  0.00  0.00     0.000 OA
ATOM     67   S  A00 X   4      22.940  20.556  57.8510  0.00  0.00     0.000 S
ATOM     68   O  A00 X   4      23.933  20.270  58.8440  0.00  0.00     0.000 OA
ATOM     69   O  A00 X   4      21.589  20.357  58.2950  0.00  0.00     0.000 OA
ENDBRANCH 59 66
BRANCH 62 70
ATOM     70   C  A00 X   4      21.367  26.074  53.8960  0.00  0.00     0.000 C
ATOM     71   O  A00 X   4      20.155  25.345  50.5630  0.00  0.00     0.000 OA
ATOM     72   O  A00 X   4      22.050  26.545  51.2780  0.00  0.00     0.000 OA
ATOM     73   O  A00 X   4      20.638  25.404  52.8550  0.00  0.00     0.000 O
ATOM     74   O  A00 X   4      22.053  24.111  51.3950  0.00  0.00     0.000 OA
ATOM     75   S  A00 X   4      21.296  25.321  51.4340  0.00  0.00     0.000 S
ENDBRANCH 62 70
ENDBRANCH 57 61
ENDBRANCH 41 57
ENDBRANCH 40 44
ENDBRANCH 20 40
ENDBRANCH 19 23
ENDBRANCH 1 19
TORSDOF 14
ENDMDL
MODEL 84
REMARK VINA RESULT:      -4.7     38.647     43.100
ROOT
ATOM      1  C1  A00 X   1      33.130  49.981  43.1430  0.00  0.00     0.000 C
ATOM      2  C2  A00 X   1      33.650  51.250  43.8690  0.00  0.00     0.000 C
ATOM      3  C3  A00 X   1      35.203  51.428  43.9160  0.00  0.00     0.000 C
ATOM      4  C4  A00 X   1      36.031  50.164  43.5700  0.00  0.00     0.000 C
ATOM      5  C5  A00 X   1      35.234  48.877  43.7780  0.00  0.00     0.000 C
ATOM      6  O5  A00 X   1      34.131  48.974  42.8500  0.00  0.00     0.000 O
ATOM      7   O  A00 X   1      35.580  51.811  45.2360  0.00  0.00     0.000 O
ATOM      9  HD  A00 X   1      36.164  51.234  44.9610  0.00  0.00     0.000 HD
ATOM      9   O  A00 X   1      36.526  50.214  42.2320  0.00  0.00     0.000 O
ATOM     11  HD  A00 X   1      37.110  49.637  41.9560  0.00  0.00     0.000 HD
ENDROOT
BRANCH 2 11
ATOM     11   O  A00 X   1      33.066  52.396  43.2190  0.00  0.00     0.000 O
ATOM     12   O  A00 X   1      33.737  54.639  43.7540  0.00  0.00     0.000 OA
ATOM     13   O  A00 X   1      32.661  53.279  45.4600  0.00  0.00     0.000 OA
ATOM     14   O  A00 X   1      31.434  54.029  43.5660  0.00  0.00     0.000 OA
ATOM     15   S  A00 X   1      32.727  53.663  44.0770  0.00  0.00     0.000 S
ENDBRANCH 2 11
BRANCH 5 16
ATOM     16   C  A00 X   1      34.798  48.611  45.2230  0.00  0.00     0.000 C
ATOM     17   O  A00 X   1      33.969  47.749  45.4310  0.00  0.00     0.000 OA
ATOM     18   O  A00 X   1      35.256  49.227  46.1650  0.00  0.00     0.000 OA
ENDBRANCH 5 16
BRANCH 1 19
ATOM     19  O4  A00 X   2      31.971  49.400  43.7880  0.00  0.00     0.000 O
BRANCH 19 23
ATOM     20  C1  A00 X   2      28.623  47.239  42.2110  0.00  0.00     0.000 C
ATOM     21  C2  A00 X   2      29.993  46.520  42.2290  0.00  0.00     0.000 C
ATOM     22  C3  A00 X   2      30.971  47.225  43.1920  0.00  0.00     0.000 C
ATOM     23  C4  A00 X   2      31.086  48.727  42.8470  0.00  0.00     0.000 C
ATOM     24  C5  A00 X   2      29.652  49.324  42.8440  0.00  0.00     0.000 C
ATOM     25  O5  A00 X   2      28.858  48.626  41.8500  0.00  0.00     0.000 O
ATOM     26   O  A00 X   2      32.202  46.482  43.2240  0.00  0.00     0.000 O
ATOM     28  HD  A00 X   2      32.269  46.458  42.3610  0.00  0.00     0.000 HD
BRANCH 21 30
ATOM     28   N  A00 X   2      31.005  45.484  42.4580  0.00  0.00     0.000 N
ATOM     30  HD  A00 X   2      30.377  45.121  41.9850  0.00  0.00     0.000 HD
ATOM     30   O  A00 X   2      30.624  43.748  40.9420  0.00  0.00     0.000 OA
ATOM     31   S  A00 X   2      30.576  43.967  42.3440  0.00  0.00     0.000 S
ATOM     32   O  A00 X   2      31.575  43.275  43.0980  0.00  0.00     0.000 OA
ATOM     33   O  A00 X   2      29.298  43.840  42.9780  0.00  0.00     0.000 OA
ENDBRANCH 21 30
BRANCH 24 34
ATOM     34   C  A00 X   2      29.506  50.861  42.7530  0.00  0.00     0.000 C
ATOM     35   O  A00 X   2      30.560  52.845  39.8880  0.00  0.00     0.000 OA
ATOM     36   O  A00 X   2      30.314  51.401  41.6880  0.00  0.00     0.000 O
ATOM     37   O  A00 X   2      29.051  51.029  39.7550  0.00  0.00     0.000 OA
ATOM     38   S  A00 X   2      29.517  52.128  40.5440  0.00  0.00     0.000 S
ATOM     39   O  A00 X   2      28.533  52.943  41.1910  0.00  0.00     0.000 OA
ENDBRANCH 24 34
BRANCH 20 40
ATOM     40  O4  A00 X   3      28.132  47.171  43.5580  0.00  0.00     0.000 O
BRANCH 40 44
ATOM     41  C1  A00 X   3      26.493  48.040  46.6700  0.00  0.00     0.000 C
ATOM     42  C2  A00 X   3      26.970  46.621  46.2930  0.00  0.00     0.000 C
ATOM     43  C3  A00 X   3      26.450  46.214  44.8900  0.00  0.00     0.000 C
ATOM     44  C4  A00 X   3      26.710  47.242  43.7960  0.00  0.00     0.000 C
ATOM     45  C5  A00 X   3      26.199  48.640  44.2460  0.00  0.00     0.000 C
ATOM     46  O5  A00 X   3      26.706  48.977  45.5780  0.00  0.00     0.000 O
ATOM     47   O  A00 X   3      26.757  44.886  44.4720  0.00  0.00     0.000 O
ATOM     49  HD  A00 X   3      26.873  45.274  43.7070  0.00  0.00     0.000 HD
BRANCH 42 49
ATOM     49   O  A00 X   3      28.414  46.634  46.3370  0.00  0.00     0.000 O
ATOM     50   O  A00 X   3      30.174  45.061  45.9390  0.00  0.00     0.000 OA
ATOM     51   O  A00 X   3      28.249  44.347  47.1120  0.00  0.00     0.000 OA
ATOM     52   O  A00 X   3      29.697  45.894  48.1590  0.00  0.00     0.000 OA
ATOM     53   S  A00 X   3      29.194  45.418  46.9160  0.00  0.00     0.000 S
ENDBRANCH 42 49
BRANCH 45 54
ATOM     54   C  A00 X   3      24.673  48.749  44.1360  0.00  0.00     0.000 C
ATOM     55   O  A00 X   3      24.041  47.947  43.4800  0.00  0.00     0.000 OA
ATOM     56   O  A00 X   3      24.068  49.645  44.7040  0.00  0.00     0.000 OA
ENDBRANCH 45 54
BRANCH 41 57
ATOM     57  O4  A00 X   4      25.141  48.031  47.1810  0.00  0.00     0.000 O
BRANCH 57 61
ATOM     58  C1  A00 X   4      23.955  50.162  50.7430  0.00  0.00     0.000 C
ATOM     59  C2  A00 X   4      22.962  50.091  49.5570  0.00  0.00     0.000 C
ATOM     60  C3  A00 X   4      23.334  49.025  48.5060  0.00  0.00     0.000 C
ATOM     61  C4  A00 X   4      24.823  49.108  48.1080  0.00  0.00     0.000 C
ATOM     62  C5  A00 X   4      25.635  48.945  49.4170  0.00  0.00     0.000 C
ATOM     63  O5  A00 X   4      25.330  50.048  50.3080  0.00  0.00     0.000 O
BRANCH 59 66
ATOM     64   N  A00 X   4      21.494  49.969  49.5940  0.00  0.00     0.000 N
ATOM     66  HD  A00 X   4      21.073  49.969  48.8370  0.00  0.00     0.000 HD
ATOM     66   O  A00 X   4      21.432  52.197  50.5070  0.00  0.00     0.000 OA
ATOM     67   S  A00 X   4      20.673  50.986  50.5160  0.00  0.00     0.000 S
ATOM     68   O  A00 X   4      19.428  51.033  49.8050  0.00  0.00     0.000 OA
ATOM     69   O  A00 X   4      20.624  50.235  51.7390  0.00  0.00     0.000 OA
ENDBRANCH 59 66
BRANCH 62 70
ATOM     70   C  A00 X   4      27.167  48.890  49.2090  0.00  0.00     0.000 C
ATOM     71   O  A00 X   4      29.537  51.626  49.1320  0.00  0.00     0.000 OA
ATOM     72   O  A00 X   4      29.228  49.822  47.6510  0.00  0.00     0.000 OA
ATOM     73   O  A00 X   4      27.732  50.179  49.5000  0.00  0.00     0.000 O
ATOM     74   O  A00 X   4      27.659  51.686  47.6210  0.00  0.00     0.000 OA
ATOM     75   S  A00 X   4      28.568  50.884  48.3760  0.00  0.00     0.000 S
ENDBRANCH 62 70
ENDBRANCH 57 61
ENDBRANCH 41 57
ENDBRANCH 40 44
ENDBRANCH 20 40
ENDBRANCH 19 23
ENDBRANCH 1 19
TORSDOF 14
ENDMDL
MODEL 85
REMARK VINA RESULT:      -4.6     20.659     26.398
ROOT
ATOM      1  C1  A00 X   1       5.851  56.115  65.4120  0.00  0.00     0.000 C
ATOM      2  C2  A00 X   1       7.091  55.250  65.7620  0.00  0.00     0.000 C
ATOM      3  C3  A00 X   1       8.385  55.535  64.9290  0.00  0.00     0.000 C
ATOM      4  C4  A00 X   1       8.178  56.365  63.6360  0.00  0.00     0.000 C
ATOM      5  C5  A00 X   1       6.739  56.289  63.1260  0.00  0.00     0.000 C
ATOM      6  O5  A00 X   1       5.944  56.874  64.1810  0.00  0.00     0.000 O
ATOM      7   O  A00 X   1       8.953  54.291  64.5260  0.00  0.00     0.000 O
ATOM      9  HD  A00 X   1       9.011  54.830  63.8500  0.00  0.00     0.000 HD
ATOM      9   O  A00 X   1       8.551  57.729  63.8260  0.00  0.00     0.000 O
ATOM     11  HD  A00 X   1       8.610  58.268  63.1500  0.00  0.00     0.000 HD
ENDROOT
BRANCH 2 11
ATOM     11   O  A00 X   1       7.381  55.443  67.1600  0.00  0.00     0.000 O
ATOM     12   O  A00 X   1       9.112  54.212  68.2800  0.00  0.00     0.000 OA
ATOM     13   O  A00 X   1       7.191  53.018  67.3860  0.00  0.00     0.000 OA
ATOM     14   O  A00 X   1       6.941  54.484  69.2430  0.00  0.00     0.000 OA
ATOM     15   S  A00 X   1       7.690  54.191  68.0500  0.00  0.00     0.000 S
ENDBRANCH 2 11
BRANCH 5 16
ATOM     16   C  A00 X   1       6.272  54.891  62.7090  0.00  0.00     0.000 C
ATOM     17   O  A00 X   1       5.080  54.673  62.6380  0.00  0.00     0.000 OA
ATOM     18   O  A00 X   1       7.049  53.996  62.4420  0.00  0.00     0.000 OA
ENDBRANCH 5 16
BRANCH 1 19
ATOM     19  O4  A00 X   2       4.610  55.370  65.4810  0.00  0.00     0.000 O
BRANCH 19 23
ATOM     20  C1  A00 X   2       2.268  58.698  66.8240  0.00  0.00     0.000 C
ATOM     21  C2  A00 X   2       2.915  57.798  67.9040  0.00  0.00     0.000 C
ATOM     22  C3  A00 X   2       4.046  56.940  67.2990  0.00  0.00     0.000 C
ATOM     23  C4  A00 X   2       3.530  56.140  66.0820  0.00  0.00     0.000 C
ATOM     24  C5  A00 X   2       2.891  57.149  65.0870  0.00  0.00     0.000 C
ATOM     25  O5  A00 X   2       1.800  57.835  65.7540  0.00  0.00     0.000 O
ATOM     26   O  A00 X   2       4.658  56.176  68.3510  0.00  0.00     0.000 O
ATOM     28  HD  A00 X   2       3.900  55.880  68.6470  0.00  0.00     0.000 HD
BRANCH 21 30
ATOM     28   N  A00 X   2       2.178  58.719  68.7760  0.00  0.00     0.000 N
ATOM     30  HD  A00 X   2       2.339  58.007  69.2420  0.00  0.00     0.000 HD
ATOM     30   O  A00 X   2       2.430  57.990  70.9810  0.00  0.00     0.000 OA
ATOM     31   S  A00 X   2       1.397  58.127  70.0160  0.00  0.00     0.000 S
ATOM     32   O  A00 X   2       0.423  59.131  70.3130  0.00  0.00     0.000 OA
ATOM     33   O  A00 X   2       0.754  56.925  69.5780  0.00  0.00     0.000 OA
ENDBRANCH 21 30
BRANCH 24 34
ATOM     34   C  A00 X   2       2.503  56.634  63.6810  0.00  0.00     0.000 C
ATOM     35   O  A00 X   2       2.321  58.739  60.7160  0.00  0.00     0.000 OA
ATOM     36   O  A00 X   2       2.172  57.725  62.7980  0.00  0.00     0.000 O
ATOM     37   O  A00 X   2       4.243  58.540  62.0790  0.00  0.00     0.000 OA
ATOM     38   S  A00 X   2       3.100  57.872  61.5370  0.00  0.00     0.000 S
ATOM     39   O  A00 X   2       3.288  56.551  61.0170  0.00  0.00     0.000 OA
ENDBRANCH 24 34
BRANCH 20 40
ATOM     40  O4  A00 X   3       3.324  59.538  66.3360  0.00  0.00     0.000 O
BRANCH 40 44
ATOM     41  C1  A00 X   3       5.610  62.122  65.2300  0.00  0.00     0.000 C
ATOM     42  C2  A00 X   3       4.923  62.087  66.6120  0.00  0.00     0.000 C
ATOM     43  C3  A00 X   3       3.393  61.883  66.4670  0.00  0.00     0.000 C
ATOM     44  C4  A00 X   3       2.992  60.718  65.5720  0.00  0.00     0.000 C
ATOM     45  C5  A00 X   3       3.718  60.825  64.2010  0.00  0.00     0.000 C
ATOM     46  O5  A00 X   3       5.157  61.027  64.3860  0.00  0.00     0.000 O
ATOM     47   O  A00 X   3       2.641  61.922  67.6790  0.00  0.00     0.000 O
ATOM     49  HD  A00 X   3       2.204  61.279  67.2960  0.00  0.00     0.000 HD
BRANCH 42 49
ATOM     49   O  A00 X   3       5.530  61.011  67.3600  0.00  0.00     0.000 O
ATOM     50   O  A00 X   3       5.176  59.959  69.4810  0.00  0.00     0.000 OA
ATOM     51   O  A00 X   3       5.020  62.314  69.3350  0.00  0.00     0.000 OA
ATOM     52   O  A00 X   3       7.138  61.304  69.0470  0.00  0.00     0.000 OA
ATOM     53   S  A00 X   3       5.733  61.139  68.8980  0.00  0.00     0.000 S
ENDBRANCH 42 49
BRANCH 45 54
ATOM     54   C  A00 X   3       3.071  61.882  63.2980  0.00  0.00     0.000 C
ATOM     55   O  A00 X   3       3.283  61.886  62.1020  0.00  0.00     0.000 OA
ATOM     56   O  A00 X   3       2.335  62.737  63.7640  0.00  0.00     0.000 OA
ENDBRANCH 45 54
BRANCH 41 57
ATOM     57  O4  A00 X   4       5.501  63.424  64.6120  0.00  0.00     0.000 O
BRANCH 57 61
ATOM     58  C1  A00 X   4       7.925  65.532  61.7280  0.00  0.00     0.000 C
ATOM     59  C2  A00 X   4       6.892  64.498  61.2140  0.00  0.00     0.000 C
ATOM     60  C3  A00 X   4       5.855  64.083  62.2770  0.00  0.00     0.000 C
ATOM     61  C4  A00 X   4       6.525  63.726  63.6220  0.00  0.00     0.000 C
ATOM     62  C5  A00 X   4       7.334  64.974  64.0520  0.00  0.00     0.000 C
ATOM     63  O5  A00 X   4       8.371  65.232  63.0700  0.00  0.00     0.000 O
BRANCH 59 66
ATOM     64   N  A00 X   4       6.059  64.275  60.0180  0.00  0.00     0.000 N
ATOM     66  HD  A00 X   4       5.687  63.499  59.9290  0.00  0.00     0.000 HD
ATOM     66   O  A00 X   4       8.088  64.309  58.7210  0.00  0.00     0.000 OA
ATOM     67   S  A00 X   4       6.693  64.590  58.5840  0.00  0.00     0.000 S
ATOM     68   O  A00 X   4       5.955  63.671  57.7680  0.00  0.00     0.000 OA
ATOM     69   O  A00 X   4       6.299  65.962  58.4290  0.00  0.00     0.000 OA
ENDBRANCH 59 66
BRANCH 62 70
ATOM     70   C  A00 X   4       7.996  64.849  65.4450  0.00  0.00     0.000 C
ATOM     71   O  A00 X   4      11.339  63.729  66.2680  0.00  0.00     0.000 OA
ATOM     72   O  A00 X   4       9.250  63.106  67.1570  0.00  0.00     0.000 OA
ATOM     73   O  A00 X   4       9.403  64.604  65.2820  0.00  0.00     0.000 O
ATOM     74   O  A00 X   4       9.923  62.273  64.9680  0.00  0.00     0.000 OA
ATOM     75   S  A00 X   4      10.004  63.314  65.9410  0.00  0.00     0.000 S
ENDBRANCH 62 70
ENDBRANCH 57 61
ENDBRANCH 41 57
ENDBRANCH 40 44
ENDBRANCH 20 40
ENDBRANCH 19 23
ENDBRANCH 1 19
TORSDOF 14
ENDMDL
MODEL 86
REMARK VINA RESULT:      -4.5     30.895     35.127
ROOT
ATOM      1  C1  A00 X   1      29.155  46.968  56.8490  0.00  0.00     0.000 C
ATOM      2  C2  A00 X   1      28.541  47.215  58.2530  0.00  0.00     0.000 C
ATOM      3  C3  A00 X   1      28.544  45.992  59.2290  0.00  0.00     0.000 C
ATOM      4  C4  A00 X   1      28.812  44.613  58.5720  0.00  0.00     0.000 C
ATOM      5  C5  A00 X   1      28.487  44.613  57.0780  0.00  0.00     0.000 C
ATOM      6  O5  A00 X   1      29.394  45.581  56.5050  0.00  0.00     0.000 O
ATOM      7   O  A00 X   1      27.266  45.902  59.8530  0.00  0.00     0.000 O
ATOM      9  HD  A00 X   1      27.510  45.095  59.6530  0.00  0.00     0.000 HD
ATOM      9   O  A00 X   1      30.161  44.193  58.7720  0.00  0.00     0.000 O
ATOM     11  HD  A00 X   1      30.405  43.387  58.5730  0.00  0.00     0.000 HD
ENDROOT
BRANCH 2 11
ATOM     11   O  A00 X   1      29.262  48.303  58.8620  0.00  0.00     0.000 O
ATOM     12   O  A00 X   1      31.317  49.138  57.9420  0.00  0.00     0.000 OA
ATOM     13   O  A00 X   1      31.228  46.856  58.7800  0.00  0.00     0.000 OA
ATOM     14   O  A00 X   1      31.075  48.697  60.2780  0.00  0.00     0.000 OA
ATOM     15   S  A00 X   1      30.825  48.226  58.9430  0.00  0.00     0.000 S
ENDBRANCH 2 11
BRANCH 5 16
ATOM     16   C  A00 X   1      27.016  44.871  56.7350  0.00  0.00     0.000 C
ATOM     17   O  A00 X   1      26.163  44.492  57.5100  0.00  0.00     0.000 OA
ATOM     18   O  A00 X   1      26.676  45.447  55.7210  0.00  0.00     0.000 OA
ENDBRANCH 5 16
BRANCH 1 19
ATOM     19  O4  A00 X   2      28.440  47.658  55.7940  0.00  0.00     0.000 O
BRANCH 19 23
ATOM     20  C1  A00 X   2      29.508  51.023  53.3650  0.00  0.00     0.000 C
ATOM     21  C2  A00 X   2      30.348  49.732  53.2070  0.00  0.00     0.000 C
ATOM     22  C3  A00 X   2      29.602  48.516  53.7950  0.00  0.00     0.000 C
ATOM     23  C4  A00 X   2      29.187  48.787  55.2580  0.00  0.00     0.000 C
ATOM     24  C5  A00 X   2      28.372  50.109  55.2830  0.00  0.00     0.000 C
ATOM     25  O5  A00 X   2      29.207  51.183  54.7770  0.00  0.00     0.000 O
ATOM     26   O  A00 X   2      30.390  47.336  53.5630  0.00  0.00     0.000 O
ATOM     28  HD  A00 X   2      31.111  47.693  53.8850  0.00  0.00     0.000 HD
BRANCH 21 30
ATOM     28   N  A00 X   2      30.817  48.774  52.2020  0.00  0.00     0.000 N
ATOM     30  HD  A00 X   2      31.325  49.472  52.1380  0.00  0.00     0.000 HD
ATOM     30   O  A00 X   2      32.947  49.434  51.5060  0.00  0.00     0.000 OA
ATOM     31   S  A00 X   2      31.640  49.313  50.9650  0.00  0.00     0.000 S
ATOM     32   O  A00 X   2      31.486  48.287  49.9810  0.00  0.00     0.000 OA
ATOM     33   O  A00 X   2      31.005  50.521  50.5280  0.00  0.00     0.000 OA
ENDBRANCH 21 30
BRANCH 24 34
ATOM     34   C  A00 X   2      27.643  50.487  56.5940  0.00  0.00     0.000 C
ATOM     35   O  A00 X   2      24.170  51.568  56.7600  0.00  0.00     0.000 OA
ATOM     36   O  A00 X   2      26.421  51.202  56.3250  0.00  0.00     0.000 O
ATOM     37   O  A00 X   2      24.875  49.531  55.7870  0.00  0.00     0.000 OA
ATOM     38   S  A00 X   2      25.106  50.494  56.8200  0.00  0.00     0.000 S
ATOM     39   O  A00 X   2      25.382  50.002  58.1360  0.00  0.00     0.000 OA
ENDBRANCH 24 34
BRANCH 20 40
ATOM     40  O4  A00 X   3      28.293  50.785  52.6390  0.00  0.00     0.000 O
BRANCH 40 44
ATOM     41  C1  A00 X   3      25.316  50.793  50.5730  0.00  0.00     0.000 C
ATOM     42  C2  A00 X   3      26.719  51.229  50.0980  0.00  0.00     0.000 C
ATOM     43  C3  A00 X   3      27.342  52.259  51.0750  0.00  0.00     0.000 C
ATOM     44  C4  A00 X   3      27.312  51.840  52.5400  0.00  0.00     0.000 C
ATOM     45  C5  A00 X   3      25.870  51.421  52.9440  0.00  0.00     0.000 C
ATOM     46  O5  A00 X   3      25.318  50.458  51.9890  0.00  0.00     0.000 O
ATOM     47   O  A00 X   3      28.605  52.799  50.6900  0.00  0.00     0.000 O
ATOM     49  HD  A00 X   3      28.767  52.726  51.5380  0.00  0.00     0.000 HD
BRANCH 42 49
ATOM     49   O  A00 X   3      27.525  50.034  50.0050  0.00  0.00     0.000 O
ATOM     50   O  A00 X   3      28.997  49.058  48.3890  0.00  0.00     0.000 OA
ATOM     51   O  A00 X   3      26.982  50.046  47.6470  0.00  0.00     0.000 OA
ATOM     52   O  A00 X   3      26.859  48.060  48.9220  0.00  0.00     0.000 OA
ATOM     53   S  A00 X   3      27.607  49.243  48.6670  0.00  0.00     0.000 S
ENDBRANCH 42 49
BRANCH 45 54
ATOM     54   C  A00 X   3      24.965  52.640  53.1620  0.00  0.00     0.000 C
ATOM     55   O  A00 X   3      25.395  53.765  53.0080  0.00  0.00     0.000 OA
ATOM     56   O  A00 X   3      23.799  52.501  53.4960  0.00  0.00     0.000 OA
ENDBRANCH 45 54
BRANCH 41 57
ATOM     57  O4  A00 X   4      24.303  51.753  50.1990  0.00  0.00     0.000 O
BRANCH 57 61
ATOM     58  C1  A00 X   4      20.161  51.331  49.0580  0.00  0.00     0.000 C
ATOM     59  C2  A00 X   4      20.498  51.574  50.5510  0.00  0.00     0.000 C
ATOM     60  C3  A00 X   4      21.942  52.062  50.7830  0.00  0.00     0.000 C
ATOM     61  C4  A00 X   4      22.968  51.203  50.0140  0.00  0.00     0.000 C
ATOM     62  C5  A00 X   4      22.562  51.272  48.5200  0.00  0.00     0.000 C
ATOM     63  O5  A00 X   4      21.246  50.684  48.3560  0.00  0.00     0.000 O
BRANCH 59 66
ATOM     64   N  A00 X   4      20.389  50.759  51.7730  0.00  0.00     0.000 N
ATOM     66  HD  A00 X   4      20.688  49.946  51.7400  0.00  0.00     0.000 HD
ATOM     66   O  A00 X   4      18.008  50.718  51.4150  0.00  0.00     0.000 OA
ATOM     67   S  A00 X   4      18.959  50.639  52.4800  0.00  0.00     0.000 S
ATOM     68   O  A00 X   4      19.085  49.352  53.1010  0.00  0.00     0.000 OA
ATOM     69   O  A00 X   4      19.035  51.743  53.3940  0.00  0.00     0.000 OA
ENDBRANCH 59 66
BRANCH 62 70
ATOM     70   C  A00 X   4      23.545  50.554  47.5640  0.00  0.00     0.000 C
ATOM     71   O  A00 X   4      24.060  51.100  44.0230  0.00  0.00     0.000 OA
ATOM     72   O  A00 X   4      23.716  49.111  45.2340  0.00  0.00     0.000 OA
ATOM     73   O  A00 X   4      23.588  51.257  46.3120  0.00  0.00     0.000 O
ATOM     74   O  A00 X   4      21.833  50.595  44.7990  0.00  0.00     0.000 OA
ATOM     75   S  A00 X   4      23.238  50.457  45.0090  0.00  0.00     0.000 S
ENDBRANCH 62 70
ENDBRANCH 57 61
ENDBRANCH 41 57
ENDBRANCH 40 44
ENDBRANCH 20 40
ENDBRANCH 19 23
ENDBRANCH 1 19
TORSDOF 14
ENDMDL
MODEL 87
REMARK VINA RESULT:      -4.5      9.089     16.186
ROOT
ATOM      1  C1  A00 X   1       6.985  53.401  73.1410  0.00  0.00     0.000 C
ATOM      2  C2  A00 X   1       5.499  52.971  73.0140  0.00  0.00     0.000 C
ATOM      3  C3  A00 X   1       5.145  51.551  73.5660  0.00  0.00     0.000 C
ATOM      4  C4  A00 X   1       6.353  50.616  73.8290  0.00  0.00     0.000 C
ATOM      5  C5  A00 X   1       7.583  51.019  73.0170  0.00  0.00     0.000 C
ATOM      6  O5  A00 X   1       7.915  52.345  73.4870  0.00  0.00     0.000 O
ATOM      7   O  A00 X   1       4.316  50.885  72.6170  0.00  0.00     0.000 O
ATOM      9  HD  A00 X   1       4.882  50.302  72.9150  0.00  0.00     0.000 HD
ATOM      9   O  A00 X   1       6.685  50.570  75.2170  0.00  0.00     0.000 O
ATOM     11  HD  A00 X   1       7.251  49.986  75.5150  0.00  0.00     0.000 HD
ENDROOT
BRANCH 2 11
ATOM     11   O  A00 X   1       4.698  53.954  73.6980  0.00  0.00     0.000 O
ATOM     12   O  A00 X   1       2.338  53.661  74.0310  0.00  0.00     0.000 OA
ATOM     13   O  A00 X   1       3.204  53.868  71.7670  0.00  0.00     0.000 OA
ATOM     14   O  A00 X   1       3.247  55.728  73.2490  0.00  0.00     0.000 OA
ATOM     15   S  A00 X   1       3.274  54.295  73.1380  0.00  0.00     0.000 S
ENDBRANCH 2 11
BRANCH 5 16
ATOM     16   C  A00 X   1       7.412  50.932  71.4970  0.00  0.00     0.000 C
ATOM     17   O  A00 X   1       8.309  51.340  70.7870  0.00  0.00     0.000 OA
ATOM     18   O  A00 X   1       6.417  50.466  70.9780  0.00  0.00     0.000 OA
ENDBRANCH 5 16
BRANCH 1 19
ATOM     19  O4  A00 X   2       7.450  54.161  71.9990  0.00  0.00     0.000 O
BRANCH 19 23
ATOM     20  C1  A00 X   2       9.962  56.734  74.3290  0.00  0.00     0.000 C
ATOM     21  C2  A00 X   2       8.545  57.248  73.9750  0.00  0.00     0.000 C
ATOM     22  C3  A00 X   2       7.634  56.085  73.5320  0.00  0.00     0.000 C
ATOM     23  C4  A00 X   2       8.288  55.288  72.3810  0.00  0.00     0.000 C
ATOM     24  C5  A00 X   2       9.701  54.848  72.8530  0.00  0.00     0.000 C
ATOM     25  O5  A00 X   2      10.479  56.032  73.1680  0.00  0.00     0.000 O
ATOM     26   O  A00 X   2       6.316  56.602  73.2810  0.00  0.00     0.000 O
ATOM     28  HD  A00 X   2       6.608  57.239  72.7720  0.00  0.00     0.000 HD
BRANCH 21 30
ATOM     28   N  A00 X   2       7.670  57.834  74.9940  0.00  0.00     0.000 N
ATOM     30  HD  A00 X   2       8.075  58.492  74.6040  0.00  0.00     0.000 HD
ATOM     30   O  A00 X   2       7.442  60.113  74.5340  0.00  0.00     0.000 OA
ATOM     31   S  A00 X   2       8.002  59.280  75.5390  0.00  0.00     0.000 S
ATOM     32   O  A00 X   2       7.335  59.327  76.8030  0.00  0.00     0.000 OA
ATOM     33   O  A00 X   2       9.421  59.348  75.7220  0.00  0.00     0.000 OA
ENDBRANCH 21 30
BRANCH 24 34
ATOM     34   C  A00 X   2      10.479  53.840  71.9730  0.00  0.00     0.000 C
ATOM     35   O  A00 X   2      13.963  54.245  70.9980  0.00  0.00     0.000 OA
ATOM     36   O  A00 X   2      11.696  54.421  71.4640  0.00  0.00     0.000 O
ATOM     37   O  A00 X   2      13.209  54.249  73.2400  0.00  0.00     0.000 OA
ATOM     38   S  A00 X   2      13.021  53.712  71.9270  0.00  0.00     0.000 S
ATOM     39   O  A00 X   2      12.788  52.304  71.8130  0.00  0.00     0.000 OA
ENDBRANCH 24 34
BRANCH 20 40
ATOM     40  O4  A00 X   3       9.779  55.806  75.4080  0.00  0.00     0.000 O
BRANCH 40 44
ATOM     41  C1  A00 X   3       9.734  53.701  78.3570  0.00  0.00     0.000 C
ATOM     42  C2  A00 X   3       9.437  55.216  78.3520  0.00  0.00     0.000 C
ATOM     43  C3  A00 X   3      10.555  56.000  77.6170  0.00  0.00     0.000 C
ATOM     44  C4  A00 X   3      10.907  55.457  76.2380  0.00  0.00     0.000 C
ATOM     45  C5  A00 X   3      11.197  53.932  76.3250  0.00  0.00     0.000 C
ATOM     46  O5  A00 X   3      10.123  53.235  77.0350  0.00  0.00     0.000 O
ATOM     47   O  A00 X   3      10.429  57.421  77.6260  0.00  0.00     0.000 O
ATOM     49  HD  A00 X   3      10.718  57.339  76.8140  0.00  0.00     0.000 HD
BRANCH 42 49
ATOM     49   O  A00 X   3       8.156  55.394  77.7080  0.00  0.00     0.000 O
ATOM     50   O  A00 X   3       5.970  56.112  78.3670  0.00  0.00     0.000 OA
ATOM     51   O  A00 X   3       7.184  54.684  79.8070  0.00  0.00     0.000 OA
ATOM     52   O  A00 X   3       6.416  53.818  77.7460  0.00  0.00     0.000 OA
ATOM     53   S  A00 X   3       6.845  54.984  78.4390  0.00  0.00     0.000 S
ENDBRANCH 42 49
BRANCH 45 54
ATOM     54   C  A00 X   3      12.587  53.651  76.9090  0.00  0.00     0.000 C
ATOM     55   O  A00 X   3      12.822  53.869  78.0800  0.00  0.00     0.000 OA
ATOM     56   O  A00 X   3      13.482  53.205  76.2080  0.00  0.00     0.000 OA
ENDBRANCH 45 54
BRANCH 41 57
ATOM     57  O4  A00 X   4      10.665  53.343  79.4030  0.00  0.00     0.000 O
BRANCH 57 61
ATOM     58  C1  A00 X   4      11.332  49.497  81.2470  0.00  0.00     0.000 C
ATOM     59  C2  A00 X   4      10.869  49.540  79.7700  0.00  0.00     0.000 C
ATOM     60  C3  A00 X   4      11.011  50.932  79.1210  0.00  0.00     0.000 C
ATOM     61  C4  A00 X   4      10.431  52.045  80.0200  0.00  0.00     0.000 C
ATOM     62  C5  A00 X   4      11.183  51.951  81.3710  0.00  0.00     0.000 C
ATOM     63  O5  A00 X   4      10.905  50.666  81.9840  0.00  0.00     0.000 O
BRANCH 59 66
ATOM     64   N  A00 X   4       9.634  49.151  80.4740  0.00  0.00     0.000 N
ATOM     66  HD  A00 X   4       9.640  49.180  81.3390  0.00  0.00     0.000 HD
ATOM     66   O  A00 X   4      10.070  46.887  79.7780  0.00  0.00     0.000 OA
ATOM     67   S  A00 X   4       8.973  47.738  80.1190  0.00  0.00     0.000 S
ATOM     68   O  A00 X   4       8.322  47.437  81.3610  0.00  0.00     0.000 OA
ATOM     69   O  A00 X   4       8.080  48.133  79.0670  0.00  0.00     0.000 OA
ENDBRANCH 59 66
BRANCH 62 70
ATOM     70   C  A00 X   4      10.815  53.066  82.3780  0.00  0.00     0.000 C
ATOM     71   O  A00 X   4      12.308  53.789  85.5970  0.00  0.00     0.000 OA
ATOM     72   O  A00 X   4      10.050  53.549  84.9720  0.00  0.00     0.000 OA
ATOM     73   O  A00 X   4      11.823  53.135  83.4000  0.00  0.00     0.000 O
ATOM     74   O  A00 X   4      11.454  51.570  85.1940  0.00  0.00     0.000 OA
ATOM     75   S  A00 X   4      11.369  52.962  84.8910  0.00  0.00     0.000 S
ENDBRANCH 62 70
ENDBRANCH 57 61
ENDBRANCH 41 57
ENDBRANCH 40 44
ENDBRANCH 20 40
ENDBRANCH 19 23
ENDBRANCH 1 19
TORSDOF 14
ENDMDL
MODEL 88
REMARK VINA RESULT:      -4.5     21.495     25.518
ROOT
ATOM      1  C1  A00 X   1       8.502  57.014  63.8490  0.00  0.00     0.000 C
ATOM      2  C2  A00 X   1       8.976  55.965  64.8890  0.00  0.00     0.000 C
ATOM      3  C3  A00 X   1      10.344  56.258  65.5880  0.00  0.00     0.000 C
ATOM      4  C4  A00 X   1      11.223  57.339  64.9080  0.00  0.00     0.000 C
ATOM      5  C5  A00 X   1      10.872  57.525  63.4320  0.00  0.00     0.000 C
ATOM      6  O5  A00 X   1       9.500  57.981  63.4370  0.00  0.00     0.000 O
ATOM      7   O  A00 X   1      11.116  55.059  65.6030  0.00  0.00     0.000 O
ATOM      9  HD  A00 X   1      11.656  55.708  65.4080  0.00  0.00     0.000 HD
ATOM      9   O  A00 X   1      11.130  58.591  65.5880  0.00  0.00     0.000 O
ATOM     11  HD  A00 X   1      11.670  59.239  65.3920  0.00  0.00     0.000 HD
ENDROOT
BRANCH 2 11
ATOM     11   O  A00 X   1       7.950  55.851  65.8950  0.00  0.00     0.000 O
ATOM     12   O  A00 X   1       8.377  54.854  68.0370  0.00  0.00     0.000 OA
ATOM     13   O  A00 X   1       8.549  53.487  66.0320  0.00  0.00     0.000 OA
ATOM     14   O  A00 X   1       6.435  54.300  66.7590  0.00  0.00     0.000 OA
ATOM     15   S  A00 X   1       7.854  54.531  66.7340  0.00  0.00     0.000 S
ENDBRANCH 2 11
BRANCH 5 16
ATOM     16   C  A00 X   1      11.106  56.294  62.5500  0.00  0.00     0.000 C
ATOM     17   O  A00 X   1      10.551  56.238  61.4720  0.00  0.00     0.000 OA
ATOM     18   O  A00 X   1      11.830  55.379  62.8880  0.00  0.00     0.000 OA
ENDBRANCH 5 16
BRANCH 1 19
ATOM     19  O4  A00 X   2       7.844  56.415  62.7060  0.00  0.00     0.000 O
BRANCH 19 23
ATOM     20  C1  A00 X   2       4.227  58.637  63.2880  0.00  0.00     0.000 C
ATOM     21  C2  A00 X   2       4.164  57.104  63.4910  0.00  0.00     0.000 C
ATOM     22  C3  A00 X   2       5.578  56.516  63.6760  0.00  0.00     0.000 C
ATOM     23  C4  A00 X   2       6.497  56.929  62.5040  0.00  0.00     0.000 C
ATOM     24  C5  A00 X   2       6.459  58.478  62.3940  0.00  0.00     0.000 C
ATOM     25  O5  A00 X   2       5.091  58.895  62.1490  0.00  0.00     0.000 O
ATOM     26   O  A00 X   2       5.462  55.105  63.9290  0.00  0.00     0.000 O
ATOM     28  HD  A00 X   2       4.943  54.975  63.2470  0.00  0.00     0.000 HD
BRANCH 21 30
ATOM     28   N  A00 X   2       2.790  57.150  62.9790  0.00  0.00     0.000 N
ATOM     30  HD  A00 X   2       2.894  56.374  63.3500  0.00  0.00     0.000 HD
ATOM     30   O  A00 X   2       1.580  55.425  63.9880  0.00  0.00     0.000 OA
ATOM     31   S  A00 X   2       2.041  55.788  62.6950  0.00  0.00     0.000 S
ATOM     32   O  A00 X   2       1.014  56.153  61.7690  0.00  0.00     0.000 OA
ATOM     33   O  A00 X   2       2.983  54.908  62.0710  0.00  0.00     0.000 OA
ENDBRANCH 21 30
BRANCH 24 34
ATOM     34   C  A00 X   2       7.471  59.163  61.4470  0.00  0.00     0.000 C
ATOM     35   O  A00 X   2       7.835  62.771  61.1130  0.00  0.00     0.000 OA
ATOM     36   O  A00 X   2       7.153  60.557  61.2610  0.00  0.00     0.000 O
ATOM     37   O  A00 X   2       8.013  61.608  63.1650  0.00  0.00     0.000 OA
ATOM     38   S  A00 X   2       8.252  61.567  61.7550  0.00  0.00     0.000 S
ATOM     39   O  A00 X   2       9.510  61.047  61.3100  0.00  0.00     0.000 OA
ENDBRANCH 24 34
BRANCH 20 40
ATOM     40  O4  A00 X   3       4.832  59.161  64.4790  0.00  0.00     0.000 O
BRANCH 40 44
ATOM     41  C1  A00 X   3       5.624  60.722  67.6510  0.00  0.00     0.000 C
ATOM     42  C2  A00 X   3       4.331  59.929  67.3580  0.00  0.00     0.000 C
ATOM     43  C3  A00 X   3       3.651  60.435  66.0600  0.00  0.00     0.000 C
ATOM     44  C4  A00 X   3       4.578  60.532  64.8550  0.00  0.00     0.000 C
ATOM     45  C5  A00 X   3       5.850  61.346  65.2260  0.00  0.00     0.000 C
ATOM     46  O5  A00 X   3       6.452  60.840  66.4620  0.00  0.00     0.000 O
ATOM     47   O  A00 X   3       2.400  59.832  65.7370  0.00  0.00     0.000 O
ATOM     49  HD  A00 X   3       2.714  59.878  64.9310  0.00  0.00     0.000 HD
BRANCH 42 49
ATOM     49   O  A00 X   3       4.704  58.537  67.2500  0.00  0.00     0.000 O
ATOM     50   O  A00 X   3       3.584  56.475  66.7750  0.00  0.00     0.000 OA
ATOM     51   O  A00 X   3       2.526  58.050  68.1860  0.00  0.00     0.000 OA
ATOM     52   O  A00 X   3       4.469  56.959  68.9730  0.00  0.00     0.000 OA
ATOM     53   S  A00 X   3       3.775  57.428  67.8240  0.00  0.00     0.000 S
ENDBRANCH 42 49
BRANCH 45 54
ATOM     54   C  A00 X   3       5.568  62.853  65.2650  0.00  0.00     0.000 C
ATOM     55   O  A00 X   3       4.432  63.272  65.1790  0.00  0.00     0.000 OA
ATOM     56   O  A00 X   3       6.479  63.657  65.3820  0.00  0.00     0.000 OA
ENDBRANCH 45 54
BRANCH 41 57
ATOM     57  O4  A00 X   4       5.341  61.982  68.2980  0.00  0.00     0.000 O
BRANCH 57 61
ATOM     58  C1  A00 X   4       7.822  64.395  70.8790  0.00  0.00     0.000 C
ATOM     59  C2  A00 X   4       7.450  64.947  69.4810  0.00  0.00     0.000 C
ATOM     60  C3  A00 X   4       6.292  64.184  68.8070  0.00  0.00     0.000 C
ATOM     61  C4  A00 X   4       6.498  62.656  68.8710  0.00  0.00     0.000 C
ATOM     62  C5  A00 X   4       6.637  62.298  70.3720  0.00  0.00     0.000 C
ATOM     63  O5  A00 X   4       7.816  62.949  70.9100  0.00  0.00     0.000 O
BRANCH 59 66
ATOM     64   N  A00 X   4       7.219  66.273  68.8800  0.00  0.00     0.000 N
ATOM     66  HD  A00 X   4       7.157  66.316  68.0170  0.00  0.00     0.000 HD
ATOM     66   O  A00 X   4       9.468  66.845  69.5200  0.00  0.00     0.000 OA
ATOM     67   S  A00 X   4       8.205  67.468  69.2780  0.00  0.00     0.000 S
ATOM     68   O  A00 X   4       8.129  68.271  68.0930  0.00  0.00     0.000 OA
ATOM     69   O  A00 X   4       7.500  68.013  70.4040  0.00  0.00     0.000 OA
ENDBRANCH 59 66
BRANCH 62 70
ATOM     70   C  A00 X   4       6.743  60.780  70.6530  0.00  0.00     0.000 C
ATOM     71   O  A00 X   4       9.645  58.630  70.4010  0.00  0.00     0.000 OA
ATOM     72   O  A00 X   4       7.462  58.366  69.5580  0.00  0.00     0.000 OA
ATOM     73   O  A00 X   4       8.127  60.395  70.6660  0.00  0.00     0.000 O
ATOM     74   O  A00 X   4       8.994  59.918  68.4700  0.00  0.00     0.000 OA
ATOM     75   S  A00 X   4       8.585  59.270  69.6740  0.00  0.00     0.000 S
ENDBRANCH 62 70
ENDBRANCH 57 61
ENDBRANCH 41 57
ENDBRANCH 40 44
ENDBRANCH 20 40
ENDBRANCH 19 23
ENDBRANCH 1 19
TORSDOF 14
ENDMDL
MODEL 89
REMARK VINA RESULT:      -4.4     19.023     25.738
ROOT
ATOM      1  C1  A00 X   1      11.598  60.808  63.4840  0.00  0.00     0.000 C
ATOM      2  C2  A00 X   1      12.746  61.479  64.2840  0.00  0.00     0.000 C
ATOM      3  C3  A00 X   1      12.338  62.154  65.6360  0.00  0.00     0.000 C
ATOM      4  C4  A00 X   1      10.819  62.393  65.8320  0.00  0.00     0.000 C
ATOM      5  C5  A00 X   1      10.065  62.440  64.5030  0.00  0.00     0.000 C
ATOM      6  O5  A00 X   1      10.255  61.128  63.9270  0.00  0.00     0.000 O
ATOM      7   O  A00 X   1      12.963  63.433  65.7150  0.00  0.00     0.000 O
ATOM      9  HD  A00 X   1      12.154  63.525  66.0120  0.00  0.00     0.000 HD
ATOM      9   O  A00 X   1      10.240  61.402  66.6800  0.00  0.00     0.000 O
ATOM     11  HD  A00 X   1       9.431  61.494  66.9770  0.00  0.00     0.000 HD
ENDROOT
BRANCH 2 11
ATOM     11   O  A00 X   1      13.745  60.474  64.5440  0.00  0.00     0.000 O
ATOM     12   O  A00 X   1      15.524  60.829  66.1180  0.00  0.00     0.000 OA
ATOM     13   O  A00 X   1      15.401  62.221  64.1270  0.00  0.00     0.000 OA
ATOM     14   O  A00 X   1      15.931  59.909  63.9500  0.00  0.00     0.000 OA
ATOM     15   S  A00 X   1      15.240  60.917  64.7080  0.00  0.00     0.000 S
ENDBRANCH 2 11
BRANCH 5 16
ATOM     16   C  A00 X   1      10.471  63.584  63.5680  0.00  0.00     0.000 C
ATOM     17   O  A00 X   1      11.079  64.526  64.0320  0.00  0.00     0.000 OA
ATOM     18   O  A00 X   1      10.211  63.578  62.3810  0.00  0.00     0.000 OA
ENDBRANCH 5 16
BRANCH 1 19
ATOM     19  O4  A00 X   2      11.736  60.981  62.0520  0.00  0.00     0.000 O
BRANCH 19 23
ATOM     20  C1  A00 X   2      11.089  56.828  61.2170  0.00  0.00     0.000 C
ATOM     21  C2  A00 X   2      12.531  57.370  61.0680  0.00  0.00     0.000 C
ATOM     22  C3  A00 X   2      12.689  58.719  61.8000  0.00  0.00     0.000 C
ATOM     23  C4  A00 X   2      11.617  59.725  61.3240  0.00  0.00     0.000 C
ATOM     24  C5  A00 X   2      10.226  59.059  61.5070  0.00  0.00     0.000 C
ATOM     25  O5  A00 X   2      10.182  57.844  60.7140  0.00  0.00     0.000 O
ATOM     26   O  A00 X   2      14.058  59.146  61.6910  0.00  0.00     0.000 O
ATOM     28  HD  A00 X   2      14.078  59.028  60.8330  0.00  0.00     0.000 HD
BRANCH 21 30
ATOM     28   N  A00 X   2      13.875  57.051  61.5600  0.00  0.00     0.000 N
ATOM     30  HD  A00 X   2      13.719  56.520  60.8930  0.00  0.00     0.000 HD
ATOM     30   O  A00 X   2      14.971  55.799  59.9200  0.00  0.00     0.000 OA
ATOM     31   S  A00 X   2      14.480  55.626  61.2410  0.00  0.00     0.000 S
ATOM     32   O  A00 X   2      15.488  55.455  62.2420  0.00  0.00     0.000 OA
ATOM     33   O  A00 X   2      13.430  54.669  61.4240  0.00  0.00     0.000 OA
ENDBRANCH 21 30
BRANCH 24 34
ATOM     34   C  A00 X   2       8.969  59.940  61.3190  0.00  0.00     0.000 C
ATOM     35   O  A00 X   2       7.987  61.448  58.1540  0.00  0.00     0.000 OA
ATOM     36   O  A00 X   2       9.026  60.675  60.0800  0.00  0.00     0.000 O
ATOM     37   O  A00 X   2       8.354  59.131  58.4570  0.00  0.00     0.000 OA
ATOM     38   S  A00 X   2       7.883  60.344  59.0510  0.00  0.00     0.000 S
ATOM     39   O  A00 X   2       6.666  60.286  59.8030  0.00  0.00     0.000 OA
ENDBRANCH 24 34
BRANCH 20 40
ATOM     40  O4  A00 X   3      10.883  56.656  62.6270  0.00  0.00     0.000 O
BRANCH 40 44
ATOM     41  C1  A00 X   3       9.568  56.291  65.9830  0.00  0.00     0.000 C
ATOM     42  C2  A00 X   3      10.907  55.699  65.4930  0.00  0.00     0.000 C
ATOM     43  C3  A00 X   3      10.714  54.901  64.1780  0.00  0.00     0.000 C
ATOM     44  C4  A00 X   3       9.957  55.649  63.0880  0.00  0.00     0.000 C
ATOM     45  C5  A00 X   3       8.622  56.209  63.6550  0.00  0.00     0.000 C
ATOM     46  O5  A00 X   3       8.851  56.946  64.8990  0.00  0.00     0.000 O
ATOM     47   O  A00 X   3      11.871  54.234  63.6780  0.00  0.00     0.000 O
ATOM     49  HD  A00 X   3      11.553  54.495  62.9160  0.00  0.00     0.000 HD
BRANCH 42 49
ATOM     49   O  A00 X   3      11.817  56.806  65.3090  0.00  0.00     0.000 O
ATOM     50   O  A00 X   3      14.091  57.083  64.6140  0.00  0.00     0.000 OA
ATOM     51   O  A00 X   3      13.550  55.295  66.0630  0.00  0.00     0.000 OA
ATOM     52   O  A00 X   3      13.404  57.503  66.8940  0.00  0.00     0.000 OA
ATOM     53   S  A00 X   3      13.307  56.679  65.7390  0.00  0.00     0.000 S
ENDBRANCH 42 49
BRANCH 45 54
ATOM     54   C  A00 X   3       7.559  55.112  63.7900  0.00  0.00     0.000 C
ATOM     55   O  A00 X   3       6.386  55.400  63.9130  0.00  0.00     0.000 OA
ATOM     56   O  A00 X   3       7.872  53.932  63.7760  0.00  0.00     0.000 OA
ENDBRANCH 45 54
BRANCH 41 57
ATOM     57  O4  A00 X   4       8.782  55.313  66.7000  0.00  0.00     0.000 O
BRANCH 57 61
ATOM     58  C1  A00 X   4       5.933  55.612  69.9290  0.00  0.00     0.000 C
ATOM     59  C2  A00 X   4       5.443  55.871  68.4830  0.00  0.00     0.000 C
ATOM     60  C3  A00 X   4       6.435  55.391  67.4030  0.00  0.00     0.000 C
ATOM     61  C4  A00 X   4       7.875  55.860  67.6990  0.00  0.00     0.000 C
ATOM     62  C5  A00 X   4       8.232  55.314  69.1030  0.00  0.00     0.000 C
ATOM     63  O5  A00 X   4       7.341  55.902  70.0850  0.00  0.00     0.000 O
BRANCH 59 66
ATOM     64   N  A00 X   4       4.752  56.805  67.5760  0.00  0.00     0.000 N
ATOM     66  HD  A00 X   4       5.140  57.560  67.4080  0.00  0.00     0.000 HD
ATOM     66   O  A00 X   4       3.131  57.145  69.3240  0.00  0.00     0.000 OA
ATOM     67   S  A00 X   4       3.233  57.190  67.8990  0.00  0.00     0.000 S
ATOM     68   O  A00 X   4       3.169  58.498  67.3160  0.00  0.00     0.000 OA
ATOM     69   O  A00 X   4       2.549  56.177  67.1470  0.00  0.00     0.000 OA
ENDBRANCH 59 66
BRANCH 62 70
ATOM     70   C  A00 X   4       9.692  55.590  69.5370  0.00  0.00     0.000 C
ATOM     71   O  A00 X   4      11.566  54.096  72.2500  0.00  0.00     0.000 OA
ATOM     72   O  A00 X   4      11.271  56.353  71.6500  0.00  0.00     0.000 OA
ATOM     73   O  A00 X   4      10.098  54.600  70.4960  0.00  0.00     0.000 O
ATOM     74   O  A00 X   4       9.458  55.154  72.7520  0.00  0.00     0.000 OA
ATOM     75   S  A00 X   4      10.599  55.097  71.8960  0.00  0.00     0.000 S
ENDBRANCH 62 70
ENDBRANCH 57 61
ENDBRANCH 41 57
ENDBRANCH 40 44
ENDBRANCH 20 40
ENDBRANCH 19 23
ENDBRANCH 1 19
TORSDOF 14
ENDMDL
MODEL 90
REMARK VINA RESULT:      -4.4     38.921     43.325
ROOT
ATOM      1  C1  A00 X   1      34.001  48.874  42.5260  0.00  0.00     0.000 C
ATOM      2  C2  A00 X   1      34.269  50.402  42.4800  0.00  0.00     0.000 C
ATOM      3  C3  A00 X   1      35.717  50.833  42.0750  0.00  0.00     0.000 C
ATOM      4  C4  A00 X   1      36.788  49.714  42.1290  0.00  0.00     0.000 C
ATOM      5  C5  A00 X   1      36.382  48.571  43.0600  0.00  0.00     0.000 C
ATOM      6  O5  A00 X   1      35.177  48.030  42.4730  0.00  0.00     0.000 O
ATOM      7   O  A00 X   1      36.156  51.856  42.9660  0.00  0.00     0.000 O
ATOM      9  HD  A00 X   1      36.826  51.323  42.8390  0.00  0.00     0.000 HD
ATOM      9   O  A00 X   1      37.070  49.199  40.8280  0.00  0.00     0.000 O
ATOM     11  HD  A00 X   1      37.741  48.665  40.7010  0.00  0.00     0.000 HD
ENDROOT
BRANCH 2 11
ATOM     11   O  A00 X   1      33.330  50.984  41.5560  0.00  0.00     0.000 O
ATOM     12   O  A00 X   1      33.497  53.273  40.8480  0.00  0.00     0.000 OA
ATOM     13   O  A00 X   1      33.057  52.780  43.1890  0.00  0.00     0.000 OA
ATOM     14   O  A00 X   1      31.415  52.320  41.5310  0.00  0.00     0.000 OA
ATOM     15   S  A00 X   1      32.819  52.444  41.8120  0.00  0.00     0.000 S
ENDBRANCH 2 11
BRANCH 5 16
ATOM     16   C  A00 X   1      36.225  48.961  44.5330  0.00  0.00     0.000 C
ATOM     17   O  A00 X   1      35.685  48.177  45.2870  0.00  0.00     0.000 OA
ATOM     18   O  A00 X   1      36.626  50.019  44.9740  0.00  0.00     0.000 OA
ENDBRANCH 5 16
BRANCH 1 19
ATOM     19  O4  A00 X   2      33.125  48.491  43.6150  0.00  0.00     0.000 O
BRANCH 19 23
ATOM     20  C1  A00 X   2      30.253  45.327  43.9500  0.00  0.00     0.000 C
ATOM     21  C2  A00 X   2      31.742  44.968  44.1740  0.00  0.00     0.000 C
ATOM     22  C3  A00 X   2      32.578  46.235  44.4500  0.00  0.00     0.000 C
ATOM     23  C4  A00 X   2      32.374  47.276  43.3270  0.00  0.00     0.000 C
ATOM     24  C5  A00 X   2      30.849  47.535  43.1900  0.00  0.00     0.000 C
ATOM     25  O5  A00 X   2      30.191  46.285  42.8590  0.00  0.00     0.000 O
ATOM     26   O  A00 X   2      33.935  45.842  44.7180  0.00  0.00     0.000 O
ATOM     28  HD  A00 X   2      33.984  45.346  44.0100  0.00  0.00     0.000 HD
BRANCH 21 30
ATOM     28   N  A00 X   2      32.448  44.273  45.2550  0.00  0.00     0.000 N
ATOM     30  HD  A00 X   2      32.163  43.664  44.7100  0.00  0.00     0.000 HD
ATOM     30   O  A00 X   2      32.896  42.092  44.5480  0.00  0.00     0.000 OA
ATOM     31   S  A00 X   2      32.110  42.753  45.5280  0.00  0.00     0.000 S
ATOM     32   O  A00 X   2      32.533  42.550  46.8790  0.00  0.00     0.000 OA
ATOM     33   O  A00 X   2      30.688  42.611  45.4250  0.00  0.00     0.000 OA
ENDBRANCH 21 30
BRANCH 24 34
ATOM     34   C  A00 X   2      30.390  48.707  42.2910  0.00  0.00     0.000 C
ATOM     35   O  A00 X   2      27.810  48.431  39.7370  0.00  0.00     0.000 OA
ATOM     36   O  A00 X   2      29.633  48.233  41.1600  0.00  0.00     0.000 O
ATOM     37   O  A00 X   2      27.486  47.862  42.0090  0.00  0.00     0.000 OA
ATOM     38   S  A00 X   2      28.145  48.737  41.0890  0.00  0.00     0.000 S
ATOM     39   O  A00 X   2      28.175  50.133  41.4060  0.00  0.00     0.000 OA
ENDBRANCH 24 34
BRANCH 20 40
ATOM     40  O4  A00 X   3      29.819  45.955  45.1650  0.00  0.00     0.000 O
BRANCH 40 44
ATOM     41  C1  A00 X   3      28.155  47.860  47.7590  0.00  0.00     0.000 C
ATOM     42  C2  A00 X   3      28.937  46.550  47.9940  0.00  0.00     0.000 C
ATOM     43  C3  A00 X   3      28.469  45.441  47.0170  0.00  0.00     0.000 C
ATOM     44  C4  A00 X   3      28.432  45.860  45.5530  0.00  0.00     0.000 C
ATOM     45  C5  A00 X   3      27.625  47.180  45.3970  0.00  0.00     0.000 C
ATOM     46  O5  A00 X   3      28.094  48.194  46.3440  0.00  0.00     0.000 O
ATOM     47   O  A00 X   3      29.063  44.157  47.2010  0.00  0.00     0.000 O
ATOM     49  HD  A00 X   3      29.052  44.153  46.3350  0.00  0.00     0.000 HD
BRANCH 42 49
ATOM     49   O  A00 X   3      30.338  46.855  47.8130  0.00  0.00     0.000 O
ATOM     50   O  A00 X   3      32.404  45.655  47.9520  0.00  0.00     0.000 OA
ATOM     51   O  A00 X   3      30.746  45.265  49.5910  0.00  0.00     0.000 OA
ATOM     52   O  A00 X   3      31.824  47.368  49.5570  0.00  0.00     0.000 OA
ATOM     53   S  A00 X   3      31.403  46.256  48.7760  0.00  0.00     0.000 S
ENDBRANCH 42 49
BRANCH 45 54
ATOM     54   C  A00 X   3      26.113  46.933  45.4760  0.00  0.00     0.000 C
ATOM     55   O  A00 X   3      25.328  47.794  45.1370  0.00  0.00     0.000 OA
ATOM     56   O  A00 X   3      25.674  45.869  45.8830  0.00  0.00     0.000 OA
ENDBRANCH 45 54
BRANCH 41 57
ATOM     57  O4  A00 X   4      26.867  47.837  48.4130  0.00  0.00     0.000 O
BRANCH 57 61
ATOM     58  C1  A00 X   4      24.084  51.012  49.3180  0.00  0.00     0.000 C
ATOM     59  C2  A00 X   4      23.751  50.043  48.1560  0.00  0.00     0.000 C
ATOM     60  C3  A00 X   4      24.610  48.762  48.1580  0.00  0.00     0.000 C
ATOM     61  C4  A00 X   4      26.111  49.079  48.3340  0.00  0.00     0.000 C
ATOM     62  C5  A00 X   4      26.237  49.869  49.6600  0.00  0.00     0.000 C
ATOM     63  O5  A00 X   4      25.508  51.118  49.5440  0.00  0.00     0.000 O
BRANCH 59 66
ATOM     64   N  A00 X   4      23.718  50.259  46.6980  0.00  0.00     0.000 N
ATOM     66  HD  A00 X   4      24.369  50.709  46.3460  0.00  0.00     0.000 HD
ATOM     66   O  A00 X   4      21.863  51.751  47.0630  0.00  0.00     0.000 OA
ATOM     67   S  A00 X   4      22.395  50.887  46.0560  0.00  0.00     0.000 S
ATOM     68   O  A00 X   4      22.951  51.545  44.9090  0.00  0.00     0.000 OA
ATOM     69   O  A00 X   4      21.668  49.688  45.7510  0.00  0.00     0.000 OA
ENDBRANCH 59 66
BRANCH 62 70
ATOM     70   C  A00 X   4      27.695  50.187  50.0710  0.00  0.00     0.000 C
ATOM     71   O  A00 X   4      29.862  52.821  48.8580  0.00  0.00     0.000 OA
ATOM     72   O  A00 X   4      30.248  50.512  49.1120  0.00  0.00     0.000 OA
ATOM     73   O  A00 X   4      28.076  51.459  49.5230  0.00  0.00     0.000 O
ATOM     74   O  A00 X   4      28.882  51.307  47.2570  0.00  0.00     0.000 OA
ATOM     75   S  A00 X   4      29.339  51.510  48.5950  0.00  0.00     0.000 S
ENDBRANCH 62 70
ENDBRANCH 57 61
ENDBRANCH 41 57
ENDBRANCH 40 44
ENDBRANCH 20 40
ENDBRANCH 19 23
ENDBRANCH 1 19
TORSDOF 14
ENDMDL
MODEL 91
REMARK VINA RESULT:      -4.4     21.598     27.976
ROOT
ATOM      1  C1  A00 X   1       7.065  57.187  64.5520  0.00  0.00     0.000 C
ATOM      2  C2  A00 X   1       7.517  55.956  65.3820  0.00  0.00     0.000 C
ATOM      3  C3  A00 X   1       8.766  55.184  64.8420  0.00  0.00     0.000 C
ATOM      4  C4  A00 X   1       9.168  55.504  63.3790  0.00  0.00     0.000 C
ATOM      5  C5  A00 X   1       8.001  56.071  62.5700  0.00  0.00     0.000 C
ATOM      6  O5  A00 X   1       7.661  57.308  63.2360  0.00  0.00     0.000 O
ATOM      7   O  A00 X   1       8.494  53.785  64.8910  0.00  0.00     0.000 O
ATOM      9  HD  A00 X   1       8.901  53.940  64.1420  0.00  0.00     0.000 HD
ATOM      9   O  A00 X   1      10.274  56.404  63.3270  0.00  0.00     0.000 O
ATOM     11  HD  A00 X   1      10.681  56.559  62.5780  0.00  0.00     0.000 HD
ENDROOT
BRANCH 2 11
ATOM     11   O  A00 X   1       7.789  56.408  66.7230  0.00  0.00     0.000 O
ATOM     12   O  A00 X   1       8.886  55.009  68.3370  0.00  0.00     0.000 OA
ATOM     13   O  A00 X   1       6.706  54.353  67.4800  0.00  0.00     0.000 OA
ATOM     14   O  A00 X   1       6.925  56.259  68.8870  0.00  0.00     0.000 OA
ATOM     15   S  A00 X   1       7.570  55.416  67.9160  0.00  0.00     0.000 S
ENDBRANCH 2 11
BRANCH 5 16
ATOM     16   C  A00 X   1       6.812  55.122  62.3950  0.00  0.00     0.000 C
ATOM     17   O  A00 X   1       6.990  53.932  62.5560  0.00  0.00     0.000 OA
ATOM     18   O  A00 X   1       5.699  55.517  62.1090  0.00  0.00     0.000 OA
ENDBRANCH 5 16
BRANCH 1 19
ATOM     19  O4  A00 X   2       5.624  57.326  64.4940  0.00  0.00     0.000 O
BRANCH 19 23
ATOM     20  C1  A00 X   2       5.687  61.535  63.6910  0.00  0.00     0.000 C
ATOM     21  C2  A00 X   2       5.659  61.091  65.1730  0.00  0.00     0.000 C
ATOM     22  C3  A00 X   2       6.071  59.610  65.3110  0.00  0.00     0.000 C
ATOM     23  C4  A00 X   2       5.200  58.716  64.4000  0.00  0.00     0.000 C
ATOM     24  C5  A00 X   2       5.298  59.274  62.9540  0.00  0.00     0.000 C
ATOM     25  O5  A00 X   2       4.815  60.643  62.9470  0.00  0.00     0.000 O
ATOM     26   O  A00 X   2       6.095  59.266  66.7070  0.00  0.00     0.000 O
ATOM     28  HD  A00 X   2       5.305  59.589  66.8520  0.00  0.00     0.000 HD
BRANCH 21 30
ATOM     28   N  A00 X   2       6.349  61.231  66.4590  0.00  0.00     0.000 N
ATOM     30  HD  A00 X   2       5.889  61.955  66.3410  0.00  0.00     0.000 HD
ATOM     30   O  A00 X   2       5.335  62.970  67.6440  0.00  0.00     0.000 OA
ATOM     31   S  A00 X   2       6.586  62.682  67.0390  0.00  0.00     0.000 S
ATOM     32   O  A00 X   2       7.673  62.508  67.9520  0.00  0.00     0.000 OA
ATOM     33   O  A00 X   2       6.985  63.515  65.9440  0.00  0.00     0.000 OA
ENDBRANCH 21 30
BRANCH 24 34
ATOM     34   C  A00 X   2       4.702  58.425  61.8060  0.00  0.00     0.000 C
ATOM     35   O  A00 X   2       2.121  59.603  59.5240  0.00  0.00     0.000 OA
ATOM     36   O  A00 X   2       3.479  59.004  61.3090  0.00  0.00     0.000 O
ATOM     37   O  A00 X   2       4.185  60.705  59.8680  0.00  0.00     0.000 OA
ATOM     38   S  A00 X   2       3.511  59.444  59.8000  0.00  0.00     0.000 S
ATOM     39   O  A00 X   2       4.156  58.386  59.0820  0.00  0.00     0.000 OA
ENDBRANCH 24 34
BRANCH 20 40
ATOM     40  O4  A00 X   3       7.043  61.353  63.2570  0.00  0.00     0.000 O
BRANCH 40 44
ATOM     41  C1  A00 X   3       9.959  60.410  61.3260  0.00  0.00     0.000 C
ATOM     42  C2  A00 X   3       9.959  61.444  62.4730  0.00  0.00     0.000 C
ATOM     43  C3  A00 X   3       8.841  62.498  62.2700  0.00  0.00     0.000 C
ATOM     44  C4  A00 X   3       7.461  61.913  61.9940  0.00  0.00     0.000 C
ATOM     45  C5  A00 X   3       7.542  60.889  60.8280  0.00  0.00     0.000 C
ATOM     46  O5  A00 X   3       8.616  59.920  61.0550  0.00  0.00     0.000 O
ATOM     47   O  A00 X   3       8.801  63.556  63.2260  0.00  0.00     0.000 O
ATOM     49  HD  A00 X   3       7.946  63.445  63.1470  0.00  0.00     0.000 HD
BRANCH 42 49
ATOM     49   O  A00 X   3       9.777  60.710  63.7030  0.00  0.00     0.000 O
ATOM     50   O  A00 X   3      10.677  60.795  65.9200  0.00  0.00     0.000 OA
ATOM     51   O  A00 X   3      12.138  61.082  64.0840  0.00  0.00     0.000 OA
ATOM     52   O  A00 X   3      11.162  58.957  64.4260  0.00  0.00     0.000 OA
ATOM     53   S  A00 X   3      11.001  60.360  64.5980  0.00  0.00     0.000 S
ENDBRANCH 42 49
BRANCH 45 54
ATOM     54   C  A00 X   3       7.637  61.586  59.4650  0.00  0.00     0.000 C
ATOM     55   O  A00 X   3       7.863  62.777  59.3940  0.00  0.00     0.000 OA
ATOM     56   O  A00 X   3       7.485  60.958  58.4290  0.00  0.00     0.000 OA
ENDBRANCH 45 54
BRANCH 41 57
ATOM     57  O4  A00 X   4      10.648  60.909  60.1570  0.00  0.00     0.000 O
BRANCH 57 61
ATOM     58  C1  A00 X   4      13.038  58.994  57.1140  0.00  0.00     0.000 C
ATOM     59  C2  A00 X   4      11.502  59.051  56.9240  0.00  0.00     0.000 C
ATOM     60  C3  A00 X   4      10.802  60.052  57.8650  0.00  0.00     0.000 C
ATOM     61  C4  A00 X   4      11.273  59.890  59.3270  0.00  0.00     0.000 C
ATOM     62  C5  A00 X   4      12.811  60.078  59.3130  0.00  0.00     0.000 C
ATOM     63  O5  A00 X   4      13.413  59.030  58.5110  0.00  0.00     0.000 O
BRANCH 59 66
ATOM     64   N  A00 X   4      10.589  59.145  55.7700  0.00  0.00     0.000 N
ATOM     66  HD  A00 X   4       9.743  59.036  55.9200  0.00  0.00     0.000 HD
ATOM     66   O  A00 X   4      11.508  57.056  55.0000  0.00  0.00     0.000 OA
ATOM     67   S  A00 X   4      10.895  58.241  54.4860  0.00  0.00     0.000 S
ATOM     68   O  A00 X   4       9.570  58.074  53.9660  0.00  0.00     0.000 OA
ATOM     69   O  A00 X   4      11.715  59.145  53.7300  0.00  0.00     0.000 OA
ENDBRANCH 59 66
BRANCH 62 70
ATOM     70   C  A00 X   4      13.463  60.059  60.7160  0.00  0.00     0.000 C
ATOM     71   O  A00 X   4      15.041  62.777  62.5130  0.00  0.00     0.000 OA
ATOM     72   O  A00 X   4      15.781  60.582  62.0920  0.00  0.00     0.000 OA
ATOM     73   O  A00 X   4      13.737  61.407  61.1300  0.00  0.00     0.000 O
ATOM     74   O  A00 X   4      15.843  62.236  60.3040  0.00  0.00     0.000 OA
ATOM     75   S  A00 X   4      15.216  61.774  61.5000  0.00  0.00     0.000 S
ENDBRANCH 62 70
ENDBRANCH 57 61
ENDBRANCH 41 57
ENDBRANCH 40 44
ENDBRANCH 20 40
ENDBRANCH 19 23
ENDBRANCH 1 19
TORSDOF 14
ENDMDL
MODEL 92
REMARK VINA RESULT:      -4.4     28.146     33.153
ROOT
ATOM      1  C1  A00 X   1      29.550  44.175  56.1930  0.00  0.00     0.000 C
ATOM      2  C2  A00 X   1      29.934  45.194  57.2980  0.00  0.00     0.000 C
ATOM      3  C3  A00 X   1      30.647  46.499  56.8120  0.00  0.00     0.000 C
ATOM      4  C4  A00 X   1      31.207  46.456  55.3670  0.00  0.00     0.000 C
ATOM      5  C5  A00 X   1      31.450  45.026  54.8850  0.00  0.00     0.000 C
ATOM      6  O5  A00 X   1      30.143  44.409  54.8920  0.00  0.00     0.000 O
ATOM      7   O  A00 X   1      31.756  46.760  57.6690  0.00  0.00     0.000 O
ATOM      9  HD  A00 X   1      32.015  46.924  56.8590  0.00  0.00     0.000 HD
ATOM      9   O  A00 X   1      30.345  47.134  54.4530  0.00  0.00     0.000 O
ATOM     11  HD  A00 X   1      30.604  47.297  53.6430  0.00  0.00     0.000 HD
ENDROOT
BRANCH 2 11
ATOM     11   O  A00 X   1      28.729  45.552  58.0030  0.00  0.00     0.000 O
ATOM     12   O  A00 X   1      26.551  45.201  57.0540  0.00  0.00     0.000 OA
ATOM     13   O  A00 X   1      28.079  46.760  55.9810  0.00  0.00     0.000 OA
ATOM     14   O  A00 X   1      27.142  47.262  58.1090  0.00  0.00     0.000 OA
ATOM     15   S  A00 X   1      27.556  46.222  57.2070  0.00  0.00     0.000 S
ENDBRANCH 2 11
BRANCH 5 16
ATOM     16   C  A00 X   1      32.501  44.244  55.6790  0.00  0.00     0.000 C
ATOM     17   O  A00 X   1      32.570  43.042  55.5260  0.00  0.00     0.000 OA
ATOM     18   O  A00 X   1      33.271  44.784  56.4490  0.00  0.00     0.000 OA
ENDBRANCH 5 16
BRANCH 1 19
ATOM     19  O4  A00 X   2      29.724  42.799  56.6130  0.00  0.00     0.000 O
BRANCH 19 23
ATOM     20  C1  A00 X   2      28.557  40.787  60.2120  0.00  0.00     0.000 C
ATOM     21  C2  A00 X   2      27.462  41.563  59.4400  0.00  0.00     0.000 C
ATOM     22  C3  A00 X   2      27.911  41.852  57.9930  0.00  0.00     0.000 C
ATOM     23  C4  A00 X   2      29.278  42.572  57.9810  0.00  0.00     0.000 C
ATOM     24  C5  A00 X   2      30.277  41.708  58.7980  0.00  0.00     0.000 C
ATOM     25  O5  A00 X   2      29.777  41.572  60.1540  0.00  0.00     0.000 O
ATOM     26   O  A00 X   2      26.837  42.511  57.3000  0.00  0.00     0.000 O
ATOM     28  HD  A00 X   2      26.729  43.100  57.9250  0.00  0.00     0.000 HD
BRANCH 21 30
ATOM     28   N  A00 X   2      26.840  41.831  60.7410  0.00  0.00     0.000 N
ATOM     30  HD  A00 X   2      26.258  42.044  60.1360  0.00  0.00     0.000 HD
ATOM     30   O  A00 X   2      24.539  42.062  60.4120  0.00  0.00     0.000 OA
ATOM     31   S  A00 X   2      25.643  42.861  60.8110  0.00  0.00     0.000 S
ATOM     32   O  A00 X   2      25.628  43.271  62.1810  0.00  0.00     0.000 OA
ATOM     33   O  A00 X   2      25.984  43.965  59.9650  0.00  0.00     0.000 OA
ENDBRANCH 21 30
BRANCH 24 34
ATOM     34   C  A00 X   2      31.775  42.089  58.7490  0.00  0.00     0.000 C
ATOM     35   O  A00 X   2      33.123  45.231  60.0020  0.00  0.00     0.000 OA
ATOM     36   O  A00 X   2      31.963  43.499  58.9800  0.00  0.00     0.000 O
ATOM     37   O  A00 X   2      31.838  43.732  61.3040  0.00  0.00     0.000 OA
ATOM     38   S  A00 X   2      32.805  43.864  60.2570  0.00  0.00     0.000 S
ATOM     39   O  A00 X   2      33.925  42.973  60.2720  0.00  0.00     0.000 OA
ENDBRANCH 24 34
BRANCH 20 40
ATOM     40  O4  A00 X   3      28.742  39.559  59.4930  0.00  0.00     0.000 O
BRANCH 40 44
ATOM     41  C1  A00 X   3      31.452  37.436  58.3650  0.00  0.00     0.000 C
ATOM     42  C2  A00 X   3      29.970  37.254  57.9720  0.00  0.00     0.000 C
ATOM     43  C3  A00 X   3      29.059  37.246  59.2270  0.00  0.00     0.000 C
ATOM     44  C4  A00 X   3      29.286  38.412  60.1810  0.00  0.00     0.000 C
ATOM     45  C5  A00 X   3      30.796  38.526  60.5330  0.00  0.00     0.000 C
ATOM     46  O5  A00 X   3      31.617  38.520  59.3210  0.00  0.00     0.000 O
ATOM     47   O  A00 X   3      27.675  36.998  58.9910  0.00  0.00     0.000 O
ATOM     49  HD  A00 X   3      27.578  37.600  59.6060  0.00  0.00     0.000 HD
BRANCH 42 49
ATOM     49   O  A00 X   3      29.632  38.340  57.0820  0.00  0.00     0.000 O
ATOM     50   O  A00 X   3      27.675  39.085  55.9220  0.00  0.00     0.000 OA
ATOM     51   O  A00 X   3      28.148  36.770  55.9920  0.00  0.00     0.000 OA
ATOM     52   O  A00 X   3      29.579  38.175  54.7400  0.00  0.00     0.000 OA
ATOM     53   S  A00 X   3      28.703  38.094  55.8580  0.00  0.00     0.000 S
ENDBRANCH 42 49
BRANCH 45 54
ATOM     54   C  A00 X   3      31.222  37.467  61.5560  0.00  0.00     0.000 C
ATOM     55   O  A00 X   3      30.493  36.532  61.8190  0.00  0.00     0.000 OA
ATOM     56   O  A00 X   3      32.300  37.544  62.1250  0.00  0.00     0.000 OA
ENDBRANCH 45 54
BRANCH 41 57
ATOM     57  O4  A00 X   4      32.050  36.188  58.7840  0.00  0.00     0.000 O
BRANCH 57 61
ATOM     58  C1  A00 X   4      36.180  34.935  58.8640  0.00  0.00     0.000 C
ATOM     59  C2  A00 X   4      35.466  35.219  60.2080  0.00  0.00     0.000 C
ATOM     60  C3  A00 X   4      33.931  35.303  60.0830  0.00  0.00     0.000 C
ATOM     61  C4  A00 X   4      33.500  36.209  58.9100  0.00  0.00     0.000 C
ATOM     62  C5  A00 X   4      34.158  35.618  57.6380  0.00  0.00     0.000 C
ATOM     63  O5  A00 X   4      35.600  35.685  57.7720  0.00  0.00     0.000 O
BRANCH 59 66
ATOM     64   N  A00 X   4      35.862  36.515  60.7880  0.00  0.00     0.000 N
ATOM     66  HD  A00 X   4      36.098  37.143  60.2400  0.00  0.00     0.000 HD
ATOM     66   O  A00 X   4      37.846  35.426  61.6110  0.00  0.00     0.000 OA
ATOM     67   S  A00 X   4      36.986  36.523  61.9260  0.00  0.00     0.000 S
ATOM     68   O  A00 X   4      37.549  37.827  61.7250  0.00  0.00     0.000 OA
ATOM     69   O  A00 X   4      36.162  36.413  63.0970  0.00  0.00     0.000 OA
ENDBRANCH 59 66
BRANCH 62 70
ATOM     70   C  A00 X   4      33.752  36.332  56.3270  0.00  0.00     0.000 C
ATOM     71   O  A00 X   4      35.009  39.441  54.9630  0.00  0.00     0.000 OA
ATOM     72   O  A00 X   4      32.801  38.690  55.2870  0.00  0.00     0.000 OA
ATOM     73   O  A00 X   4      34.677  37.399  56.0610  0.00  0.00     0.000 O
ATOM     74   O  A00 X   4      34.109  39.445  57.2000  0.00  0.00     0.000 OA
ATOM     75   S  A00 X   4      34.100  38.848  55.9030  0.00  0.00     0.000 S
ENDBRANCH 62 70
ENDBRANCH 57 61
ENDBRANCH 41 57
ENDBRANCH 40 44
ENDBRANCH 20 40
ENDBRANCH 19 23
ENDBRANCH 1 19
TORSDOF 14
ENDMDL
MODEL 93
REMARK VINA RESULT:      -4.3     30.946     35.538
ROOT
ATOM      1  C1  A00 X   1      25.122  51.668  56.0850  0.00  0.00     0.000 C
ATOM      2  C2  A00 X   1      25.385  52.586  57.3090  0.00  0.00     0.000 C
ATOM      3  C3  A00 X   1      25.242  51.915  58.7140  0.00  0.00     0.000 C
ATOM      4  C4  A00 X   1      24.511  50.548  58.7310  0.00  0.00     0.000 C
ATOM      5  C5  A00 X   1      23.605  50.363  57.5140  0.00  0.00     0.000 C
ATOM      6  O5  A00 X   1      24.502  50.392  56.3810  0.00  0.00     0.000 O
ATOM      7   O  A00 X   1      24.495  52.784  59.5630  0.00  0.00     0.000 O
ATOM      9  HD  A00 X   1      24.216  51.978  59.7130  0.00  0.00     0.000 HD
ATOM      9   O  A00 X   1      25.435  49.463  58.8150  0.00  0.00     0.000 O
ATOM     11  HD  A00 X   1      25.155  48.657  58.9650  0.00  0.00     0.000 HD
ENDROOT
BRANCH 2 11
ATOM     11   O  A00 X   1      26.716  53.122  57.1770  0.00  0.00     0.000 O
ATOM     12   O  A00 X   1      27.775  54.342  58.9530  0.00  0.00     0.000 OA
ATOM     13   O  A00 X   1      25.775  55.253  57.9120  0.00  0.00     0.000 OA
ATOM     14   O  A00 X   1      27.815  55.125  56.6950  0.00  0.00     0.000 OA
ATOM     15   S  A00 X   1      27.017  54.551  57.7460  0.00  0.00     0.000 S
ENDBRANCH 2 11
BRANCH 5 16
ATOM     16   C  A00 X   1      22.450  51.363  57.4080  0.00  0.00     0.000 C
ATOM     17   O  A00 X   1      21.822  51.418  56.3710  0.00  0.00     0.000 OA
ATOM     18   O  A00 X   1      22.137  52.097  58.3240  0.00  0.00     0.000 OA
ENDBRANCH 5 16
BRANCH 1 19
ATOM     19  O4  A00 X   2      24.435  52.352  55.0080  0.00  0.00     0.000 O
BRANCH 19 23
ATOM     20  C1  A00 X   2      25.724  53.352  51.0460  0.00  0.00     0.000 C
ATOM     21  C2  A00 X   2      25.904  51.885  51.5070  0.00  0.00     0.000 C
ATOM     22  C3  A00 X   2      25.026  51.585  52.7390  0.00  0.00     0.000 C
ATOM     23  C4  A00 X   2      25.301  52.606  53.8650  0.00  0.00     0.000 C
ATOM     24  C5  A00 X   2      25.106  54.029  53.2740  0.00  0.00     0.000 C
ATOM     25  O5  A00 X   2      26.036  54.210  52.1750  0.00  0.00     0.000 O
ATOM     26   O  A00 X   2      25.175  50.197  53.0850  0.00  0.00     0.000 O
ATOM     28  HD  A00 X   2      26.041  50.237  53.0770  0.00  0.00     0.000 HD
BRANCH 21 30
ATOM     28   N  A00 X   2      27.132  51.830  50.7070  0.00  0.00     0.000 N
ATOM     30  HD  A00 X   2      26.920  51.012  50.8970  0.00  0.00     0.000 HD
ATOM     30   O  A00 X   2      27.400  49.640  49.9370  0.00  0.00     0.000 OA
ATOM     31   S  A00 X   2      28.050  50.548  50.8150  0.00  0.00     0.000 S
ATOM     32   O  A00 X   2      29.329  51.009  50.3690  0.00  0.00     0.000 OA
ATOM     33   O  A00 X   2      28.108  50.183  52.1990  0.00  0.00     0.000 OA
ENDBRANCH 21 30
BRANCH 24 34
ATOM     34   C  A00 X   2      25.098  55.227  54.2520  0.00  0.00     0.000 C
ATOM     35   O  A00 X   2      22.856  58.082  53.9650  0.00  0.00     0.000 OA
ATOM     36   O  A00 X   2      24.375  56.347  53.7020  0.00  0.00     0.000 O
ATOM     37   O  A00 X   2      22.126  55.836  54.0920  0.00  0.00     0.000 OA
ATOM     38   S  A00 X   2      23.104  56.790  54.5160  0.00  0.00     0.000 S
ATOM     39   O  A00 X   2      23.484  56.782  55.8960  0.00  0.00     0.000 OA
ENDBRANCH 24 34
BRANCH 20 40
ATOM     40  O4  A00 X   3      24.335  53.485  50.7110  0.00  0.00     0.000 O
BRANCH 40 44
ATOM     41  C1  A00 X   3      21.006  54.123  49.4330  0.00  0.00     0.000 C
ATOM     42  C2  A00 X   3      22.114  53.371  48.6650  0.00  0.00     0.000 C
ATOM     43  C3  A00 X   3      23.434  54.184  48.6570  0.00  0.00     0.000 C
ATOM     44  C4  A00 X   3      23.884  54.674  50.0280  0.00  0.00     0.000 C
ATOM     45  C5  A00 X   3      22.719  55.423  50.7340  0.00  0.00     0.000 C
ATOM     46  O5  A00 X   3      21.492  54.624  50.7090  0.00  0.00     0.000 O
ATOM     47   O  A00 X   3      24.506  53.625  47.9010  0.00  0.00     0.000 O
ATOM     49  HD  A00 X   3      24.978  53.917  48.5650  0.00  0.00     0.000 HD
BRANCH 42 49
ATOM     49   O  A00 X   3      22.286  52.092  49.3150  0.00  0.00     0.000 O
ATOM     50   O  A00 X   3      23.682  50.170  49.0150  0.00  0.00     0.000 OA
ATOM     51   O  A00 X   3      22.758  51.218  47.1080  0.00  0.00     0.000 OA
ATOM     52   O  A00 X   3      21.303  50.087  48.5880  0.00  0.00     0.000 OA
ATOM     53   S  A00 X   3      22.524  50.807  48.4690  0.00  0.00     0.000 S
ENDBRANCH 42 49
BRANCH 45 54
ATOM     54   C  A00 X   3      22.530  56.837  50.1720  0.00  0.00     0.000 C
ATOM     55   O  A00 X   3      21.837  57.647  50.7530  0.00  0.00     0.000 OA
ATOM     56   O  A00 X   3      23.071  57.173  49.1300  0.00  0.00     0.000 OA
ENDBRANCH 45 54
BRANCH 41 57
ATOM     57  O4  A00 X   4      20.374  55.129  48.6100  0.00  0.00     0.000 O
BRANCH 57 61
ATOM     58  C1  A00 X   4      16.338  56.649  48.4100  0.00  0.00     0.000 C
ATOM     59  C2  A00 X   4      17.125  56.806  49.7350  0.00  0.00     0.000 C
ATOM     60  C3  A00 X   4      18.640  56.563  49.5830  0.00  0.00     0.000 C
ATOM     61  C4  A00 X   4      18.937  55.268  48.7970  0.00  0.00     0.000 C
ATOM     62  C5  A00 X   4      18.230  55.417  47.4270  0.00  0.00     0.000 C
ATOM     63  O5  A00 X   4      16.798  55.516  47.6380  0.00  0.00     0.000 O
BRANCH 59 66
ATOM     64   N  A00 X   4      17.171  56.704  51.2050  0.00  0.00     0.000 N
ATOM     66  HD  A00 X   4      17.256  55.913  51.5480  0.00  0.00     0.000 HD
ATOM     66   O  A00 X   4      14.837  57.300  51.2190  0.00  0.00     0.000 OA
ATOM     67   S  A00 X   4      15.998  57.390  52.0490  0.00  0.00     0.000 S
ATOM     68   O  A00 X   4      15.991  56.551  53.2120  0.00  0.00     0.000 OA
ATOM     69   O  A00 X   4      16.568  58.690  52.2640  0.00  0.00     0.000 OA
ENDBRANCH 59 66
BRANCH 62 70
ATOM     70   C  A00 X   4      18.503  54.254  46.4450  0.00  0.00     0.000 C
ATOM     71   O  A00 X   4      17.076  50.927  46.4260  0.00  0.00     0.000 OA
ATOM     72   O  A00 X   4      19.316  51.636  46.2770  0.00  0.00     0.000 OA
ATOM     73   O  A00 X   4      17.540  53.211  46.6640  0.00  0.00     0.000 O
ATOM     74   O  A00 X   4      18.174  51.698  48.4290  0.00  0.00     0.000 OA
ATOM     75   S  A00 X   4      18.076  51.777  47.0070  0.00  0.00     0.000 S
ENDBRANCH 62 70
ENDBRANCH 57 61
ENDBRANCH 41 57
ENDBRANCH 40 44
ENDBRANCH 20 40
ENDBRANCH 19 23
ENDBRANCH 1 19
TORSDOF 14
ENDMDL
MODEL 94
REMARK VINA RESULT:      -4.3     22.246     29.074
ROOT
ATOM      1  C1  A00 X   1       9.159  63.814  62.1230  0.00  0.00     0.000 C
ATOM      2  C2  A00 X   1      10.133  64.369  63.1960  0.00  0.00     0.000 C
ATOM      3  C3  A00 X   1       9.496  64.742  64.5750  0.00  0.00     0.000 C
ATOM      4  C4  A00 X   1       7.950  64.862  64.5870  0.00  0.00     0.000 C
ATOM      5  C5  A00 X   1       7.382  65.134  63.1940  0.00  0.00     0.000 C
ATOM      6  O5  A00 X   1       7.748  63.973  62.4160  0.00  0.00     0.000 O
ATOM      7   O  A00 X   1      10.004  66.009  64.9860  0.00  0.00     0.000 O
ATOM      9  HD  A00 X   1       9.158  66.000  65.1720  0.00  0.00     0.000 HD
ATOM      9   O  A00 X   1       7.340  63.695  65.1380  0.00  0.00     0.000 O
ATOM     11  HD  A00 X   1       6.494  63.687  65.3240  0.00  0.00     0.000 HD
ENDROOT
BRANCH 2 11
ATOM     11   O  A00 X   1      11.163  63.384  63.4050  0.00  0.00     0.000 O
ATOM     12   O  A00 X   1      13.029  63.786  64.8620  0.00  0.00     0.000 OA
ATOM     13   O  A00 X   1      12.761  65.150  62.8650  0.00  0.00     0.000 OA
ATOM     14   O  A00 X   1      13.317  62.844  62.6840  0.00  0.00     0.000 OA
ATOM     15   S  A00 X   1      12.657  63.851  63.4710  0.00  0.00     0.000 S
ENDBRANCH 2 11
BRANCH 5 16
ATOM     16   C  A00 X   1       7.820  66.459  62.5630  0.00  0.00     0.000 C
ATOM     17   O  A00 X   1       8.288  67.318  63.2810  0.00  0.00     0.000 OA
ATOM     18   O  A00 X   1       7.722  66.677  61.3710  0.00  0.00     0.000 OA
ENDBRANCH 5 16
BRANCH 1 19
ATOM     19  O4  A00 X   2       9.476  64.273  60.7860  0.00  0.00     0.000 O
BRANCH 19 23
ATOM     20  C1  A00 X   2       8.421  60.561  58.9230  0.00  0.00     0.000 C
ATOM     21  C2  A00 X   2       9.917  60.804  59.2360  0.00  0.00     0.000 C
ATOM     22  C3  A00 X   2      10.086  61.940  60.2660  0.00  0.00     0.000 C
ATOM     23  C4  A00 X   2       9.358  63.217  59.7900  0.00  0.00     0.000 C
ATOM     24  C5  A00 X   2       7.881  62.839  59.4930  0.00  0.00     0.000 C
ATOM     25  O5  A00 X   2       7.858  61.818  58.4620  0.00  0.00     0.000 O
ATOM     26   O  A00 X   2      11.484  62.080  60.5730  0.00  0.00     0.000 O
ATOM     28  HD  A00 X   2      11.716  62.112  59.7400  0.00  0.00     0.000 HD
BRANCH 21 30
ATOM     28   N  A00 X   2      10.233  60.029  58.0320  0.00  0.00     0.000 N
ATOM     30  HD  A00 X   2      10.969  60.102  58.4830  0.00  0.00     0.000 HD
ATOM     30   O  A00 X   2      12.292  58.976  58.3640  0.00  0.00     0.000 OA
ATOM     31   S  A00 X   2      11.732  59.981  57.5320  0.00  0.00     0.000 S
ATOM     32   O  A00 X   2      11.617  59.627  56.1510  0.00  0.00     0.000 OA
ATOM     33   O  A00 X   2      12.265  61.304  57.6640  0.00  0.00     0.000 OA
ENDBRANCH 21 30
BRANCH 24 34
ATOM     34   C  A00 X   2       6.879  63.985  59.2200  0.00  0.00     0.000 C
ATOM     35   O  A00 X   2       3.266  63.656  59.5360  0.00  0.00     0.000 OA
ATOM     36   O  A00 X   2       5.535  63.482  59.0780  0.00  0.00     0.000 O
ATOM     37   O  A00 X   2       4.794  63.172  61.2750  0.00  0.00     0.000 OA
ATOM     38   S  A00 X   2       4.507  64.004  60.1470  0.00  0.00     0.000 S
ATOM     39   O  A00 X   2       4.743  65.410  60.2830  0.00  0.00     0.000 OA
ENDBRANCH 24 34
BRANCH 20 40
ATOM     40  O4  A00 X   3       7.818  60.195  60.1730  0.00  0.00     0.000 O
BRANCH 40 44
ATOM     41  C1  A00 X   3       6.467  58.348  62.9810  0.00  0.00     0.000 C
ATOM     42  C2  A00 X   3       7.578  57.832  62.0410  0.00  0.00     0.000 C
ATOM     43  C3  A00 X   3       7.158  57.973  60.5550  0.00  0.00     0.000 C
ATOM     44  C4  A00 X   3       6.644  59.355  60.1710  0.00  0.00     0.000 C
ATOM     45  C5  A00 X   3       5.528  59.801  61.1570  0.00  0.00     0.000 C
ATOM     46  O5  A00 X   3       5.964  59.641  62.5460  0.00  0.00     0.000 O
ATOM     47   O  A00 X   3       8.073  57.447  59.5960  0.00  0.00     0.000 O
ATOM     49  HD  A00 X   3       7.840  58.154  59.1530  0.00  0.00     0.000 HD
BRANCH 42 49
ATOM     49   O  A00 X   3       8.767  58.601  62.3290  0.00  0.00     0.000 O
ATOM     50   O  A00 X   3      11.044  58.611  61.5910  0.00  0.00     0.000 OA
ATOM     51   O  A00 X   3       9.985  56.536  61.9960  0.00  0.00     0.000 OA
ATOM     52   O  A00 X   3      10.443  57.946  63.8370  0.00  0.00     0.000 OA
ATOM     53   S  A00 X   3      10.149  57.896  62.4460  0.00  0.00     0.000 S
ENDBRANCH 42 49
BRANCH 45 54
ATOM     54   C  A00 X   3       4.195  59.104  60.8600  0.00  0.00     0.000 C
ATOM     55   O  A00 X   3       3.150  59.570  61.2640  0.00  0.00     0.000 OA
ATOM     56   O  A00 X   3       4.161  58.069  60.2120  0.00  0.00     0.000 OA
ENDBRANCH 45 54
BRANCH 41 57
ATOM     57  O4  A00 X   4       5.436  57.355  63.1850  0.00  0.00     0.000 O
BRANCH 57 61
ATOM     58  C1  A00 X   4       2.626  56.634  66.3810  0.00  0.00     0.000 C
ATOM     59  C2  A00 X   4       2.280  57.706  65.3180  0.00  0.00     0.000 C
ATOM     60  C3  A00 X   4       3.160  57.625  64.0540  0.00  0.00     0.000 C
ATOM     61  C4  A00 X   4       4.659  57.513  64.4060  0.00  0.00     0.000 C
ATOM     62  C5  A00 X   4       4.805  56.256  65.3000  0.00  0.00     0.000 C
ATOM     63  O5  A00 X   4       4.053  56.453  66.5250  0.00  0.00     0.000 O
BRANCH 59 66
ATOM     64   N  A00 X   4       2.624  58.876  66.1470  0.00  0.00     0.000 N
ATOM     66  HD  A00 X   4       3.141  58.745  66.8280  0.00  0.00     0.000 HD
ATOM     66   O  A00 X   4       0.339  58.883  66.9070  0.00  0.00     0.000 OA
ATOM     67   S  A00 X   4       1.431  59.783  66.7080  0.00  0.00     0.000 S
ATOM     68   O  A00 X   4       2.036  60.293  67.9040  0.00  0.00     0.000 OA
ATOM     69   O  A00 X   4       1.323  60.744  65.6480  0.00  0.00     0.000 OA
ENDBRANCH 59 66
BRANCH 62 70
ATOM     70   C  A00 X   4       6.267  55.910  65.6700  0.00  0.00     0.000 C
ATOM     71   O  A00 X   4       7.483  53.347  67.9190  0.00  0.00     0.000 OA
ATOM     72   O  A00 X   4       8.018  55.635  67.7680  0.00  0.00     0.000 OA
ATOM     73   O  A00 X   4       6.291  54.672  66.3980  0.00  0.00     0.000 O
ATOM     74   O  A00 X   4       5.897  54.958  68.7580  0.00  0.00     0.000 OA
ATOM     75   S  A00 X   4       6.940  54.673  67.8260  0.00  0.00     0.000 S
ENDBRANCH 62 70
ENDBRANCH 57 61
ENDBRANCH 41 57
ENDBRANCH 40 44
ENDBRANCH 20 40
ENDBRANCH 19 23
ENDBRANCH 1 19
TORSDOF 14
ENDMDL
MODEL 95
REMARK VINA RESULT:      -4.3     22.230     28.951
ROOT
ATOM      1  C1  A00 X   1      10.437  63.035  62.2960  0.00  0.00     0.000 C
ATOM      2  C2  A00 X   1      11.394  63.275  63.4940  0.00  0.00     0.000 C
ATOM      3  C3  A00 X   1      10.799  62.999  64.9150  0.00  0.00     0.000 C
ATOM      4  C4  A00 X   1       9.255  62.881  64.9820  0.00  0.00     0.000 C
ATOM      5  C5  A00 X   1       8.571  63.576  63.8040  0.00  0.00     0.000 C
ATOM      6  O5  A00 X   1       9.039  62.865  62.6360  0.00  0.00     0.000 O
ATOM      7   O  A00 X   1      11.161  64.074  65.7790  0.00  0.00     0.000 O
ATOM      9  HD  A00 X   1      10.337  63.873  65.9520  0.00  0.00     0.000 HD
ATOM      9   O  A00 X   1       8.838  61.518  65.0450  0.00  0.00     0.000 O
ATOM     11  HD  A00 X   1       8.014  61.317  65.2180  0.00  0.00     0.000 HD
ENDROOT
BRANCH 2 11
ATOM     11   O  A00 X   1      12.555  62.444  63.3020  0.00  0.00     0.000 O
ATOM     12   O  A00 X   1      14.213  62.161  65.0160  0.00  0.00     0.000 OA
ATOM     13   O  A00 X   1      13.873  64.363  64.0400  0.00  0.00     0.000 OA
ATOM     14   O  A00 X   1      14.817  62.605  62.7460  0.00  0.00     0.000 OA
ATOM     15   S  A00 X   1      13.942  62.942  63.8360  0.00  0.00     0.000 S
ENDBRANCH 2 11
BRANCH 5 16
ATOM     16   C  A00 X   1       8.793  65.091  63.7290  0.00  0.00     0.000 C
ATOM     17   O  A00 X   1       9.226  65.664  64.7070  0.00  0.00     0.000 OA
ATOM     18   O  A00 X   1       8.558  65.734  62.7260  0.00  0.00     0.000 OA
ENDBRANCH 5 16
BRANCH 1 19
ATOM     19  O4  A00 X   2      10.608  64.009  61.2370  0.00  0.00     0.000 O
BRANCH 19 23
ATOM     20  C1  A00 X   2      10.202  61.120  58.0980  0.00  0.00     0.000 C
ATOM     21  C2  A00 X   2      11.636  61.528  58.5120  0.00  0.00     0.000 C
ATOM     22  C3  A00 X   2      11.635  62.211  59.8960  0.00  0.00     0.000 C
ATOM     23  C4  A00 X   2      10.645  63.397  59.9160  0.00  0.00     0.000 C
ATOM     24  C5  A00 X   2       9.257  62.863  59.4670  0.00  0.00     0.000 C
ATOM     25  O5  A00 X   2       9.378  62.315  58.1280  0.00  0.00     0.000 O
ATOM     26   O  A00 X   2      12.993  62.508  60.2640  0.00  0.00     0.000 O
ATOM     28  HD  A00 X   2      13.167  62.893  59.5080  0.00  0.00     0.000 HD
BRANCH 21 30
ATOM     28   N  A00 X   2      12.993  61.195  58.9580  0.00  0.00     0.000 N
ATOM     30  HD  A00 X   2      12.918  60.906  58.1450  0.00  0.00     0.000 HD
ATOM     30   O  A00 X   2      14.271  60.676  57.0730  0.00  0.00     0.000 OA
ATOM     31   S  A00 X   2      13.765  60.025  58.2280  0.00  0.00     0.000 S
ATOM     32   O  A00 X   2      14.756  59.628  59.1800  0.00  0.00     0.000 OA
ATOM     33   O  A00 X   2      12.826  58.964  58.0170  0.00  0.00     0.000 OA
ENDBRANCH 21 30
BRANCH 24 34
ATOM     34   C  A00 X   2       8.035  63.800  59.6210  0.00  0.00     0.000 C
ATOM     35   O  A00 X   2       4.616  62.635  60.0780  0.00  0.00     0.000 OA
ATOM     36   O  A00 X   2       6.799  63.082  59.4300  0.00  0.00     0.000 O
ATOM     37   O  A00 X   2       6.419  62.023  61.4810  0.00  0.00     0.000 OA
ATOM     38   S  A00 X   2       5.840  63.055  60.6760  0.00  0.00     0.000 S
ATOM     39   O  A00 X   2       5.831  64.385  61.2090  0.00  0.00     0.000 OA
ENDBRANCH 24 34
BRANCH 20 40
ATOM     40  O4  A00 X   3       9.753  60.202  59.1070  0.00  0.00     0.000 O
BRANCH 40 44
ATOM     41  C1  A00 X   3       8.143  57.912  61.4060  0.00  0.00     0.000 C
ATOM     42  C2  A00 X   3       9.415  57.592  60.5900  0.00  0.00     0.000 C
ATOM     43  C3  A00 X   3       9.208  57.917  59.0880  0.00  0.00     0.000 C
ATOM     44  C4  A00 X   3       8.656  59.311  58.8130  0.00  0.00     0.000 C
ATOM     45  C5  A00 X   3       7.379  59.555  59.6640  0.00  0.00     0.000 C
ATOM     46  O5  A00 X   3       7.616  59.225  61.0710  0.00  0.00     0.000 O
ATOM     47   O  A00 X   3      10.290  57.580  58.2230  0.00  0.00     0.000 O
ATOM     49  HD  A00 X   3      10.074  58.328  57.8450  0.00  0.00     0.000 HD
BRANCH 42 49
ATOM     49   O  A00 X   3      10.489  58.373  61.1570  0.00  0.00     0.000 O
ATOM     50   O  A00 X   3      12.851  58.116  61.4510  0.00  0.00     0.000 OA
ATOM     51   O  A00 X   3      11.441  56.260  61.8530  0.00  0.00     0.000 OA
ATOM     52   O  A00 X   3      11.330  58.100  63.3320  0.00  0.00     0.000 OA
ATOM     53   S  A00 X   3      11.602  57.685  61.9990  0.00  0.00     0.000 S
ENDBRANCH 42 49
BRANCH 45 54
ATOM     54   C  A00 X   3       6.158  58.839  59.0740  0.00  0.00     0.000 C
ATOM     55   O  A00 X   3       5.053  59.006  59.5490  0.00  0.00     0.000 OA
ATOM     56   O  A00 X   3       6.276  58.087  58.1190  0.00  0.00     0.000 OA
ENDBRANCH 45 54
BRANCH 41 57
ATOM     57  O4  A00 X   4       7.169  56.848  61.3150  0.00  0.00     0.000 O
BRANCH 57 61
ATOM     58  C1  A00 X   4       4.192  55.333  64.0500  0.00  0.00     0.000 C
ATOM     59  C2  A00 X   4       3.853  56.587  63.2060  0.00  0.00     0.000 C
ATOM     60  C3  A00 X   4       4.824  56.817  62.0300  0.00  0.00     0.000 C
ATOM     61  C4  A00 X   4       6.299  56.707  62.4740  0.00  0.00     0.000 C
ATOM     62  C5  A00 X   4       6.462  55.299  63.0990  0.00  0.00     0.000 C
ATOM     63  O5  A00 X   4       5.614  55.196  64.2710  0.00  0.00     0.000 O
BRANCH 59 66
ATOM     64   N  A00 X   4       4.112  57.300  64.4700  0.00  0.00     0.000 N
ATOM     66  HD  A00 X   4       4.489  56.855  65.1110  0.00  0.00     0.000 HD
ATOM     66   O  A00 X   4       1.732  57.307  64.8370  0.00  0.00     0.000 OA
ATOM     67   S  A00 X   4       2.896  58.068  65.1700  0.00  0.00     0.000 S
ATOM     68   O  A00 X   4       3.304  58.003  66.5420  0.00  0.00     0.000 OA
ATOM     69   O  A00 X   4       3.040  59.366  64.5740  0.00  0.00     0.000 OA
ENDBRANCH 59 66
BRANCH 62 70
ATOM     70   C  A00 X   4       7.913  54.954  63.5090  0.00  0.00     0.000 C
ATOM     71   O  A00 X   4       9.282  54.526  66.8340  0.00  0.00     0.000 OA
ATOM     72   O  A00 X   4      10.054  55.797  65.0080  0.00  0.00     0.000 OA
ATOM     73   O  A00 X   4       7.948  54.640  64.9110  0.00  0.00     0.000 O
ATOM     74   O  A00 X   4       8.153  56.591  66.3090  0.00  0.00     0.000 OA
ATOM     75   S  A00 X   4       8.906  55.478  65.8270  0.00  0.00     0.000 S
ENDBRANCH 62 70
ENDBRANCH 57 61
ENDBRANCH 41 57
ENDBRANCH 40 44
ENDBRANCH 20 40
ENDBRANCH 19 23
ENDBRANCH 1 19
TORSDOF 14
ENDMDL
MODEL 96
REMARK VINA RESULT:      -4.3     21.539     27.907
ROOT
ATOM      1  C1  A00 X   1       6.309  56.989  64.6640  0.00  0.00     0.000 C
ATOM      2  C2  A00 X   1       7.167  55.924  65.3970  0.00  0.00     0.000 C
ATOM      3  C3  A00 X   1       8.544  55.580  64.7400  0.00  0.00     0.000 C
ATOM      4  C4  A00 X   1       8.723  56.054  63.2750  0.00  0.00     0.000 C
ATOM      5  C5  A00 X   1       7.384  56.273  62.5710  0.00  0.00     0.000 C
ATOM      6  O5  A00 X   1       6.743  57.327  63.3230  0.00  0.00     0.000 O
ATOM      7   O  A00 X   1       8.705  54.163  64.7290  0.00  0.00     0.000 O
ATOM      9  HD  A00 X   1       8.990  54.458  63.9670  0.00  0.00     0.000 HD
ATOM      9   O  A00 X   1       9.506  57.246  63.2040  0.00  0.00     0.000 O
ATOM     11  HD  A00 X   1       9.791  57.541  62.4410  0.00  0.00     0.000 HD
ENDROOT
BRANCH 2 11
ATOM     11   O  A00 X   1       7.392  56.391  66.7410  0.00  0.00     0.000 O
ATOM     12   O  A00 X   1       8.941  55.306  68.2200  0.00  0.00     0.000 OA
ATOM     13   O  A00 X   1       6.977  54.092  67.4550  0.00  0.00     0.000 OA
ATOM     14   O  A00 X   1       6.751  55.937  68.9400  0.00  0.00     0.000 OA
ATOM     15   S  A00 X   1       7.538  55.340  67.8950  0.00  0.00     0.000 S
ENDBRANCH 2 11
BRANCH 5 16
ATOM     16   C  A00 X   1       6.520  55.017  62.4180  0.00  0.00     0.000 C
ATOM     17   O  A00 X   1       7.048  53.930  62.5380  0.00  0.00     0.000 OA
ATOM     18   O  A00 X   1       5.328  55.069  62.1870  0.00  0.00     0.000 OA
ENDBRANCH 5 16
BRANCH 1 19
ATOM     19  O4  A00 X   2       4.892  56.692  64.7020  0.00  0.00     0.000 O
BRANCH 19 23
ATOM     20  C1  A00 X   2       3.634  60.774  64.3560  0.00  0.00     0.000 C
ATOM     21  C2  A00 X   2       3.889  60.223  65.7800  0.00  0.00     0.000 C
ATOM     22  C3  A00 X   2       4.729  58.930  65.7260  0.00  0.00     0.000 C
ATOM     23  C4  A00 X   2       4.071  57.892  64.7900  0.00  0.00     0.000 C
ATOM     24  C5  A00 X   2       3.854  58.569  63.4090  0.00  0.00     0.000 C
ATOM     25  O5  A00 X   2       2.992  59.724  63.5850  0.00  0.00     0.000 O
ATOM     26   O  A00 X   2       4.996  58.498  67.0710  0.00  0.00     0.000 O
ATOM     28  HD  A00 X   2       4.165  58.553  67.3070  0.00  0.00     0.000 HD
BRANCH 21 30
ATOM     28   N  A00 X   2       2.795  61.071  66.2620  0.00  0.00     0.000 N
ATOM     30  HD  A00 X   2       3.242  60.820  66.9590  0.00  0.00     0.000 HD
ATOM     30   O  A00 X   2       3.281  61.710  68.4560  0.00  0.00     0.000 OA
ATOM     31   S  A00 X   2       2.324  60.922  67.7630  0.00  0.00     0.000 S
ATOM     32   O  A00 X   2       0.996  61.453  67.7570  0.00  0.00     0.000 OA
ATOM     33   O  A00 X   2       2.298  59.521  68.0610  0.00  0.00     0.000 OA
ENDBRANCH 21 30
BRANCH 24 34
ATOM     34   C  A00 X   2       3.419  57.676  62.2230  0.00  0.00     0.000 C
ATOM     35   O  A00 X   2       0.517  58.337  60.1260  0.00  0.00     0.000 OA
ATOM     36   O  A00 X   2       2.070  57.972  61.8130  0.00  0.00     0.000 O
ATOM     37   O  A00 X   2       2.273  59.882  60.4780  0.00  0.00     0.000 OA
ATOM     38   S  A00 X   2       1.917  58.503  60.3400  0.00  0.00     0.000 S
ATOM     39   O  A00 X   2       2.758  57.680  59.5240  0.00  0.00     0.000 OA
ENDBRANCH 24 34
BRANCH 20 40
ATOM     40  O4  A00 X   3       4.932  61.046  63.8070  0.00  0.00     0.000 O
BRANCH 40 44
ATOM     41  C1  A00 X   3       7.892  61.536  61.7770  0.00  0.00     0.000 C
ATOM     42  C2  A00 X   3       7.543  62.357  63.0370  0.00  0.00     0.000 C
ATOM     43  C3  A00 X   3       6.095  62.904  62.9600  0.00  0.00     0.000 C
ATOM     44  C4  A00 X   3       5.041  61.858  62.6180  0.00  0.00     0.000 C
ATOM     45  C5  A00 X   3       5.459  61.079  61.3400  0.00  0.00     0.000 C
ATOM     46  O5  A00 X   3       6.836  60.591  61.4520  0.00  0.00     0.000 O
ATOM     47   O  A00 X   3       5.691  63.752  64.0330  0.00  0.00     0.000 O
ATOM     49  HD  A00 X   3       4.944  63.324  63.9420  0.00  0.00     0.000 HD
BRANCH 42 49
ATOM     49   O  A00 X   3       7.719  61.483  64.1740  0.00  0.00     0.000 O
ATOM     50   O  A00 X   3       8.416  61.722  66.4510  0.00  0.00     0.000 OA
ATOM     51   O  A00 X   3       9.587  62.901  64.7690  0.00  0.00     0.000 OA
ATOM     52   O  A00 X   3       9.770  60.546  64.8280  0.00  0.00     0.000 OA
ATOM     53   S  A00 X   3       8.940  61.663  65.1220  0.00  0.00     0.000 S
ENDBRANCH 42 49
BRANCH 45 54
ATOM     54   C  A00 X   3       5.212  61.899  60.0680  0.00  0.00     0.000 C
ATOM     55   O  A00 X   3       4.712  63.004  60.1320  0.00  0.00     0.000 OA
ATOM     56   O  A00 X   3       5.511  61.457  58.9700  0.00  0.00     0.000 OA
ENDBRANCH 45 54
BRANCH 41 57
ATOM     57  O4  A00 X   4       8.278  62.387  60.6740  0.00  0.00     0.000 O
BRANCH 57 61
ATOM     58  C1  A00 X   4      11.460  62.148  57.7660  0.00  0.00     0.000 C
ATOM     59  C2  A00 X   4      10.097  61.492  57.4300  0.00  0.00     0.000 C
ATOM     60  C3  A00 X   4       8.952  61.943  58.3590  0.00  0.00     0.000 C
ATOM     61  C4  A00 X   4       9.360  61.874  59.8470  0.00  0.00     0.000 C
ATOM     62  C5  A00 X   4      10.618  62.766  59.9950  0.00  0.00     0.000 C
ATOM     63  O5  A00 X   4      11.692  62.214  59.1920  0.00  0.00     0.000 O
BRANCH 59 66
ATOM     64   N  A00 X   4      10.701  60.185  57.7460  0.00  0.00     0.000 N
ATOM     66  HD  A00 X   4      11.451  60.185  58.1770  0.00  0.00     0.000 HD
ATOM     66   O  A00 X   4      11.166  59.944  55.3950  0.00  0.00     0.000 OA
ATOM     67   S  A00 X   4      10.916  59.142  56.5520  0.00  0.00     0.000 S
ATOM     68   O  A00 X   4      12.044  58.410  57.0490  0.00  0.00     0.000 OA
ATOM     69   O  A00 X   4       9.675  58.425  56.6150  0.00  0.00     0.000 OA
ENDBRANCH 59 66
BRANCH 62 70
ATOM     70   C  A00 X   4      11.119  62.915  61.4520  0.00  0.00     0.000 C
ATOM     71   O  A00 X   4      11.193  65.880  63.5270  0.00  0.00     0.000 OA
ATOM     72   O  A00 X   4      12.865  64.287  63.0680  0.00  0.00     0.000 OA
ATOM     73   O  A00 X   4      10.732  64.202  61.9580  0.00  0.00     0.000 O
ATOM     74   O  A00 X   4      12.289  65.948  61.3810  0.00  0.00     0.000 OA
ATOM     75   S  A00 X   4      11.863  65.152  62.4860  0.00  0.00     0.000 S
ENDBRANCH 62 70
ENDBRANCH 57 61
ENDBRANCH 41 57
ENDBRANCH 40 44
ENDBRANCH 20 40
ENDBRANCH 19 23
ENDBRANCH 1 19
TORSDOF 14
ENDMDL
MODEL 97
REMARK VINA RESULT:      -4.3     23.185     27.461
ROOT
ATOM      1  C1  A00 X   1      30.690  40.766  64.3220  0.00  0.00     0.000 C
ATOM      2  C2  A00 X   1      30.423  39.884  65.5710  0.00  0.00     0.000 C
ATOM      3  C3  A00 X   1      30.256  40.645  66.9270  0.00  0.00     0.000 C
ATOM      4  C4  A00 X   1      30.735  42.120  66.9290  0.00  0.00     0.000 C
ATOM      5  C5  A00 X   1      31.753  42.398  65.8230  0.00  0.00     0.000 C
ATOM      6  O5  A00 X   1      31.036  42.147  64.5930  0.00  0.00     0.000 O
ATOM      7   O  A00 X   1      31.018  39.972  67.9270  0.00  0.00     0.000 O
ATOM      9  HD  A00 X   1      31.133  40.822  68.0480  0.00  0.00     0.000 HD
ATOM      9   O  A00 X   1      29.637  43.025  66.8130  0.00  0.00     0.000 O
ATOM     11  HD  A00 X   1      29.752  43.875  66.9340  0.00  0.00     0.000 HD
ENDROOT
BRANCH 2 11
ATOM     11   O  A00 X   1      29.234  39.112  65.3170  0.00  0.00     0.000 O
ATOM     12   O  A00 X   1      28.253  37.700  66.9940  0.00  0.00     0.000 OA
ATOM     13   O  A00 X   1      30.478  37.186  66.1570  0.00  0.00     0.000 OA
ATOM     14   O  A00 X   1      28.576  36.945  64.7500  0.00  0.00     0.000 OA
ATOM     15   S  A00 X   1      29.149  37.646  65.8670  0.00  0.00     0.000 S
ENDBRANCH 2 11
BRANCH 5 16
ATOM     16   C  A00 X   1      33.065  41.617  65.9390  0.00  0.00     0.000 C
ATOM     17   O  A00 X   1      33.346  41.108  67.0050  0.00  0.00     0.000 OA
ATOM     18   O  A00 X   1      33.829  41.482  65.0040  0.00  0.00     0.000 OA
ENDBRANCH 5 16
BRANCH 1 19
ATOM     19  O4  A00 X   2      31.623  40.159  63.3950  0.00  0.00     0.000 O
BRANCH 19 23
ATOM     20  C1  A00 X   2      29.355  41.260  59.9300  0.00  0.00     0.000 C
ATOM     21  C2  A00 X   2      29.212  39.807  60.4460  0.00  0.00     0.000 C
ATOM     22  C3  A00 X   2      29.720  39.687  61.8980  0.00  0.00     0.000 C
ATOM     23  C4  A00 X   2      31.164  40.227  62.0150  0.00  0.00     0.000 C
ATOM     24  C5  A00 X   2      31.177  41.674  61.4520  0.00  0.00     0.000 C
ATOM     25  O5  A00 X   2      30.750  41.639  60.0650  0.00  0.00     0.000 O
ATOM     26   O  A00 X   2      29.503  38.341  62.3530  0.00  0.00     0.000 O
ATOM     28  HD  A00 X   2      29.877  37.991  61.6540  0.00  0.00     0.000 HD
BRANCH 21 30
ATOM     28   N  A00 X   2      28.431  39.700  59.2100  0.00  0.00     0.000 N
ATOM     30  HD  A00 X   2      28.616  38.892  59.4610  0.00  0.00     0.000 HD
ATOM     30   O  A00 X   2      27.660  37.502  59.0260  0.00  0.00     0.000 OA
ATOM     31   S  A00 X   2      28.550  38.379  58.3500  0.00  0.00     0.000 S
ATOM     32   O  A00 X   2      28.124  38.784  57.0460  0.00  0.00     0.000 OA
ATOM     33   O  A00 X   2      29.934  38.010  58.3290  0.00  0.00     0.000 OA
ENDBRANCH 21 30
BRANCH 24 34
ATOM     34   C  A00 X   2      32.452  42.523  61.6630  0.00  0.00     0.000 C
ATOM     35   O  A00 X   2      35.763  41.559  60.4940  0.00  0.00     0.000 OA
ATOM     36   O  A00 X   2      33.643  41.748  61.4200  0.00  0.00     0.000 O
ATOM     37   O  A00 X   2      33.867  41.740  59.0920  0.00  0.00     0.000 OA
ATOM     38   S  A00 X   2      34.547  42.259  60.2390  0.00  0.00     0.000 S
ATOM     39   O  A00 X   2      34.626  43.682  60.3760  0.00  0.00     0.000 OA
ENDBRANCH 24 34
BRANCH 20 40
ATOM     40  O4  A00 X   3      28.552  42.063  60.8070  0.00  0.00     0.000 O
BRANCH 40 44
ATOM     41  C1  A00 X   3      26.542  44.423  62.6810  0.00  0.00     0.000 C
ATOM     42  C2  A00 X   3      25.975  43.310  61.7730  0.00  0.00     0.000 C
ATOM     43  C3  A00 X   3      26.634  43.348  60.3710  0.00  0.00     0.000 C
ATOM     44  C4  A00 X   3      28.157  43.387  60.3880  0.00  0.00     0.000 C
ATOM     45  C5  A00 X   3      28.649  44.533  61.3160  0.00  0.00     0.000 C
ATOM     46  O5  A00 X   3      27.994  44.465  62.6240  0.00  0.00     0.000 O
ATOM     47   O  A00 X   3      26.124  42.417  59.4180  0.00  0.00     0.000 O
ATOM     49  HD  A00 X   3      26.960  42.356  59.1990  0.00  0.00     0.000 HD
BRANCH 42 49
ATOM     49   O  A00 X   3      26.224  42.053  62.4400  0.00  0.00     0.000 O
ATOM     50   O  A00 X   3      25.905  39.734  61.9400  0.00  0.00     0.000 OA
ATOM     51   O  A00 X   3      24.202  41.269  61.3650  0.00  0.00     0.000 OA
ATOM     52   O  A00 X   3      24.614  40.849  63.6540  0.00  0.00     0.000 OA
ATOM     53   S  A00 X   3      25.185  40.897  62.3520  0.00  0.00     0.000 S
ENDBRANCH 42 49
BRANCH 45 54
ATOM     54   C  A00 X   3      28.514  45.905  60.6440  0.00  0.00     0.000 C
ATOM     55   O  A00 X   3      28.914  46.908  61.2000  0.00  0.00     0.000 OA
ATOM     56   O  A00 X   3      28.002  46.013  59.5410  0.00  0.00     0.000 OA
ENDBRANCH 45 54
BRANCH 41 57
ATOM     57  O4  A00 X   4      25.907  45.696  62.4240  0.00  0.00     0.000 O
BRANCH 57 61
ATOM     58  C1  A00 X   4      24.937  49.063  64.9470  0.00  0.00     0.000 C
ATOM     59  C2  A00 X   4      26.426  48.677  64.7650  0.00  0.00     0.000 C
ATOM     60  C3  A00 X   4      26.673  47.715  63.5850  0.00  0.00     0.000 C
ATOM     61  C4  A00 X   4      25.688  46.526  63.6000  0.00  0.00     0.000 C
ATOM     62  C5  A00 X   4      24.266  47.139  63.5660  0.00  0.00     0.000 C
ATOM     63  O5  A00 X   4      24.058  47.929  64.7640  0.00  0.00     0.000 O
BRANCH 59 66
ATOM     64   N  A00 X   4      27.451  48.121  65.6660  0.00  0.00     0.000 N
ATOM     66  HD  A00 X   4      27.228  47.442  66.1550  0.00  0.00     0.000 HD
ATOM     66   O  A00 X   4      27.235  50.123  66.9860  0.00  0.00     0.000 OA
ATOM     67   S  A00 X   4      28.200  49.117  66.6690  0.00  0.00     0.000 S
ATOM     68   O  A00 X   4      28.523  48.215  67.7360  0.00  0.00     0.000 OA
ATOM     69   O  A00 X   4      29.322  49.497  65.8590  0.00  0.00     0.000 OA
ENDBRANCH 59 66
BRANCH 62 70
ATOM     70   C  A00 X   4      23.130  46.093  63.4640  0.00  0.00     0.000 C
ATOM     71   O  A00 X   4      22.120  43.607  65.8940  0.00  0.00     0.000 OA
ATOM     72   O  A00 X   4      22.569  43.407  63.5910  0.00  0.00     0.000 OA
ATOM     73   O  A00 X   4      22.927  45.485  64.7500  0.00  0.00     0.000 O
ATOM     74   O  A00 X   4      24.417  43.637  65.1630  0.00  0.00     0.000 OA
ATOM     75   S  A00 X   4      23.054  43.925  64.8510  0.00  0.00     0.000 S
ENDBRANCH 62 70
ENDBRANCH 57 61
ENDBRANCH 41 57
ENDBRANCH 40 44
ENDBRANCH 20 40
ENDBRANCH 19 23
ENDBRANCH 1 19
TORSDOF 14
ENDMDL
MODEL 98
REMARK VINA RESULT:      -4.2     30.168     34.513
ROOT
ATOM      1  C1  A00 X   1      28.678  47.431  57.4250  0.00  0.00     0.000 C
ATOM      2  C2  A00 X   1      28.049  47.230  58.8290  0.00  0.00     0.000 C
ATOM      3  C3  A00 X   1      28.308  45.844  59.5060  0.00  0.00     0.000 C
ATOM      4  C4  A00 X   1      28.833  44.728  58.5650  0.00  0.00     0.000 C
ATOM      5  C5  A00 X   1      28.492  45.001  57.1000  0.00  0.00     0.000 C
ATOM      6  O5  A00 X   1      29.182  46.232  56.7860  0.00  0.00     0.000 O
ATOM      7   O  A00 X   1      27.082  45.366  60.0550  0.00  0.00     0.000 O
ATOM      9  HD  A00 X   1      27.477  44.689  59.6870  0.00  0.00     0.000 HD
ATOM      9   O  A00 X   1      30.241  44.546  58.7070  0.00  0.00     0.000 O
ATOM     11  HD  A00 X   1      30.637  43.869  58.3400  0.00  0.00     0.000 HD
ENDROOT
BRANCH 2 11
ATOM     11   O  A00 X   1      28.550  48.272  59.6880  0.00  0.00     0.000 O
ATOM     12   O  A00 X   1      30.434  49.628  59.0730  0.00  0.00     0.000 OA
ATOM     13   O  A00 X   1      30.747  47.241  59.4170  0.00  0.00     0.000 OA
ATOM     14   O  A00 X   1      30.238  48.665  61.2520  0.00  0.00     0.000 OA
ATOM     15   S  A00 X   1      30.100  48.453  59.8370  0.00  0.00     0.000 S
ENDBRANCH 2 11
BRANCH 5 16
ATOM     16   C  A00 X   1      26.995  45.038  56.7790  0.00  0.00     0.000 C
ATOM     17   O  A00 X   1      26.626  45.644  55.7940  0.00  0.00     0.000 OA
ATOM     18   O  A00 X   1      26.166  44.477  57.4690  0.00  0.00     0.000 OA
ENDBRANCH 5 16
BRANCH 1 19
ATOM     19  O4  A00 X   2      27.826  48.188  56.5300  0.00  0.00     0.000 O
BRANCH 19 23
ATOM     20  C1  A00 X   2      28.018  52.276  55.2610  0.00  0.00     0.000 C
ATOM     21  C2  A00 X   2      29.306  51.427  55.1320  0.00  0.00     0.000 C
ATOM     22  C3  A00 X   2      28.980  49.920  55.2060  0.00  0.00     0.000 C
ATOM     23  C4  A00 X   2      28.176  49.601  56.4870  0.00  0.00     0.000 C
ATOM     24  C5  A00 X   2      26.928  50.526  56.5070  0.00  0.00     0.000 C
ATOM     25  O5  A00 X   2      27.371  51.908  56.5080  0.00  0.00     0.000 O
ATOM     26   O  A00 X   2      30.194  49.175  55.0130  0.00  0.00     0.000 O
ATOM     28  HD  A00 X   2      30.628  49.631  55.6090  0.00  0.00     0.000 HD
BRANCH 21 30
ATOM     28   N  A00 X   2      29.866  52.041  53.9240  0.00  0.00     0.000 N
ATOM     30  HD  A00 X   2      30.427  52.193  54.5660  0.00  0.00     0.000 HD
ATOM     30   O  A00 X   2      32.126  52.485  54.3170  0.00  0.00     0.000 OA
ATOM     31   S  A00 X   2      30.924  53.204  54.0860  0.00  0.00     0.000 S
ATOM     32   O  A00 X   2      30.863  53.894  52.8350  0.00  0.00     0.000 OA
ATOM     33   O  A00 X   2      30.461  54.052  55.1440  0.00  0.00     0.000 OA
ENDBRANCH 21 30
BRANCH 24 34
ATOM     34   C  A00 X   2      25.836  50.248  57.5670  0.00  0.00     0.000 C
ATOM     35   O  A00 X   2      24.215  52.834  59.5520  0.00  0.00     0.000 OA
ATOM     36   O  A00 X   2      25.640  51.389  58.4260  0.00  0.00     0.000 O
ATOM     37   O  A00 X   2      24.268  52.822  57.1880  0.00  0.00     0.000 OA
ATOM     38   S  A00 X   2      24.204  52.027  58.3760  0.00  0.00     0.000 S
ATOM     39   O  A00 X   2      23.275  50.938  58.3970  0.00  0.00     0.000 OA
ENDBRANCH 24 34
BRANCH 20 40
ATOM     40  O4  A00 X   3      27.187  51.891  54.1560  0.00  0.00     0.000 O
BRANCH 40 44
ATOM     41  C1  A00 X   3      24.860  51.333  51.4360  0.00  0.00     0.000 C
ATOM     42  C2  A00 X   3      26.323  51.796  51.2620  0.00  0.00     0.000 C
ATOM     43  C3  A00 X   3      26.631  53.015  52.1700  0.00  0.00     0.000 C
ATOM     44  C4  A00 X   3      26.231  52.835  53.6290  0.00  0.00     0.000 C
ATOM     45  C5  A00 X   3      24.749  52.375  53.7210  0.00  0.00     0.000 C
ATOM     46  O5  A00 X   3      24.501  51.230  52.8420  0.00  0.00     0.000 O
ATOM     47   O  A00 X   3      27.931  53.584  52.0280  0.00  0.00     0.000 O
ATOM     49  HD  A00 X   3      27.868  53.662  52.8890  0.00  0.00     0.000 HD
BRANCH 42 49
ATOM     49   O  A00 X   3      27.165  50.669  51.5880  0.00  0.00     0.000 O
ATOM     50   O  A00 X   3      29.517  50.231  51.6710  0.00  0.00     0.000 OA
ATOM     51   O  A00 X   3      28.655  51.494  49.8680  0.00  0.00     0.000 OA
ATOM     52   O  A00 X   3      28.095  49.202  50.0080  0.00  0.00     0.000 OA
ATOM     53   S  A00 X   3      28.438  50.369  50.7440  0.00  0.00     0.000 S
ENDBRANCH 42 49
BRANCH 45 54
ATOM     54   C  A00 X   3      23.777  53.537  53.4860  0.00  0.00     0.000 C
ATOM     55   O  A00 X   3      24.151  54.556  52.9410  0.00  0.00     0.000 OA
ATOM     56   O  A00 X   3      22.612  53.461  53.8450  0.00  0.00     0.000 OA
ENDBRANCH 45 54
BRANCH 41 57
ATOM     57  O4  A00 X   4      23.949  52.138  50.6550  0.00  0.00     0.000 O
BRANCH 57 61
ATOM     58  C1  A00 X   4      20.121  51.325  48.8320  0.00  0.00     0.000 C
ATOM     59  C2  A00 X   4      20.159  51.724  50.3280  0.00  0.00     0.000 C
ATOM     60  C3  A00 X   4      21.507  52.331  50.7680  0.00  0.00     0.000 C
ATOM     61  C4  A00 X   4      22.703  51.480  50.2880  0.00  0.00     0.000 C
ATOM     62  C5  A00 X   4      22.580  51.387  48.7460  0.00  0.00     0.000 C
ATOM     63  O5  A00 X   4      21.351  50.696  48.4070  0.00  0.00     0.000 O
BRANCH 59 66
ATOM     64   N  A00 X   4      19.256  52.477  51.2160  0.00  0.00     0.000 N
ATOM     66  HD  A00 X   4      19.441  52.485  52.0620  0.00  0.00     0.000 HD
ATOM     66   O  A00 X   4      17.601  50.775  50.8100  0.00  0.00     0.000 OA
ATOM     67   S  A00 X   4      17.689  52.161  51.1470  0.00  0.00     0.000 S
ATOM     68   O  A00 X   4      17.298  52.498  52.4840  0.00  0.00     0.000 OA
ATOM     69   O  A00 X   4      17.282  53.118  50.1570  0.00  0.00     0.000 OA
ENDBRANCH 59 66
BRANCH 62 70
ATOM     70   C  A00 X   4      23.760  50.658  48.0610  0.00  0.00     0.000 C
ATOM     71   O  A00 X   4      24.575  50.489  44.5380  0.00  0.00     0.000 OA
ATOM     72   O  A00 X   4      24.407  48.787  46.1570  0.00  0.00     0.000 OA
ATOM     73   O  A00 X   4      23.834  51.063  46.6850  0.00  0.00     0.000 O
ATOM     74   O  A00 X   4      22.380  49.788  45.2470  0.00  0.00     0.000 OA
ATOM     75   S  A00 X   4      23.757  49.946  45.5860  0.00  0.00     0.000 S
ENDBRANCH 62 70
ENDBRANCH 57 61
ENDBRANCH 41 57
ENDBRANCH 40 44
ENDBRANCH 20 40
ENDBRANCH 19 23
ENDBRANCH 1 19
TORSDOF 14
ENDMDL
MODEL 99
REMARK VINA RESULT:      -4.2     20.837     27.600
ROOT
ATOM      1  C1  A00 X   1      11.491  62.059  63.4630  0.00  0.00     0.000 C
ATOM      2  C2  A00 X   1      12.516  62.201  64.6200  0.00  0.00     0.000 C
ATOM      3  C3  A00 X   1      11.918  62.281  66.0630  0.00  0.00     0.000 C
ATOM      4  C4  A00 X   1      10.398  62.578  66.1410  0.00  0.00     0.000 C
ATOM      5  C5  A00 X   1       9.878  63.262  64.8770  0.00  0.00     0.000 C
ATOM      6  O5  A00 X   1      10.107  62.304  63.8200  0.00  0.00     0.000 O
ATOM      7   O  A00 X   1      12.572  63.331  66.7720  0.00  0.00     0.000 O
ATOM      9  HD  A00 X   1      11.730  63.376  66.9690  0.00  0.00     0.000 HD
ATOM      9   O  A00 X   1       9.647  61.390  66.3900  0.00  0.00     0.000 O
ATOM     11  HD  A00 X   1       8.804  61.435  66.5870  0.00  0.00     0.000 HD
ENDROOT
BRANCH 2 11
ATOM     11   O  A00 X   1      13.417  61.079  64.5470  0.00  0.00     0.000 O
ATOM     12   O  A00 X   1      15.049  60.648  66.2550  0.00  0.00     0.000 OA
ATOM     13   O  A00 X   1      15.217  62.684  64.9350  0.00  0.00     0.000 OA
ATOM     14   O  A00 X   1      15.610  60.563  63.9330  0.00  0.00     0.000 OA
ATOM     15   S  A00 X   1      14.914  61.280  64.9670  0.00  0.00     0.000 S
ENDBRANCH 2 11
BRANCH 5 16
ATOM     16   C  A00 X   1      10.478  64.643  64.5940  0.00  0.00     0.000 C
ATOM     17   O  A00 X   1      11.023  65.237  65.5020  0.00  0.00     0.000 OA
ATOM     18   O  A00 X   1      10.435  65.160  63.4950  0.00  0.00     0.000 OA
ENDBRANCH 5 16
BRANCH 1 19
ATOM     19  O4  A00 X   2      11.872  62.804  62.2810  0.00  0.00     0.000 O
BRANCH 19 23
ATOM     20  C1  A00 X   2      10.467  59.822  59.5430  0.00  0.00     0.000 C
ATOM     21  C2  A00 X   2      11.962  59.778  59.9420  0.00  0.00     0.000 C
ATOM     22  C3  A00 X   2      12.213  60.602  61.2220  0.00  0.00     0.000 C
ATOM     23  C4  A00 X   2      11.679  62.042  61.0550  0.00  0.00     0.000 C
ATOM     24  C5  A00 X   2      10.185  61.949  60.6380  0.00  0.00     0.000 C
ATOM     25  O5  A00 X   2      10.093  61.217  59.3890  0.00  0.00     0.000 O
ATOM     26   O  A00 X   2      13.597  60.474  61.5890  0.00  0.00     0.000 O
ATOM     28  HD  A00 X   2      13.878  60.672  60.7940  0.00  0.00     0.000 HD
BRANCH 21 30
ATOM     28   N  A00 X   2      13.190  59.154  60.4440  0.00  0.00     0.000 N
ATOM     30  HD  A00 X   2      12.980  58.741  59.7120  0.00  0.00     0.000 HD
ATOM     30   O  A00 X   2      14.134  57.906  58.7090  0.00  0.00     0.000 OA
ATOM     31   S  A00 X   2      13.539  57.684  59.9790  0.00  0.00     0.000 S
ATOM     32   O  A00 X   2      14.434  57.213  60.9910  0.00  0.00     0.000 OA
ATOM     33   O  A00 X   2      12.320  56.932  60.0030  0.00  0.00     0.000 OA
ENDBRANCH 21 30
BRANCH 24 34
ATOM     34   C  A00 X   2       9.352  63.253  60.6290  0.00  0.00     0.000 C
ATOM     35   O  A00 X   2       5.735  63.365  61.0360  0.00  0.00     0.000 OA
ATOM     36   O  A00 X   2       7.948  62.974  60.4550  0.00  0.00     0.000 O
ATOM     37   O  A00 X   2       7.208  62.353  62.5850  0.00  0.00     0.000 OA
ATOM     38   S  A00 X   2       7.023  63.417  61.6460  0.00  0.00     0.000 S
ATOM     39   O  A00 X   2       7.459  64.726  62.0320  0.00  0.00     0.000 OA
ENDBRANCH 24 34
BRANCH 20 40
ATOM     40  O4  A00 X   3       9.753  59.253  60.6500  0.00  0.00     0.000 O
BRANCH 40 44
ATOM     41  C1  A00 X   3       7.576  57.776  63.1410  0.00  0.00     0.000 C
ATOM     42  C2  A00 X   3       8.753  57.047  62.4570  0.00  0.00     0.000 C
ATOM     43  C3  A00 X   3       8.671  57.185  60.9150  0.00  0.00     0.000 C
ATOM     44  C4  A00 X   3       8.481  58.611  60.4160  0.00  0.00     0.000 C
ATOM     45  C5  A00 X   3       7.278  59.275  61.1440  0.00  0.00     0.000 C
ATOM     46  O5  A00 X   3       7.392  59.112  62.5950  0.00  0.00     0.000 O
ATOM     47   O  A00 X   3       9.661  56.476  60.1730  0.00  0.00     0.000 O
ATOM     49  HD  A00 X   3       9.643  57.190  59.6830  0.00  0.00     0.000 HD
BRANCH 42 49
ATOM     49   O  A00 X   3       9.969  57.629  62.9750  0.00  0.00     0.000 O
ATOM     50   O  A00 X   3      12.190  56.869  63.4450  0.00  0.00     0.000 OA
ATOM     51   O  A00 X   3      10.364  55.478  64.0120  0.00  0.00     0.000 OA
ATOM     52   O  A00 X   3      10.663  57.491  65.2140  0.00  0.00     0.000 OA
ATOM     53   S  A00 X   3      10.861  56.831  63.9700  0.00  0.00     0.000 S
ENDBRANCH 42 49
BRANCH 45 54
ATOM     54   C  A00 X   3       5.936  58.786  60.5860  0.00  0.00     0.000 C
ATOM     55   O  A00 X   3       4.891  59.247  60.9960  0.00  0.00     0.000 OA
ATOM     56   O  A00 X   3       5.896  57.925  59.7210  0.00  0.00     0.000 OA
ENDBRANCH 45 54
BRANCH 41 57
ATOM     57  O4  A00 X   4       6.376  56.971  63.1390  0.00  0.00     0.000 O
BRANCH 57 61
ATOM     58  C1  A00 X   4       3.308  56.350  66.1120  0.00  0.00     0.000 C
ATOM     59  C2  A00 X   4       3.046  57.373  64.9790  0.00  0.00     0.000 C
ATOM     60  C3  A00 X   4       4.031  57.249  63.7990  0.00  0.00     0.000 C
ATOM     61  C4  A00 X   4       5.495  57.170  64.2810  0.00  0.00     0.000 C
ATOM     62  C5  A00 X   4       5.575  55.954  65.2380  0.00  0.00     0.000 C
ATOM     63  O5  A00 X   4       4.719  56.193  66.3850  0.00  0.00     0.000 O
BRANCH 59 66
ATOM     64   N  A00 X   4       3.261  58.681  65.6230  0.00  0.00     0.000 N
ATOM     66  HD  A00 X   4       3.770  58.703  66.3230  0.00  0.00     0.000 HD
ATOM     66   O  A00 X   4       0.965  58.591  66.3450  0.00  0.00     0.000 OA
ATOM     67   S  A00 X   4       1.978  59.548  66.0240  0.00  0.00     0.000 S
ATOM     68   O  A00 X   4       2.503  60.287  67.1350  0.00  0.00     0.000 OA
ATOM     69   O  A00 X   4       1.812  60.323  64.8280  0.00  0.00     0.000 OA
ENDBRANCH 59 66
BRANCH 62 70
ATOM     70   C  A00 X   4       7.002  55.642  65.7450  0.00  0.00     0.000 C
ATOM     71   O  A00 X   4       8.035  53.250  68.2600  0.00  0.00     0.000 OA
ATOM     72   O  A00 X   4       8.583  55.524  67.9880  0.00  0.00     0.000 OA
ATOM     73   O  A00 X   4       6.968  54.458  66.5590  0.00  0.00     0.000 O
ATOM     74   O  A00 X   4       6.390  54.909  68.8540  0.00  0.00     0.000 OA
ATOM     75   S  A00 X   4       7.503  54.564  68.0300  0.00  0.00     0.000 S
ENDBRANCH 62 70
ENDBRANCH 57 61
ENDBRANCH 41 57
ENDBRANCH 40 44
ENDBRANCH 20 40
ENDBRANCH 19 23
ENDBRANCH 1 19
TORSDOF 14
ENDMDL
MODEL 100
REMARK VINA RESULT:      -3.2     13.239     17.917
ROOT
ATOM      1  C1  A00 X   1       7.936  53.472  72.7360  0.00  0.00     0.000 C
ATOM      2  C2  A00 X   1       6.958  52.463  73.3950  0.00  0.00     0.000 C
ATOM      3  C3  A00 X   1       6.904  51.038  72.7520  0.00  0.00     0.000 C
ATOM      4  C4  A00 X   1       7.538  50.916  71.3430  0.00  0.00     0.000 C
ATOM      5  C5  A00 X   1       7.604  52.262  70.6210  0.00  0.00     0.000 C
ATOM      6  O5  A00 X   1       8.465  53.079  71.4450  0.00  0.00     0.000 O
ATOM      7   O  A00 X   1       5.539  50.648  72.6180  0.00  0.00     0.000 O
ATOM      9  HD  A00 X   1       5.948  50.403  71.8940  0.00  0.00     0.000 HD
ATOM      9   O  A00 X   1       8.842  50.338  71.4050  0.00  0.00     0.000 O
ATOM     11  HD  A00 X   1       9.250  50.093  70.6810  0.00  0.00     0.000 HD
ENDROOT
BRANCH 2 11
ATOM     11   O  A00 X   1       7.325  52.339  74.7820  0.00  0.00     0.000 O
ATOM     12   O  A00 X   1       6.291  50.727  76.2310  0.00  0.00     0.000 OA
ATOM     13   O  A00 X   1       4.940  52.513  75.2800  0.00  0.00     0.000 OA
ATOM     14   O  A00 X   1       6.608  52.998  76.9040  0.00  0.00     0.000 OA
ATOM     15   S  A00 X   1       6.198  52.113  75.8480  0.00  0.00     0.000 S
ENDBRANCH 2 11
BRANCH 5 16
ATOM     16   C  A00 X   1       6.245  52.906  70.3270  0.00  0.00     0.000 C
ATOM     17   O  A00 X   1       5.247  52.219  70.4040  0.00  0.00     0.000 OA
ATOM     18   O  A00 X   1       6.131  54.078  70.0270  0.00  0.00     0.000 OA
ENDBRANCH 5 16
BRANCH 1 19
ATOM     19  O4  A00 X   2       7.412  54.822  72.7020  0.00  0.00     0.000 O
BRANCH 19 23
ATOM     20  C1  A00 X   2      11.203  56.682  73.4320  0.00  0.00     0.000 C
ATOM     21  C2  A00 X   2      10.311  56.372  74.6590  0.00  0.00     0.000 C
ATOM     22  C3  A00 X   2       9.219  55.343  74.2980  0.00  0.00     0.000 C
ATOM     23  C4  A00 X   2       8.408  55.818  73.0720  0.00  0.00     0.000 C
ATOM     24  C5  A00 X   2       9.412  56.111  71.9240  0.00  0.00     0.000 C
ATOM     25  O5  A00 X   2      10.335  57.142  72.3620  0.00  0.00     0.000 O
ATOM     26   O  A00 X   2       8.464  55.038  75.4830  0.00  0.00     0.000 O
ATOM     28  HD  A00 X   2       8.331  55.872  75.6740  0.00  0.00     0.000 HD
BRANCH 21 30
ATOM     28   N  A00 X   2      10.616  55.662  75.9050  0.00  0.00     0.000 N
ATOM     30  HD  A00 X   2      10.824  56.493  76.0320  0.00  0.00     0.000 HD
ATOM     30   O  A00 X   2      10.872  57.248  77.6010  0.00  0.00     0.000 OA
ATOM     31   S  A00 X   2      11.664  56.298  76.9030  0.00  0.00     0.000 S
ATOM     32   O  A00 X   2      12.103  55.185  77.6870  0.00  0.00     0.000 OA
ATOM     33   O  A00 X   2      12.745  56.808  76.1140  0.00  0.00     0.000 OA
ENDBRANCH 21 30
BRANCH 24 34
ATOM     34   C  A00 X   2       8.842  56.382  70.5120  0.00  0.00     0.000 C
ATOM     35   O  A00 X   2      10.694  55.843  67.4240  0.00  0.00     0.000 OA
ATOM     36   O  A00 X   2       9.890  56.422  69.5230  0.00  0.00     0.000 O
ATOM     37   O  A00 X   2      10.339  54.173  69.0600  0.00  0.00     0.000 OA
ATOM     38   S  A00 X   2       9.796  55.322  68.4020  0.00  0.00     0.000 S
ATOM     39   O  A00 X   2       8.423  55.270  68.0000  0.00  0.00     0.000 OA
ENDBRANCH 24 34
BRANCH 20 40
ATOM     40  O4  A00 X   3      11.800  55.431  73.0610  0.00  0.00     0.000 O
BRANCH 40 44
ATOM     41  C1  A00 X   3      13.588  52.703  71.4850  0.00  0.00     0.000 C
ATOM     42  C2  A00 X   3      13.310  52.814  73.0000  0.00  0.00     0.000 C
ATOM     43  C3  A00 X   3      13.742  54.200  73.5440  0.00  0.00     0.000 C
ATOM     44  C4  A00 X   3      13.209  55.386  72.7500  0.00  0.00     0.000 C
ATOM     45  C5  A00 X   3      13.532  55.204  71.2400  0.00  0.00     0.000 C
ATOM     46  O5  A00 X   3      13.116  53.879  70.7730  0.00  0.00     0.000 O
ATOM     47   O  A00 X   3      13.611  54.385  74.9520  0.00  0.00     0.000 O
ATOM     49  HD  A00 X   3      13.356  55.177  74.7100  0.00  0.00     0.000 HD
BRANCH 42 49
ATOM     49   O  A00 X   3      11.895  52.591  73.1880  0.00  0.00     0.000 O
ATOM     50   O  A00 X   3      10.392  52.468  75.0470  0.00  0.00     0.000 OA
ATOM     51   O  A00 X   3      12.512  51.437  75.2230  0.00  0.00     0.000 OA
ATOM     52   O  A00 X   3      10.933  50.517  73.7240  0.00  0.00     0.000 OA
ATOM     53   S  A00 X   3      11.387  51.705  74.3620  0.00  0.00     0.000 S
ENDBRANCH 42 49
BRANCH 45 54
ATOM     54   C  A00 X   3      15.000  55.519  70.9310  0.00  0.00     0.000 C
ATOM     55   O  A00 X   3      15.773  55.804  71.8230  0.00  0.00     0.000 OA
ATOM     56   O  A00 X   3      15.418  55.492  69.7840  0.00  0.00     0.000 OA
ENDBRANCH 45 54
BRANCH 41 57
ATOM     57  O4  A00 X   4      14.969  52.369  71.2200  0.00  0.00     0.000 O
BRANCH 57 61
ATOM     58  C1  A00 X   4      16.825  49.810  68.2800  0.00  0.00     0.000 C
ATOM     59  C2  A00 X   4      16.712  51.325  67.9780  0.00  0.00     0.000 C
ATOM     60  C3  A00 X   4      16.373  52.175  69.2190  0.00  0.00     0.000 C
ATOM     61  C4  A00 X   4      15.194  51.579  70.0180  0.00  0.00     0.000 C
ATOM     62  C5  A00 X   4      15.609  50.135  70.3950  0.00  0.00     0.000 C
ATOM     63  O5  A00 X   4      15.790  49.359  69.1840  0.00  0.00     0.000 O
BRANCH 59 66
ATOM     64   N  A00 X   4      16.572  52.471  67.0620  0.00  0.00     0.000 N
ATOM     66  HD  A00 X   4      15.773  52.775  66.9200  0.00  0.00     0.000 HD
ATOM     66   O  A00 X   4      17.155  50.978  65.2650  0.00  0.00     0.000 OA
ATOM     67   S  A00 X   4      17.230  52.364  65.6080  0.00  0.00     0.000 S
ATOM     68   O  A00 X   4      16.362  53.231  64.8660  0.00  0.00     0.000 OA
ATOM     69   O  A00 X   4      18.527  52.918  65.8760  0.00  0.00     0.000 OA
ENDBRANCH 59 66
BRANCH 62 70
ATOM     70   C  A00 X   4      14.592  49.402  71.3020  0.00  0.00     0.000 C
ATOM     71   O  A00 X   4      15.065  48.123  74.6560  0.00  0.00     0.000 OA
ATOM     72   O  A00 X   4      14.157  47.102  72.7380  0.00  0.00     0.000 OA
ATOM     73   O  A00 X   4      15.129  49.299  72.6310  0.00  0.00     0.000 O
ATOM     74   O  A00 X   4      16.570  47.390  72.9210  0.00  0.00     0.000 OA
ATOM     75   S  A00 X   4      15.268  47.868  73.2580  0.00  0.00     0.000 S
ENDBRANCH 62 70
ENDBRANCH 57 61
ENDBRANCH 41 57
ENDBRANCH 40 44
ENDBRANCH 20 40
ENDBRANCH 19 23
ENDBRANCH 1 19
TORSDOF 14
ENDMDL
