MODEL 1
REMARK VINA RESULT:     -10.6      0.000      0.000
ROOT
ATOM      1  C1  SGN B   1      33.898   0.624  12.8770  0.00  0.00     0.000 C
ATOM      2  C2  SGN B   1      32.801  -0.391  12.5160  0.00  0.00     0.000 C
ATOM      3  C3  SGN B   1      32.589  -0.445  10.9990  0.00  0.00     0.000 C
ATOM      4  C4  SGN B   1      32.277   0.948  10.4610  0.00  0.00     0.000 C
ATOM      5  C5  SGN B   1      33.329   1.929  10.9760  0.00  0.00     0.000 C
ATOM      6  O5  SGN B   1      33.383   1.865  12.4140  0.00  0.00     0.000 O
ATOM      7   O  SGN B   1      31.543  -1.352  10.6720  0.00  0.00     0.000 O
ATOM      9  HD  SGN B   1      31.126  -0.770  11.1600  0.00  0.00     0.000 HD
ATOM      9   O  SGN B   1      32.288   0.919   9.0460  0.00  0.00     0.000 O
ATOM     11  HD  SGN B   1      31.870   1.500   9.5340  0.00  0.00     0.000 HD
ENDROOT
BRANCH 2 13
ATOM     11   N  SGN B   1      32.392  -0.924  13.8290  0.00  0.00     0.000 N
ATOM     13  HD  SGN B   1      33.228  -0.908  13.6020  0.00  0.00     0.000 HD
ATOM     13   S  SGN B   1      33.241  -2.053  14.6000  0.00  0.00     0.000 S
ATOM     14   O  SGN B   1      34.399  -2.378  13.8630  0.00  0.00     0.000 OA
ATOM     15   O  SGN B   1      33.365  -1.669  15.9660  0.00  0.00     0.000 OA
ATOM     16   O  SGN B   1      32.188  -3.203  14.5390  0.00  0.00     0.000 OA
ENDBRANCH 2 13
BRANCH 5 17
ATOM     17   C  SGN B   1      33.065   3.365  10.5990  0.00  0.00     0.000 C
ATOM     18   O  SGN B   1      33.001   4.202  11.7710  0.00  0.00     0.000 O
ATOM     19   S  SGN B   1      31.794   5.249  11.8200  0.00  0.00     0.000 S
ATOM     20   O  SGN B   1      32.086   6.106  12.9500  0.00  0.00     0.000 OA
ATOM     21   O  SGN B   1      31.864   5.928  10.5470  0.00  0.00     0.000 OA
ATOM     22   O  SGN B   1      30.603   4.446  11.9940  0.00  0.00     0.000 OA
ENDBRANCH 5 17
BRANCH 1 23
ATOM     23  O4  IDS B   2      35.247   0.696  13.0590  0.00  0.00     0.000 O
BRANCH 23 27
ATOM     24  C1  IDS B   2      39.153   1.271  14.3410  0.00  0.00     0.000 C
ATOM     25  C2  IDS B   2      38.365   0.167  15.0780  0.00  0.00     0.000 C
ATOM     26  C3  IDS B   2      37.068  -0.162  14.3440  0.00  0.00     0.000 C
ATOM     27  C4  IDS B   2      36.186   1.054  14.0950  0.00  0.00     0.000 C
ATOM     28  C5  IDS B   2      37.061   2.281  13.7660  0.00  0.00     0.000 C
ATOM     29  O5  IDS B   2      38.349   1.882  13.3230  0.00  0.00     0.000 O
ATOM     30   O  IDS B   2      36.314  -1.088  15.1160  0.00  0.00     0.000 O
ATOM     32  HD  IDS B   2      35.884  -0.718  15.7710  0.00  0.00     0.000 HD
BRANCH 25 32
ATOM     32   O  IDS B   2      39.142  -1.091  15.2000  0.00  0.00     0.000 O
ATOM     33   S  IDS B   2      39.479  -1.769  16.6670  0.00  0.00     0.000 S
ATOM     34   O  IDS B   2      40.430  -2.839  16.4100  0.00  0.00     0.000 OA
ATOM     35   O  IDS B   2      40.044  -0.757  17.5490  0.00  0.00     0.000 OA
ATOM     36   O  IDS B   2      38.223  -2.286  17.1560  0.00  0.00     0.000 OA
ENDBRANCH 25 32
BRANCH 28 37
ATOM     37   C  IDS B   2      36.504   3.317  12.7680  0.00  0.00     0.000 C
ATOM     38   O  IDS B   2      35.824   4.162  13.3020  0.00  0.00     0.000 OA
ATOM     39   O  IDS B   2      36.740   3.382  11.5370  0.00  0.00     0.000 OA
ENDBRANCH 28 37
BRANCH 24 40
ATOM     40  O4  SUS B   3      40.298   1.749  14.8710  0.00  0.00     0.000 O
BRANCH 40 44
ATOM     41  C1  SUS B   3      43.753   1.860  12.5050  0.00  0.00     0.000 C
ATOM     42  C2  SUS B   3      43.535   3.026  13.4890  0.00  0.00     0.000 C
ATOM     43  C3  SUS B   3      42.541   2.597  14.5650  0.00  0.00     0.000 C
ATOM     44  C4  SUS B   3      41.267   2.110  13.8920  0.00  0.00     0.000 C
ATOM     45  C5  SUS B   3      41.598   0.910  13.0280  0.00  0.00     0.000 C
ATOM     46  O5  SUS B   3      42.519   1.334  12.0040  0.00  0.00     0.000 O
BRANCH 42 49
ATOM     47   N  SUS B   3      44.909   3.414  13.8510  0.00  0.00     0.000 N
ATOM     49  HD  SUS B   3      45.131   3.321  14.6830  0.00  0.00     0.000 HD
ATOM     49   S  SUS B   3      45.267   4.910  13.4050  0.00  0.00     0.000 S
ATOM     50   O  SUS B   3      44.352   5.815  13.9820  0.00  0.00     0.000 OA
ATOM     51   O  SUS B   3      46.639   4.989  14.1230  0.00  0.00     0.000 OA
ATOM     52   O  SUS B   3      45.434   4.954  12.0070  0.00  0.00     0.000 OA
ENDBRANCH 42 49
BRANCH 43 53
ATOM     53   O  SUS B   3      42.245   3.773  15.4070  0.00  0.00     0.000 O
ATOM     54   S  SUS B   3      42.844   3.770  16.9370  0.00  0.00     0.000 S
ATOM     55   O  SUS B   3      44.286   3.947  16.8420  0.00  0.00     0.000 OA
ATOM     56   O  SUS B   3      42.159   4.874  17.5850  0.00  0.00     0.000 OA
ATOM     57   O  SUS B   3      42.506   2.464  17.5120  0.00  0.00     0.000 OA
ENDBRANCH 43 53
BRANCH 45 58
ATOM     58   C  SUS B   3      40.361   0.305  12.4020  0.00  0.00     0.000 C
ATOM     59   S  SUS B   3      39.159   0.007  10.1540  0.00  0.00     0.000 S
ATOM     60   O  SUS B   3      40.459   0.395  10.9710  0.00  0.00     0.000 O
ATOM     61   O  SUS B   3      38.284   1.159  10.2650  0.00  0.00     0.000 OA
ATOM     62   O  SUS B   3      39.708  -0.149   8.8340  0.00  0.00     0.000 OA
ATOM     63   O  SUS B   3      38.674  -1.184  10.7550  0.00  0.00     0.000 OA
ENDBRANCH 45 58
BRANCH 41 64
ATOM     64  O4  IDS B   4      44.626   0.904  12.9650  0.00  0.00     0.000 O
BRANCH 64 68
ATOM     65  C1  IDS B   4      47.652  -1.124  12.8910  0.00  0.00     0.000 C
ATOM     66  C2  IDS B   4      47.693   0.341  12.4390  0.00  0.00     0.000 C
ATOM     67  C3  IDS B   4      46.565   0.741  11.5020  0.00  0.00     0.000 C
ATOM     68  C4  IDS B   4      45.229   0.140  11.8970  0.00  0.00     0.000 C
ATOM     69  C5  IDS B   4      45.456  -1.335  12.2530  0.00  0.00     0.000 C
ATOM     70  O5  IDS B   4      46.350  -1.419  13.3650  0.00  0.00     0.000 O
ATOM     71   O  IDS B   4      46.921   0.303  10.2070  0.00  0.00     0.000 O
ATOM     73  HD  IDS B   4      47.066   0.515  11.0340  0.00  0.00     0.000 HD
BRANCH 66 73
ATOM     73   O  IDS B   4      47.546   1.204  13.6190  0.00  0.00     0.000 O
ATOM     74   S  IDS B   4      48.891   1.780  14.3090  0.00  0.00     0.000 S
ATOM     75   O  IDS B   4      49.703   0.630  14.6460  0.00  0.00     0.000 OA
ATOM     76   O  IDS B   4      48.361   2.479  15.4530  0.00  0.00     0.000 OA
ATOM     77   O  IDS B   4      49.497   2.636  13.3180  0.00  0.00     0.000 OA
ENDBRANCH 66 73
BRANCH 69 78
ATOM     78   C  IDS B   4      44.177  -2.136  12.4600  0.00  0.00     0.000 C
ATOM     79   O  IDS B   4      44.057  -3.216  11.8840  0.00  0.00     0.000 OA
ATOM     80   O  IDS B   4      43.343  -1.723  13.2860  0.00  0.00     0.000 OA
ENDBRANCH 69 78
BRANCH 65 81
ATOM     81  O4  SGN B   5      48.137  -1.919  11.8960  0.00  0.00     0.000 O
BRANCH 81 85
ATOM     82  C1  SGN B   5      50.376  -5.389  11.1360  0.00  0.00     0.000 C
ATOM     83  C2  SGN B   5      48.917  -5.583  11.5750  0.00  0.00     0.000 C
ATOM     84  C3  SGN B   5      48.138  -4.278  11.3580  0.00  0.00     0.000 C
ATOM     85  C4  SGN B   5      48.838  -3.148  12.0920  0.00  0.00     0.000 C
ATOM     86  C5  SGN B   5      50.263  -3.039  11.5560  0.00  0.00     0.000 C
ATOM     87  O5  SGN B   5      50.948  -4.281  11.8060  0.00  0.00     0.000 O
ATOM     88   O  SGN B   5      46.811  -4.430  11.8120  0.00  0.00     0.000 O
ATOM     90  HD  SGN B   5      47.065  -4.458  10.9840  0.00  0.00     0.000 HD
BRANCH 83 92
ATOM     90   N  SGN B   5      49.350  -6.970  11.3160  0.00  0.00     0.000 N
ATOM     92  HD  SGN B   5      50.156  -7.102  11.6020  0.00  0.00     0.000 HD
ATOM     92   S  SGN B   5      48.319  -8.150  11.6300  0.00  0.00     0.000 S
ATOM     93   O  SGN B   5      49.030  -9.343  11.2840  0.00  0.00     0.000 OA
ATOM     94   O  SGN B   5      47.887  -7.939  12.9690  0.00  0.00     0.000 OA
ATOM     95   O  SGN B   5      47.136  -7.877  10.7260  0.00  0.00     0.000 OA
ENDBRANCH 83 92
BRANCH 86 96
ATOM     96   C  SGN B   5      51.083  -1.936  12.1950  0.00  0.00     0.000 C
ATOM     97   O  SGN B   5      51.864  -1.256  11.2090  0.00  0.00     0.000 O
ATOM     98   S  SGN B   5      51.752   0.344  11.2000  0.00  0.00     0.000 S
ATOM     99   O  SGN B   5      52.781   0.729  10.2640  0.00  0.00     0.000 OA
ATOM    100   O  SGN B   5      50.432   0.676  10.7990  0.00  0.00     0.000 OA
ATOM    101   O  SGN B   5      52.038   0.727  12.5440  0.00  0.00     0.000 OA
ENDBRANCH 86 96
BRANCH 82 102
ATOM    102  O4  IDS B   6      50.503  -5.245   9.7860  0.00  0.00     0.000 O
BRANCH 102 106
ATOM    103  C1  IDS B   6      52.043  -6.422   6.7040  0.00  0.00     0.000 C
ATOM    104  C2  IDS B   6      51.871  -7.364   7.9070  0.00  0.00     0.000 C
ATOM    105  C3  IDS B   6      52.305  -6.789   9.2410  0.00  0.00     0.000 C
ATOM    106  C4  IDS B   6      51.901  -5.335   9.4120  0.00  0.00     0.000 C
ATOM    107  C5  IDS B   6      52.169  -4.567   8.1140  0.00  0.00     0.000 C
ATOM    108  O5  IDS B   6      51.493  -5.153   7.0000  0.00  0.00     0.000 O
ATOM    109   O  IDS B   6      53.712  -6.936   9.3490  0.00  0.00     0.000 O
ATOM    111  HD  IDS B   6      53.978  -7.000   8.5270  0.00  0.00     0.000 HD
BRANCH 104 111
ATOM    111   O  IDS B   6      50.444  -7.681   8.0670  0.00  0.00     0.000 O
ATOM    112   S  IDS B   6      49.951  -9.153   7.6740  0.00  0.00     0.000 S
ATOM    113   O  IDS B   6      50.319  -9.301   6.2750  0.00  0.00     0.000 OA
ATOM    114   O  IDS B   6      50.590 -10.114   8.5810  0.00  0.00     0.000 OA
ATOM    115   O  IDS B   6      48.530  -8.990   7.8940  0.00  0.00     0.000 OA
ENDBRANCH 104 111
BRANCH 107 116
ATOM    116   C  IDS B   6      51.726  -3.120   8.2850  0.00  0.00     0.000 C
ATOM    117   O  IDS B   6      50.609  -2.848   7.9230  0.00  0.00     0.000 OA
ATOM    118   O  IDS B   6      52.474  -2.278   8.7560  0.00  0.00     0.000 OA
ENDBRANCH 107 116
BRANCH 103 119
ATOM    119  O4  SGN B   7      53.351  -6.565   6.3700  0.00  0.00     0.000 O
BRANCH 119 123
ATOM    120  C1  SGN B   7      55.610  -6.398   2.8540  0.00  0.00     0.000 C
ATOM    121  C2  SGN B   7      55.264  -5.065   3.5440  0.00  0.00     0.000 C
ATOM    122  C3  SGN B   7      54.804  -5.309   4.9860  0.00  0.00     0.000 C
ATOM    123  C4  SGN B   7      53.670  -6.321   4.9990  0.00  0.00     0.000 C
ATOM    124  C5  SGN B   7      54.111  -7.609   4.2840  0.00  0.00     0.000 C
ATOM    125  O5  SGN B   7      54.534  -7.332   2.9310  0.00  0.00     0.000 O
ATOM    126   O  SGN B   7      54.398  -4.063   5.5630  0.00  0.00     0.000 O
ATOM    128  HD  SGN B   7      54.781  -4.480   4.9080  0.00  0.00     0.000 HD
BRANCH 121 130
ATOM    128   N  SGN B   7      55.584  -4.267   2.3570  0.00  0.00     0.000 N
ATOM    130  HD  SGN B   7      55.079  -3.625   2.6440  0.00  0.00     0.000 HD
ATOM    130   S  SGN B   7      56.555  -2.984   2.4200  0.00  0.00     0.000 S
ATOM    131   O  SGN B   7      57.721  -3.433   3.1010  0.00  0.00     0.000 OA
ATOM    132   O  SGN B   7      56.653  -2.434   1.1160  0.00  0.00     0.000 OA
ATOM    133   O  SGN B   7      55.643  -1.981   3.2050  0.00  0.00     0.000 OA
ENDBRANCH 121 130
BRANCH 124 134
ATOM    134   C  SGN B   7      53.019  -8.628   4.1430  0.00  0.00     0.000 C
ATOM    135   O  SGN B   7      53.556  -9.784   3.4760  0.00  0.00     0.000 O
ATOM    136   S  SGN B   7      52.608 -11.032   3.3680  0.00  0.00     0.000 S
ATOM    137   O  SGN B   7      53.316 -12.012   2.5800  0.00  0.00     0.000 OA
ATOM    138   O  SGN B   7      51.412 -10.544   2.7190  0.00  0.00     0.000 OA
ATOM    139   O  SGN B   7      52.427 -11.410   4.7600  0.00  0.00     0.000 OA
ENDBRANCH 124 134
BRANCH 120 140
ATOM    140  O4  IDS B   8      56.625  -7.226   3.1250  0.00  0.00     0.000 O
BRANCH 140 144
ATOM    141  C1  IDS B   8      58.558 -10.263   3.1040  0.00  0.00     0.000 C
ATOM    142  C2  IDS B   8      58.610  -9.291   4.3170  0.00  0.00     0.000 C
ATOM    143  C3  IDS B   8      58.835  -7.824   3.9050  0.00  0.00     0.000 C
ATOM    144  C4  IDS B   8      57.979  -7.429   2.7030  0.00  0.00     0.000 C
ATOM    145  C5  IDS B   8      58.039  -8.524   1.6270  0.00  0.00     0.000 C
ATOM    146  O5  IDS B   8      57.626  -9.789   2.1400  0.00  0.00     0.000 O
BRANCH 142 147
ATOM    147   O  IDS B   8      57.319  -9.348   5.0530  0.00  0.00     0.000 O
ATOM    148   S  IDS B   8      57.240  -8.980   6.6310  0.00  0.00     0.000 S
ATOM    149   O  IDS B   8      58.587  -9.012   7.1560  0.00  0.00     0.000 OA
ATOM    150   O  IDS B   8      56.645  -7.659   6.6910  0.00  0.00     0.000 OA
ATOM    151   O  IDS B   8      56.405 -10.009   7.2210  0.00  0.00     0.000 OA
ENDBRANCH 142 147
BRANCH 145 152
ATOM    152   C  IDS B   8      57.130  -8.235   0.4500  0.00  0.00     0.000 C
ATOM    153   O  IDS B   8      56.059  -8.824   0.3530  0.00  0.00     0.000 OA
ATOM    154   O  IDS B   8      57.463  -7.406  -0.3780  0.00  0.00     0.000 OA
ENDBRANCH 145 152
ENDBRANCH 140 144
ENDBRANCH 120 140
ENDBRANCH 119 123
ENDBRANCH 103 119
ENDBRANCH 102 106
ENDBRANCH 82 102
ENDBRANCH 81 85
ENDBRANCH 65 81
ENDBRANCH 64 68
ENDBRANCH 41 64
ENDBRANCH 40 44
ENDBRANCH 24 40
ENDBRANCH 23 27
ENDBRANCH 1 23
TORSDOF 31
ENDMDL
MODEL 2
REMARK VINA RESULT:     -10.0      1.653      2.211
ROOT
ATOM      1  C1  SGN B   1      33.461   0.683  13.4680  0.00  0.00     0.000 C
ATOM      2  C2  SGN B   1      32.434  -0.340  12.9550  0.00  0.00     0.000 C
ATOM      3  C3  SGN B   1      32.017  -0.016  11.5160  0.00  0.00     0.000 C
ATOM      4  C4  SGN B   1      31.492   1.414  11.4290  0.00  0.00     0.000 C
ATOM      5  C5  SGN B   1      32.500   2.356  12.0830  0.00  0.00     0.000 C
ATOM      6  O5  SGN B   1      32.763   1.920  13.4310  0.00  0.00     0.000 O
ATOM      7   O  SGN B   1      31.033  -0.937  11.0610  0.00  0.00     0.000 O
ATOM      9  HD  SGN B   1      30.632  -0.569  11.7340  0.00  0.00     0.000 HD
ATOM      9   O  SGN B   1      31.306   1.765  10.0700  0.00  0.00     0.000 O
ATOM     11  HD  SGN B   1      30.905   2.132  10.7440  0.00  0.00     0.000 HD
ENDROOT
BRANCH 2 13
ATOM     11   N  SGN B   1      32.246  -1.286  14.0700  0.00  0.00     0.000 N
ATOM     13  HD  SGN B   1      33.042  -1.060  13.8140  0.00  0.00     0.000 HD
ATOM     13   S  SGN B   1      33.330  -2.421  14.4260  0.00  0.00     0.000 S
ATOM     14   O  SGN B   1      34.443  -2.315  13.5660  0.00  0.00     0.000 OA
ATOM     15   O  SGN B   1      33.532  -2.425  15.8360  0.00  0.00     0.000 OA
ATOM     16   O  SGN B   1      32.464  -3.672  14.0820  0.00  0.00     0.000 OA
ENDBRANCH 2 13
BRANCH 5 17
ATOM     17   C  SGN B   1      32.041   3.791  12.1570  0.00  0.00     0.000 C
ATOM     18   O  SGN B   1      32.162   4.437  10.8740  0.00  0.00     0.000 O
ATOM     19   S  SGN B   1      32.807   5.900  10.8830  0.00  0.00     0.000 S
ATOM     20   O  SGN B   1      32.600   6.410   9.5440  0.00  0.00     0.000 OA
ATOM     21   O  SGN B   1      32.057   6.610  11.8930  0.00  0.00     0.000 OA
ATOM     22   O  SGN B   1      34.199   5.698  11.2180  0.00  0.00     0.000 OA
ENDBRANCH 5 17
BRANCH 1 23
ATOM     23  O4  IDS B   2      34.809   0.888  13.5170  0.00  0.00     0.000 O
BRANCH 23 27
ATOM     24  C1  IDS B   2      38.805   1.359  14.5340  0.00  0.00     0.000 C
ATOM     25  C2  IDS B   2      38.046   0.256  15.3050  0.00  0.00     0.000 C
ATOM     26  C3  IDS B   2      36.695  -0.032  14.6560  0.00  0.00     0.000 C
ATOM     27  C4  IDS B   2      35.824   1.206  14.4910  0.00  0.00     0.000 C
ATOM     28  C5  IDS B   2      36.700   2.422  14.1250  0.00  0.00     0.000 C
ATOM     29  O5  IDS B   2      37.946   2.006  13.5860  0.00  0.00     0.000 O
ATOM     30   O  IDS B   2      35.977  -0.958  15.4620  0.00  0.00     0.000 O
ATOM     32  HD  IDS B   2      35.601  -0.592  16.1510  0.00  0.00     0.000 HD
BRANCH 25 32
ATOM     32   O  IDS B   2      38.803  -1.019  15.3490  0.00  0.00     0.000 O
ATOM     33   S  IDS B   2      39.236  -1.726  16.7760  0.00  0.00     0.000 S
ATOM     34   O  IDS B   2      40.141  -2.812  16.4320  0.00  0.00     0.000 OA
ATOM     35   O  IDS B   2      39.887  -0.740  17.6270  0.00  0.00     0.000 OA
ATOM     36   O  IDS B   2      38.009  -2.226  17.3520  0.00  0.00     0.000 OA
ENDBRANCH 25 32
BRANCH 28 37
ATOM     37   C  IDS B   2      36.097   3.488  13.1870  0.00  0.00     0.000 C
ATOM     38   O  IDS B   2      36.406   3.322  12.0310  0.00  0.00     0.000 OA
ATOM     39   O  IDS B   2      35.310   4.413  13.5030  0.00  0.00     0.000 OA
ENDBRANCH 28 37
BRANCH 24 40
ATOM     40  O4  SUS B   3      39.994   1.804  14.9930  0.00  0.00     0.000 O
BRANCH 40 44
ATOM     41  C1  SUS B   3      43.338   2.605  12.6010  0.00  0.00     0.000 C
ATOM     42  C2  SUS B   3      42.763   3.776  13.4230  0.00  0.00     0.000 C
ATOM     43  C3  SUS B   3      41.903   3.220  14.5560  0.00  0.00     0.000 C
ATOM     44  C4  SUS B   3      40.846   2.300  13.9660  0.00  0.00     0.000 C
ATOM     45  C5  SUS B   3      41.535   1.147  13.2660  0.00  0.00     0.000 C
ATOM     46  O5  SUS B   3      42.325   1.683  12.1860  0.00  0.00     0.000 O
BRANCH 42 49
ATOM     47   N  SUS B   3      42.841   5.164  13.9100  0.00  0.00     0.000 N
ATOM     49  HD  SUS B   3      42.093   5.598  13.9610  0.00  0.00     0.000 HD
ATOM     49   S  SUS B   3      43.878   6.054  13.0740  0.00  0.00     0.000 S
ATOM     50   O  SUS B   3      43.523   6.049  11.7100  0.00  0.00     0.000 OA
ATOM     51   O  SUS B   3      43.516   7.412  13.7280  0.00  0.00     0.000 OA
ATOM     52   O  SUS B   3      45.193   5.676  13.4080  0.00  0.00     0.000 OA
ENDBRANCH 42 49
BRANCH 43 53
ATOM     53   O  SUS B   3      41.255   4.358  15.2360  0.00  0.00     0.000 O
ATOM     54   S  SUS B   3      41.665   4.626  16.8050  0.00  0.00     0.000 S
ATOM     55   O  SUS B   3      43.030   5.133  16.8190  0.00  0.00     0.000 OA
ATOM     56   O  SUS B   3      40.679   5.586  17.2680  0.00  0.00     0.000 OA
ATOM     57   O  SUS B   3      41.573   3.331  17.4850  0.00  0.00     0.000 OA
ENDBRANCH 43 53
BRANCH 45 58
ATOM     58   C  SUS B   3      40.545   0.132  12.7370  0.00  0.00     0.000 C
ATOM     59   S  SUS B   3      39.085  -0.411  10.6980  0.00  0.00     0.000 S
ATOM     60   O  SUS B   3      40.264   0.416  11.3560  0.00  0.00     0.000 O
ATOM     61   O  SUS B   3      37.868   0.216  11.1760  0.00  0.00     0.000 OA
ATOM     62   O  SUS B   3      39.328  -0.159   9.3030  0.00  0.00     0.000 OA
ATOM     63   O  SUS B   3      39.283  -1.754  11.1160  0.00  0.00     0.000 OA
ENDBRANCH 45 58
BRANCH 41 64
ATOM     64  O4  IDS B   4      44.436   2.012  13.1760  0.00  0.00     0.000 O
BRANCH 64 68
ATOM     65  C1  IDS B   4      47.583   0.217  13.5630  0.00  0.00     0.000 C
ATOM     66  C2  IDS B   4      47.572   1.646  13.0050  0.00  0.00     0.000 C
ATOM     67  C3  IDS B   4      46.525   1.893  11.9320  0.00  0.00     0.000 C
ATOM     68  C4  IDS B   4      45.199   1.223  12.2370  0.00  0.00     0.000 C
ATOM     69  C5  IDS B   4      45.485  -0.202  12.7270  0.00  0.00     0.000 C
ATOM     70  O5  IDS B   4      46.261  -0.141  13.9260  0.00  0.00     0.000 O
ATOM     71   O  IDS B   4      47.045   1.394  10.7170  0.00  0.00     0.000 O
ATOM     73  HD  IDS B   4      47.087   1.673  11.5350  0.00  0.00     0.000 HD
BRANCH 66 73
ATOM     73   O  IDS B   4      47.244   2.576  14.0940  0.00  0.00     0.000 O
ATOM     74   S  IDS B   4      48.340   3.698  14.4890  0.00  0.00     0.000 S
ATOM     75   O  IDS B   4      49.558   2.986  14.8100  0.00  0.00     0.000 OA
ATOM     76   O  IDS B   4      47.717   4.335  15.6220  0.00  0.00     0.000 OA
ATOM     77   O  IDS B   4      48.463   4.544  13.3260  0.00  0.00     0.000 OA
ENDBRANCH 66 73
BRANCH 69 78
ATOM     78   C  IDS B   4      44.249  -1.080  12.8660  0.00  0.00     0.000 C
ATOM     79   O  IDS B   4      43.861  -1.380  13.9940  0.00  0.00     0.000 OA
ATOM     80   O  IDS B   4      43.611  -1.378  11.8390  0.00  0.00     0.000 OA
ENDBRANCH 69 78
BRANCH 65 81
ATOM     81  O4  SGN B   5      48.222  -0.607  12.6870  0.00  0.00     0.000 O
BRANCH 81 85
ATOM     82  C1  SGN B   5      50.660  -4.015  12.4040  0.00  0.00     0.000 C
ATOM     83  C2  SGN B   5      49.234  -4.219  12.9360  0.00  0.00     0.000 C
ATOM     84  C3  SGN B   5      48.362  -3.018  12.5440  0.00  0.00     0.000 C
ATOM     85  C4  SGN B   5      49.011  -1.742  13.0500  0.00  0.00     0.000 C
ATOM     86  C5  SGN B   5      50.406  -1.638  12.4370  0.00  0.00     0.000 C
ATOM     87  O5  SGN B   5      51.180  -2.779  12.8550  0.00  0.00     0.000 O
ATOM     88   O  SGN B   5      47.065  -3.172  13.0780  0.00  0.00     0.000 O
ATOM     90  HD  SGN B   5      47.290  -3.322  12.2550  0.00  0.00     0.000 HD
BRANCH 83 92
ATOM     90   N  SGN B   5      49.735  -5.605  12.8580  0.00  0.00     0.000 N
ATOM     92  HD  SGN B   5      50.568  -5.648  13.0910  0.00  0.00     0.000 HD
ATOM     92   S  SGN B   5      48.810  -6.772  13.4390  0.00  0.00     0.000 S
ATOM     93   O  SGN B   5      49.569  -7.967  13.2230  0.00  0.00     0.000 OA
ATOM     94   O  SGN B   5      48.470  -6.373  14.7620  0.00  0.00     0.000 OA
ATOM     95   O  SGN B   5      47.546  -6.710  12.6100  0.00  0.00     0.000 OA
ENDBRANCH 83 92
BRANCH 86 96
ATOM     96   C  SGN B   5      51.173  -0.398  12.8470  0.00  0.00     0.000 C
ATOM     97   O  SGN B   5      51.057  -0.178  14.2550  0.00  0.00     0.000 O
ATOM     98   S  SGN B   5      52.431   0.053  15.0490  0.00  0.00     0.000 S
ATOM     99   O  SGN B   5      51.978   0.440  16.3630  0.00  0.00     0.000 OA
ATOM    100   O  SGN B   5      53.157  -1.165  15.0070  0.00  0.00     0.000 OA
ATOM    101   O  SGN B   5      53.077   1.109  14.3390  0.00  0.00     0.000 OA
ENDBRANCH 86 96
BRANCH 82 102
ATOM    102  O4  IDS B   6      50.728  -4.090  11.0440  0.00  0.00     0.000 O
BRANCH 102 106
ATOM    103  C1  IDS B   6      51.868  -5.851   8.0680  0.00  0.00     0.000 C
ATOM    104  C2  IDS B   6      51.586  -6.613   9.3720  0.00  0.00     0.000 C
ATOM    105  C3  IDS B   6      52.185  -5.995  10.6210  0.00  0.00     0.000 C
ATOM    106  C4  IDS B   6      52.065  -4.481  10.6410  0.00  0.00     0.000 C
ATOM    107  C5  IDS B   6      52.404  -3.917   9.2590  0.00  0.00     0.000 C
ATOM    108  O5  IDS B   6      51.577  -4.476   8.2370  0.00  0.00     0.000 O
ATOM    109   O  IDS B   6      53.544  -6.394  10.7020  0.00  0.00     0.000 O
ATOM    111  HD  IDS B   6      53.752  -6.591   9.8850  0.00  0.00     0.000 HD
BRANCH 104 111
ATOM    111   O  IDS B   6      50.134  -6.637   9.6090  0.00  0.00     0.000 O
ATOM    112   S  IDS B   6      49.337  -7.982   9.2660  0.00  0.00     0.000 S
ATOM    113   O  IDS B   6      49.594  -8.209   7.8520  0.00  0.00     0.000 OA
ATOM    114   O  IDS B   6      49.818  -9.046  10.1550  0.00  0.00     0.000 OA
ATOM    115   O  IDS B   6      47.991  -7.536   9.5540  0.00  0.00     0.000 OA
ENDBRANCH 104 111
BRANCH 107 116
ATOM    116   C  IDS B   6      52.246  -2.402   9.2800  0.00  0.00     0.000 C
ATOM    117   O  IDS B   6      51.473  -1.926   8.4870  0.00  0.00     0.000 OA
ATOM    118   O  IDS B   6      52.881  -1.708  10.0580  0.00  0.00     0.000 OA
ENDBRANCH 107 116
BRANCH 103 119
ATOM    119  O4  SGN B   7      53.109  -6.271   7.7120  0.00  0.00     0.000 O
BRANCH 119 123
ATOM    120  C1  SGN B   7      55.213  -6.843   4.1430  0.00  0.00     0.000 C
ATOM    121  C2  SGN B   7      54.811  -5.403   4.5110  0.00  0.00     0.000 C
ATOM    122  C3  SGN B   7      54.424  -5.314   5.9930  0.00  0.00     0.000 C
ATOM    123  C4  SGN B   7      53.358  -6.350   6.3080  0.00  0.00     0.000 C
ATOM    124  C5  SGN B   7      53.851  -7.748   5.9000  0.00  0.00     0.000 C
ATOM    125  O5  SGN B   7      54.202  -7.786   4.4990  0.00  0.00     0.000 O
ATOM    126   O  SGN B   7      53.963  -3.988   6.2760  0.00  0.00     0.000 O
ATOM    128  HD  SGN B   7      54.346  -4.531   5.7200  0.00  0.00     0.000 HD
BRANCH 121 130
ATOM    128   N  SGN B   7      55.937  -4.533   4.1620  0.00  0.00     0.000 N
ATOM    130  HD  SGN B   7      56.151  -5.061   3.5090  0.00  0.00     0.000 HD
ATOM    130   S  SGN B   7      55.922  -3.592   2.8550  0.00  0.00     0.000 S
ATOM    131   O  SGN B   7      54.690  -2.883   2.9210  0.00  0.00     0.000 OA
ATOM    132   O  SGN B   7      57.152  -2.888   2.7980  0.00  0.00     0.000 OA
ATOM    133   O  SGN B   7      56.033  -4.674   1.7280  0.00  0.00     0.000 OA
ENDBRANCH 121 130
BRANCH 124 134
ATOM    134   C  SGN B   7      52.821  -8.827   6.0650  0.00  0.00     0.000 C
ATOM    135   O  SGN B   7      53.467  -9.998   6.5930  0.00  0.00     0.000 O
ATOM    136   S  SGN B   7      52.530 -11.197   6.9840  0.00  0.00     0.000 S
ATOM    137   O  SGN B   7      53.399 -12.278   7.3830  0.00  0.00     0.000 OA
ATOM    138   O  SGN B   7      51.774 -11.493   5.7880  0.00  0.00     0.000 OA
ATOM    139   O  SGN B   7      51.743 -10.638   8.0720  0.00  0.00     0.000 OA
ENDBRANCH 124 134
BRANCH 120 140
ATOM    140  O4  IDS B   8      56.288  -7.527   4.5500  0.00  0.00     0.000 O
BRANCH 140 144
ATOM    141  C1  IDS B   8      59.312  -9.424   5.0180  0.00  0.00     0.000 C
ATOM    142  C2  IDS B   8      57.936  -9.986   5.4760  0.00  0.00     0.000 C
ATOM    143  C3  IDS B   8      57.116  -8.977   6.3000  0.00  0.00     0.000 C
ATOM    144  C4  IDS B   8      57.153  -7.576   5.6920  0.00  0.00     0.000 C
ATOM    145  C5  IDS B   8      58.589  -7.215   5.2820  0.00  0.00     0.000 C
ATOM    146  O5  IDS B   8      59.134  -8.169   4.3740  0.00  0.00     0.000 O
BRANCH 142 147
ATOM    147   O  IDS B   8      57.124 -10.344   4.2830  0.00  0.00     0.000 O
ATOM    148   S  IDS B   8      56.406 -11.793   4.1650  0.00  0.00     0.000 S
ATOM    149   O  IDS B   8      57.018 -12.667   5.1400  0.00  0.00     0.000 OA
ATOM    150   O  IDS B   8      55.000 -11.551   4.4310  0.00  0.00     0.000 OA
ATOM    151   O  IDS B   8      56.660 -12.235   2.8070  0.00  0.00     0.000 OA
ENDBRANCH 142 147
BRANCH 145 152
ATOM    152   C  IDS B   8      58.675  -5.874   4.5800  0.00  0.00     0.000 C
ATOM    153   O  IDS B   8      58.764  -5.837   3.3580  0.00  0.00     0.000 OA
ATOM    154   O  IDS B   8      58.635  -4.848   5.2350  0.00  0.00     0.000 OA
ENDBRANCH 145 152
ENDBRANCH 140 144
ENDBRANCH 120 140
ENDBRANCH 119 123
ENDBRANCH 103 119
ENDBRANCH 102 106
ENDBRANCH 82 102
ENDBRANCH 81 85
ENDBRANCH 65 81
ENDBRANCH 64 68
ENDBRANCH 41 64
ENDBRANCH 40 44
ENDBRANCH 24 40
ENDBRANCH 23 27
ENDBRANCH 1 23
TORSDOF 31
ENDMDL
MODEL 3
REMARK VINA RESULT:      -9.9      7.829     12.751
ROOT
ATOM      1  C1  SGN B   1      33.535   1.494  11.1480  0.00  0.00     0.000 C
ATOM      2  C2  SGN B   1      32.060   1.928  11.1660  0.00  0.00     0.000 C
ATOM      3  C3  SGN B   1      31.134   0.707  11.1250  0.00  0.00     0.000 C
ATOM      4  C4  SGN B   1      31.460  -0.160   9.9140  0.00  0.00     0.000 C
ATOM      5  C5  SGN B   1      32.962  -0.434   9.8840  0.00  0.00     0.000 C
ATOM      6  O5  SGN B   1      33.679   0.816   9.9080  0.00  0.00     0.000 O
ATOM      7   O  SGN B   1      29.771   1.114  11.0960  0.00  0.00     0.000 O
ATOM      9  HD  SGN B   1      30.076   1.467  10.3660  0.00  0.00     0.000 HD
ATOM      9   O  SGN B   1      30.743  -1.378  10.0010  0.00  0.00     0.000 O
ATOM     11  HD  SGN B   1      31.048  -1.025   9.2710  0.00  0.00     0.000 HD
ENDROOT
BRANCH 2 13
ATOM     11   N  SGN B   1      32.188   3.397  11.2190  0.00  0.00     0.000 N
ATOM     13  HD  SGN B   1      32.583   2.899  11.8070  0.00  0.00     0.000 HD
ATOM     13   S  SGN B   1      32.436   4.188  12.5980  0.00  0.00     0.000 S
ATOM     14   O  SGN B   1      32.556   3.275  13.6670  0.00  0.00     0.000 OA
ATOM     15   O  SGN B   1      33.460   5.154  12.3840  0.00  0.00     0.000 OA
ATOM     16   O  SGN B   1      31.081   4.959  12.6590  0.00  0.00     0.000 OA
ENDBRANCH 2 13
BRANCH 5 17
ATOM     17   C  SGN B   1      33.424  -1.194   8.6660  0.00  0.00     0.000 C
ATOM     18   O  SGN B   1      34.837  -1.470   8.7370  0.00  0.00     0.000 O
ATOM     19   S  SGN B   1      35.673  -1.197   7.4010  0.00  0.00     0.000 S
ATOM     20   O  SGN B   1      36.980  -1.764   7.6540  0.00  0.00     0.000 OA
ATOM     21   O  SGN B   1      34.931  -1.890   6.3740  0.00  0.00     0.000 OA
ATOM     22   O  SGN B   1      35.683   0.242   7.2510  0.00  0.00     0.000 OA
ENDBRANCH 5 17
BRANCH 1 23
ATOM     23  O4  IDS B   2      34.545   1.162  12.0020  0.00  0.00     0.000 O
BRANCH 23 27
ATOM     24  C1  IDS B   2      38.351   0.204  13.3540  0.00  0.00     0.000 C
ATOM     25  C2  IDS B   2      38.197   0.320  11.8210  0.00  0.00     0.000 C
ATOM     26  C3  IDS B   2      36.861   0.958  11.4540  0.00  0.00     0.000 C
ATOM     27  C4  IDS B   2      35.660   0.248  12.0630  0.00  0.00     0.000 C
ATOM     28  C5  IDS B   2      36.004  -0.244  13.4840  0.00  0.00     0.000 C
ATOM     29  O5  IDS B   2      37.108   0.473  14.0150  0.00  0.00     0.000 O
ATOM     30   O  IDS B   2      36.703   0.933  10.0400  0.00  0.00     0.000 O
ATOM     32  HD  IDS B   2      36.451   0.161   9.7380  0.00  0.00     0.000 HD
BRANCH 25 32
ATOM     32   O  IDS B   2      39.270   1.142  11.2100  0.00  0.00     0.000 O
ATOM     33   S  IDS B   2      40.373   0.499  10.1640  0.00  0.00     0.000 S
ATOM     34   O  IDS B   2      41.381   1.526   9.9570  0.00  0.00     0.000 OA
ATOM     35   O  IDS B   2      40.950  -0.703  10.7490  0.00  0.00     0.000 OA
ATOM     36   O  IDS B   2      39.643   0.224   8.9480  0.00  0.00     0.000 OA
ENDBRANCH 25 32
BRANCH 28 37
ATOM     37   C  IDS B   2      34.877  -0.249  14.5370  0.00  0.00     0.000 C
ATOM     38   O  IDS B   2      35.251   0.120  15.6250  0.00  0.00     0.000 OA
ATOM     39   O  IDS B   2      33.667  -0.527  14.3470  0.00  0.00     0.000 OA
ENDBRANCH 28 37
BRANCH 24 40
ATOM     40  O4  SUS B   3      39.440  -0.397  13.8770  0.00  0.00     0.000 O
BRANCH 40 44
ATOM     41  C1  SUS B   3      41.689   0.553  17.2810  0.00  0.00     0.000 C
ATOM     42  C2  SUS B   3      40.308  -0.095  17.5070  0.00  0.00     0.000 C
ATOM     43  C3  SUS B   3      39.865  -0.793  16.2230  0.00  0.00     0.000 C
ATOM     44  C4  SUS B   3      39.897   0.210  15.0810  0.00  0.00     0.000 C
ATOM     45  C5  SUS B   3      41.319   0.702  14.9010  0.00  0.00     0.000 C
ATOM     46  O5  SUS B   3      41.717   1.378  16.1110  0.00  0.00     0.000 O
BRANCH 42 49
ATOM     47   N  SUS B   3      39.631   0.567  18.6350  0.00  0.00     0.000 N
ATOM     49  HD  SUS B   3      39.935   1.345  18.8660  0.00  0.00     0.000 HD
ATOM     49   S  SUS B   3      39.569  -0.353  19.9440  0.00  0.00     0.000 S
ATOM     50   O  SUS B   3      40.873  -0.728  20.3290  0.00  0.00     0.000 OA
ATOM     51   O  SUS B   3      39.009   0.732  20.9000  0.00  0.00     0.000 OA
ATOM     52   O  SUS B   3      38.625  -1.380  19.7490  0.00  0.00     0.000 OA
ENDBRANCH 42 49
BRANCH 43 53
ATOM     53   O  SUS B   3      38.486  -1.281  16.4240  0.00  0.00     0.000 O
ATOM     54   S  SUS B   3      38.211  -2.880  16.1640  0.00  0.00     0.000 S
ATOM     55   O  SUS B   3      38.845  -3.614  17.2510  0.00  0.00     0.000 OA
ATOM     56   O  SUS B   3      36.764  -2.991  16.1490  0.00  0.00     0.000 OA
ATOM     57   O  SUS B   3      38.829  -3.203  14.8750  0.00  0.00     0.000 OA
ENDBRANCH 43 53
BRANCH 45 58
ATOM     58   C  SUS B   3      41.451   1.631  13.7150  0.00  0.00     0.000 C
ATOM     59   S  SUS B   3      41.115   4.072  12.9970  0.00  0.00     0.000 S
ATOM     60   O  SUS B   3      41.230   2.986  14.1430  0.00  0.00     0.000 O
ATOM     61   O  SUS B   3      39.776   3.919  12.4620  0.00  0.00     0.000 OA
ATOM     62   O  SUS B   3      41.275   5.282  13.7580  0.00  0.00     0.000 OA
ATOM     63   O  SUS B   3      42.169   3.781  12.0910  0.00  0.00     0.000 OA
ENDBRANCH 45 58
BRANCH 41 64
ATOM     64  O4  IDS B   4      42.737  -0.331  17.3700  0.00  0.00     0.000 O
BRANCH 64 68
ATOM     65  C1  IDS B   4      46.091  -1.685  17.8060  0.00  0.00     0.000 C
ATOM     66  C2  IDS B   4      45.224  -1.360  19.0300  0.00  0.00     0.000 C
ATOM     67  C3  IDS B   4      44.541  -0.004  18.9720  0.00  0.00     0.000 C
ATOM     68  C4  IDS B   4      44.003   0.328  17.5930  0.00  0.00     0.000 C
ATOM     69  C5  IDS B   4      45.075  -0.046  16.5600  0.00  0.00     0.000 C
ATOM     70  O5  IDS B   4      45.332  -1.450  16.6340  0.00  0.00     0.000 O
ATOM     71   O  IDS B   4      45.496   0.963  19.3570  0.00  0.00     0.000 O
ATOM     73  HD  IDS B   4      45.167   0.165  19.2900  0.00  0.00     0.000 HD
BRANCH 66 73
ATOM     73   O  IDS B   4      44.135  -2.343  19.1130  0.00  0.00     0.000 O
ATOM     74   S  IDS B   4      44.076  -3.299  20.4170  0.00  0.00     0.000 S
ATOM     75   O  IDS B   4      45.351  -3.980  20.4840  0.00  0.00     0.000 OA
ATOM     76   O  IDS B   4      42.966  -4.163  20.1000  0.00  0.00     0.000 OA
ATOM     77   O  IDS B   4      43.840  -2.415  21.5330  0.00  0.00     0.000 OA
ENDBRANCH 66 73
BRANCH 69 78
ATOM     78   C  IDS B   4      44.777   0.428  15.1440  0.00  0.00     0.000 C
ATOM     79   O  IDS B   4      44.836   1.633  14.8990  0.00  0.00     0.000 OA
ATOM     80   O  IDS B   4      44.588  -0.425  14.2580  0.00  0.00     0.000 OA
ENDBRANCH 69 78
BRANCH 65 81
ATOM     81  O4  SGN B   5      47.281  -1.032  17.9080  0.00  0.00     0.000 O
BRANCH 81 85
ATOM     82  C1  SGN B   5      51.396  -1.400  17.1530  0.00  0.00     0.000 C
ATOM     83  C2  SGN B   5      50.507  -0.965  15.9780  0.00  0.00     0.000 C
ATOM     84  C3  SGN B   5      49.169  -0.439  16.5140  0.00  0.00     0.000 C
ATOM     85  C4  SGN B   5      48.526  -1.503  17.3870  0.00  0.00     0.000 C
ATOM     86  C5  SGN B   5      49.488  -1.833  18.5260  0.00  0.00     0.000 C
ATOM     87  O5  SGN B   5      50.714  -2.338  17.9630  0.00  0.00     0.000 O
ATOM     88   O  SGN B   5      48.325  -0.090  15.4390  0.00  0.00     0.000 O
ATOM     90  HD  SGN B   5      48.777   0.467  15.9230  0.00  0.00     0.000 HD
BRANCH 83 92
ATOM     90   N  SGN B   5      51.610  -1.421  15.1100  0.00  0.00     0.000 N
ATOM     92  HD  SGN B   5      51.554  -2.272  14.9580  0.00  0.00     0.000 HD
ATOM     92   S  SGN B   5      51.982  -0.530  13.8360  0.00  0.00     0.000 S
ATOM     93   O  SGN B   5      53.063  -1.235  13.2140  0.00  0.00     0.000 OA
ATOM     94   O  SGN B   5      50.761  -0.333  13.1330  0.00  0.00     0.000 OA
ATOM     95   O  SGN B   5      52.394   0.808  14.4110  0.00  0.00     0.000 OA
ENDBRANCH 83 92
BRANCH 86 96
ATOM     96   C  SGN B   5      48.970  -2.880  19.4910  0.00  0.00     0.000 C
ATOM     97   O  SGN B   5      48.501  -4.029  18.7820  0.00  0.00     0.000 O
ATOM     98   S  SGN B   5      49.068  -5.445  19.2770  0.00  0.00     0.000 S
ATOM     99   O  SGN B   5      48.273  -6.386  18.5260  0.00  0.00     0.000 OA
ATOM    100   O  SGN B   5      50.456  -5.474  18.9830  0.00  0.00     0.000 OA
ATOM    101   O  SGN B   5      48.796  -5.465  20.6780  0.00  0.00     0.000 OA
ENDBRANCH 86 96
BRANCH 82 102
ATOM    102  O4  IDS B   6      51.825  -0.347  17.9040  0.00  0.00     0.000 O
BRANCH 102 106
ATOM    103  C1  IDS B   6      54.230   1.947  19.3920  0.00  0.00     0.000 C
ATOM    104  C2  IDS B   6      54.209   1.705  17.8740  0.00  0.00     0.000 C
ATOM    105  C3  IDS B   6      54.143   0.249  17.4560  0.00  0.00     0.000 C
ATOM    106  C4  IDS B   6      53.197  -0.566  18.3200  0.00  0.00     0.000 C
ATOM    107  C5  IDS B   6      53.387  -0.191  19.7920  0.00  0.00     0.000 C
ATOM    108  O5  IDS B   6      53.197   1.207  20.0150  0.00  0.00     0.000 O
ATOM    109   O  IDS B   6      55.456  -0.284  17.5060  0.00  0.00     0.000 O
ATOM    111  HD  IDS B   6      55.872   0.237  18.0590  0.00  0.00     0.000 HD
BRANCH 104 111
ATOM    111   O  IDS B   6      53.003   2.327  17.3060  0.00  0.00     0.000 O
ATOM    112   S  IDS B   6      53.169   3.712  16.5210  0.00  0.00     0.000 S
ATOM    113   O  IDS B   6      53.759   4.617  17.4950  0.00  0.00     0.000 OA
ATOM    114   O  IDS B   6      53.992   3.475  15.3290  0.00  0.00     0.000 OA
ATOM    115   O  IDS B   6      51.778   3.986  16.2320  0.00  0.00     0.000 OA
ENDBRANCH 104 111
BRANCH 107 116
ATOM    116   C  IDS B   6      52.409  -0.988  20.6460  0.00  0.00     0.000 C
ATOM    117   O  IDS B   6      52.593  -2.177  20.7150  0.00  0.00     0.000 OA
ATOM    118   O  IDS B   6      51.479  -0.445  21.2210  0.00  0.00     0.000 OA
ENDBRANCH 107 116
BRANCH 103 119
ATOM    119  O4  SGN B   7      55.532   1.765  19.7280  0.00  0.00     0.000 O
BRANCH 119 123
ATOM    120  C1  SGN B   7      58.139   3.195  22.6690  0.00  0.00     0.000 C
ATOM    121  C2  SGN B   7      56.983   2.283  23.1230  0.00  0.00     0.000 C
ATOM    122  C3  SGN B   7      56.385   1.536  21.9240  0.00  0.00     0.000 C
ATOM    123  C4  SGN B   7      55.998   2.529  20.8410  0.00  0.00     0.000 C
ATOM    124  C5  SGN B   7      57.213   3.393  20.4640  0.00  0.00     0.000 C
ATOM    125  O5  SGN B   7      57.741   4.078  21.6210  0.00  0.00     0.000 O
ATOM    126   O  SGN B   7      55.254   0.777  22.3650  0.00  0.00     0.000 O
ATOM    128  HD  SGN B   7      55.947   1.253  22.5730  0.00  0.00     0.000 HD
BRANCH 121 130
ATOM    128   N  SGN B   7      57.556   2.520  24.4500  0.00  0.00     0.000 N
ATOM    130  HD  SGN B   7      56.794   2.817  24.7340  0.00  0.00     0.000 HD
ATOM    130   S  SGN B   7      57.204   1.590  25.7170  0.00  0.00     0.000 S
ATOM    131   O  SGN B   7      57.411   0.256  25.2670  0.00  0.00     0.000 OA
ATOM    132   O  SGN B   7      57.909   2.085  26.8440  0.00  0.00     0.000 OA
ATOM    133   O  SGN B   7      55.715   2.008  25.9660  0.00  0.00     0.000 OA
ENDBRANCH 121 130
BRANCH 124 134
ATOM    134   C  SGN B   7      56.901   4.484  19.4820  0.00  0.00     0.000 C
ATOM    135   O  SGN B   7      57.141   5.752  20.1150  0.00  0.00     0.000 O
ATOM    136   S  SGN B   7      57.020   7.024  19.2020  0.00  0.00     0.000 S
ATOM    137   O  SGN B   7      57.197   8.165  20.0690  0.00  0.00     0.000 OA
ATOM    138   O  SGN B   7      55.696   6.952  18.6270  0.00  0.00     0.000 OA
ATOM    139   O  SGN B   7      58.102   6.830  18.2500  0.00  0.00     0.000 OA
ENDBRANCH 124 134
BRANCH 120 140
ATOM    140  O4  IDS B   8      59.335   2.832  22.1940  0.00  0.00     0.000 O
BRANCH 140 144
ATOM    141  C1  IDS B   8      62.294   1.914  20.3590  0.00  0.00     0.000 C
ATOM    142  C2  IDS B   8      61.537   0.871  21.2290  0.00  0.00     0.000 C
ATOM    143  C3  IDS B   8      61.219   1.384  22.6460  0.00  0.00     0.000 C
ATOM    144  C4  IDS B   8      60.700   2.821  22.6320  0.00  0.00     0.000 C
ATOM    145  C5  IDS B   8      61.561   3.686  21.6990  0.00  0.00     0.000 C
ATOM    146  O5  IDS B   8      61.601   3.156  20.3770  0.00  0.00     0.000 O
BRANCH 142 147
ATOM    147   O  IDS B   8      60.242   0.532  20.5830  0.00  0.00     0.000 O
ATOM    148   S  IDS B   8      60.009  -0.912  19.8830  0.00  0.00     0.000 S
ATOM    149   O  IDS B   8      61.307  -1.518  19.6860  0.00  0.00     0.000 OA
ATOM    150   O  IDS B   8      59.175  -1.660  20.8060  0.00  0.00     0.000 OA
ATOM    151   O  IDS B   8      59.349  -0.625  18.6250  0.00  0.00     0.000 OA
ENDBRANCH 142 147
BRANCH 145 152
ATOM    152   C  IDS B   8      61.035   5.101  21.5660  0.00  0.00     0.000 C
ATOM    153   O  IDS B   8      60.554   5.469  20.5000  0.00  0.00     0.000 OA
ATOM    154   O  IDS B   8      61.077   5.852  22.5240  0.00  0.00     0.000 OA
ENDBRANCH 145 152
ENDBRANCH 140 144
ENDBRANCH 120 140
ENDBRANCH 119 123
ENDBRANCH 103 119
ENDBRANCH 102 106
ENDBRANCH 82 102
ENDBRANCH 81 85
ENDBRANCH 65 81
ENDBRANCH 64 68
ENDBRANCH 41 64
ENDBRANCH 40 44
ENDBRANCH 24 40
ENDBRANCH 23 27
ENDBRANCH 1 23
TORSDOF 31
ENDMDL
MODEL 4
REMARK VINA RESULT:      -9.7      9.545     17.688
ROOT
ATOM      1  C1  SGN B   1      44.984 -10.005  24.5800  0.00  0.00     0.000 C
ATOM      2  C2  SGN B   1      44.041  -9.943  25.7920  0.00  0.00     0.000 C
ATOM      3  C3  SGN B   1      44.673 -10.630  27.0070  0.00  0.00     0.000 C
ATOM      4  C4  SGN B   1      45.061 -12.063  26.6590  0.00  0.00     0.000 C
ATOM      5  C5  SGN B   1      45.876 -12.060  25.3680  0.00  0.00     0.000 C
ATOM      6  O5  SGN B   1      45.131 -11.397  24.3290  0.00  0.00     0.000 O
ATOM      7   O  SGN B   1      43.779 -10.610  28.1140  0.00  0.00     0.000 O
ATOM      9  HD  SGN B   1      43.327 -11.063  27.5310  0.00  0.00     0.000 HD
ATOM      9   O  SGN B   1      45.823 -12.615  27.7170  0.00  0.00     0.000 O
ATOM     11  HD  SGN B   1      45.371 -13.068  27.1340  0.00  0.00     0.000 HD
ENDROOT
BRANCH 2 13
ATOM     11   N  SGN B   1      42.825  -9.185  25.4420  0.00  0.00     0.000 N
ATOM     13  HD  SGN B   1      43.600  -8.933  25.1490  0.00  0.00     0.000 HD
ATOM     13   S  SGN B   1      42.857  -7.608  25.1240  0.00  0.00     0.000 S
ATOM     14   O  SGN B   1      44.181  -7.127  25.1860  0.00  0.00     0.000 OA
ATOM     15   O  SGN B   1      42.078  -7.368  23.9560  0.00  0.00     0.000 OA
ATOM     16   O  SGN B   1      42.018  -7.118  26.3450  0.00  0.00     0.000 OA
ENDBRANCH 2 13
BRANCH 5 17
ATOM     17   C  SGN B   1      46.228 -13.437  24.8600  0.00  0.00     0.000 C
ATOM     18   O  SGN B   1      47.591 -13.481  24.3940  0.00  0.00     0.000 O
ATOM     19   S  SGN B   1      47.829 -14.214  22.9930  0.00  0.00     0.000 S
ATOM     20   O  SGN B   1      49.267 -14.330  22.8700  0.00  0.00     0.000 OA
ATOM     21   O  SGN B   1      47.157 -15.484  23.1410  0.00  0.00     0.000 OA
ATOM     22   O  SGN B   1      47.232 -13.344  22.0040  0.00  0.00     0.000 OA
ENDBRANCH 5 17
BRANCH 1 23
ATOM     23  O4  IDS B   2      45.990  -9.298  23.9910  0.00  0.00     0.000 O
BRANCH 23 27
ATOM     24  C1  IDS B   2      45.670  -6.039  21.4390  0.00  0.00     0.000 C
ATOM     25  C2  IDS B   2      45.032  -7.350  20.9300  0.00  0.00     0.000 C
ATOM     26  C3  IDS B   2      44.942  -8.384  22.0490  0.00  0.00     0.000 C
ATOM     27  C4  IDS B   2      46.277  -8.664  22.7270  0.00  0.00     0.000 C
ATOM     28  C5  IDS B   2      47.094  -7.360  22.8380  0.00  0.00     0.000 C
ATOM     29  O5  IDS B   2      46.251  -6.223  22.7380  0.00  0.00     0.000 O
ATOM     30   O  IDS B   2      44.467  -9.614  21.5140  0.00  0.00     0.000 O
ATOM     32  HD  IDS B   2      45.080 -10.067  21.1030  0.00  0.00     0.000 HD
BRANCH 25 32
ATOM     32   O  IDS B   2      43.661  -7.139  20.4040  0.00  0.00     0.000 O
ATOM     33   S  IDS B   2      43.263  -7.489  18.8410  0.00  0.00     0.000 S
ATOM     34   O  IDS B   2      41.928  -6.951  18.6320  0.00  0.00     0.000 OA
ATOM     35   O  IDS B   2      44.232  -6.873  17.9460  0.00  0.00     0.000 OA
ATOM     36   O  IDS B   2      43.270  -8.931  18.7510  0.00  0.00     0.000 OA
ENDBRANCH 25 32
BRANCH 28 37
ATOM     37   C  IDS B   2      48.003  -7.183  24.0720  0.00  0.00     0.000 C
ATOM     38   O  IDS B   2      49.156  -7.465  23.8470  0.00  0.00     0.000 OA
ATOM     39   O  IDS B   2      47.670  -6.736  25.1970  0.00  0.00     0.000 OA
ENDBRANCH 28 37
BRANCH 24 40
ATOM     40  O4  SUS B   3      45.899  -5.024  20.5800  0.00  0.00     0.000 O
BRANCH 40 44
ATOM     41  C1  SUS B   3      45.916  -0.884  21.2150  0.00  0.00     0.000 C
ATOM     42  C2  SUS B   3      47.087  -1.693  21.8070  0.00  0.00     0.000 C
ATOM     43  C3  SUS B   3      47.179  -3.040  21.0950  0.00  0.00     0.000 C
ATOM     44  C4  SUS B   3      45.833  -3.741  21.1920  0.00  0.00     0.000 C
ATOM     45  C5  SUS B   3      44.788  -2.892  20.4970  0.00  0.00     0.000 C
ATOM     46  O5  SUS B   3      44.695  -1.632  21.1920  0.00  0.00     0.000 O
BRANCH 42 49
ATOM     47   N  SUS B   3      48.196  -1.799  22.7710  0.00  0.00     0.000 N
ATOM     49  HD  SUS B   3      48.042  -2.255  23.4900  0.00  0.00     0.000 HD
ATOM     49   S  SUS B   3      48.778  -0.370  23.2030  0.00  0.00     0.000 S
ATOM     50   O  SUS B   3      47.749   0.421  23.7510  0.00  0.00     0.000 OA
ATOM     51   O  SUS B   3      49.721  -0.890  24.3180  0.00  0.00     0.000 OA
ATOM     52   O  SUS B   3      49.521   0.173  22.1360  0.00  0.00     0.000 OA
ENDBRANCH 42 49
BRANCH 43 53
ATOM     53   O  SUS B   3      48.213  -3.844  21.7740  0.00  0.00     0.000 O
ATOM     54   S  SUS B   3      49.570  -4.201  20.9170  0.00  0.00     0.000 S
ATOM     55   O  SUS B   3      50.333  -2.968  20.7760  0.00  0.00     0.000 OA
ATOM     56   O  SUS B   3      50.235  -5.214  21.7170  0.00  0.00     0.000 OA
ATOM     57   O  SUS B   3      49.118  -4.697  19.6140  0.00  0.00     0.000 OA
ENDBRANCH 43 53
BRANCH 45 58
ATOM     58   C  SUS B   3      43.436  -3.572  20.4640  0.00  0.00     0.000 C
ATOM     59   S  SUS B   3      40.940  -3.154  20.8870  0.00  0.00     0.000 S
ATOM     60   O  SUS B   3      42.405  -2.593  20.6740  0.00  0.00     0.000 O
ATOM     61   O  SUS B   3      40.910  -3.625  22.2580  0.00  0.00     0.000 OA
ATOM     62   O  SUS B   3      40.164  -1.959  20.6920  0.00  0.00     0.000 OA
ATOM     63   O  SUS B   3      40.770  -4.157  19.8960  0.00  0.00     0.000 OA
ENDBRANCH 45 58
BRANCH 41 64
ATOM     64  O4  IDS B   4      46.217  -0.263  20.0270  0.00  0.00     0.000 O
BRANCH 64 68
ATOM     65  C1  IDS B   4      46.109   2.170  17.3180  0.00  0.00     0.000 C
ATOM     66  C2  IDS B   4      46.397   2.626  18.7540  0.00  0.00     0.000 C
ATOM     67  C3  IDS B   4      45.461   2.040  19.7980  0.00  0.00     0.000 C
ATOM     68  C4  IDS B   4      45.143   0.578  19.5500  0.00  0.00     0.000 C
ATOM     69  C5  IDS B   4      44.846   0.400  18.0550  0.00  0.00     0.000 C
ATOM     70  O5  IDS B   4      46.005   0.758  17.2990  0.00  0.00     0.000 O
ATOM     71   O  IDS B   4      44.271   2.800  19.7670  0.00  0.00     0.000 O
ATOM     73  HD  IDS B   4      45.107   2.640  19.6100  0.00  0.00     0.000 HD
BRANCH 66 73
ATOM     73   O  IDS B   4      47.741   2.170  19.1340  0.00  0.00     0.000 O
ATOM     74   S  IDS B   4      48.849   3.293  19.4930  0.00  0.00     0.000 S
ATOM     75   O  IDS B   4      48.939   4.164  18.3410  0.00  0.00     0.000 OA
ATOM     76   O  IDS B   4      50.025   2.489  19.7140  0.00  0.00     0.000 OA
ATOM     77   O  IDS B   4      48.354   3.958  20.6750  0.00  0.00     0.000 OA
ENDBRANCH 66 73
BRANCH 69 78
ATOM     78   C  IDS B   4      44.294  -0.969  17.6810  0.00  0.00     0.000 C
ATOM     79   O  IDS B   4      43.086  -1.170  17.7950  0.00  0.00     0.000 OA
ATOM     80   O  IDS B   4      45.065  -1.804  17.1730  0.00  0.00     0.000 OA
ENDBRANCH 69 78
BRANCH 65 81
ATOM     81  O4  SGN B   5      45.049   2.870  16.8250  0.00  0.00     0.000 O
BRANCH 81 85
ATOM     82  C1  SGN B   5      43.172   3.375  13.1020  0.00  0.00     0.000 C
ATOM     83  C2  SGN B   5      44.248   2.283  13.1980  0.00  0.00     0.000 C
ATOM     84  C3  SGN B   5      44.483   1.922  14.6710  0.00  0.00     0.000 C
ATOM     85  C4  SGN B   5      44.836   3.179  15.4460  0.00  0.00     0.000 C
ATOM     86  C5  SGN B   5      43.688   4.174  15.2950  0.00  0.00     0.000 C
ATOM     87  O5  SGN B   5      43.529   4.489  13.8980  0.00  0.00     0.000 O
ATOM     88   O  SGN B   5      45.510   0.961  14.7720  0.00  0.00     0.000 O
ATOM     90  HD  SGN B   5      44.662   0.797  14.8300  0.00  0.00     0.000 HD
BRANCH 83 92
ATOM     90   N  SGN B   5      44.346   2.385  11.7290  0.00  0.00     0.000 N
ATOM     92  HD  SGN B   5      44.891   3.017  11.4970  0.00  0.00     0.000 HD
ATOM     92   S  SGN B   5      44.481   1.032  10.8890  0.00  0.00     0.000 S
ATOM     93   O  SGN B   5      44.559   1.467   9.5270  0.00  0.00     0.000 OA
ATOM     94   O  SGN B   5      45.566   0.322  11.4740  0.00  0.00     0.000 OA
ATOM     95   O  SGN B   5      43.217   0.260  11.1980  0.00  0.00     0.000 OA
ENDBRANCH 83 92
BRANCH 86 96
ATOM     96   C  SGN B   5      43.899   5.481  16.0310  0.00  0.00     0.000 C
ATOM     97   O  SGN B   5      42.644   6.049  16.4150  0.00  0.00     0.000 O
ATOM     98   S  SGN B   5      42.505   6.480  17.9530  0.00  0.00     0.000 S
ATOM     99   O  SGN B   5      41.246   7.185  17.9730  0.00  0.00     0.000 OA
ATOM    100   O  SGN B   5      42.532   5.294  18.7320  0.00  0.00     0.000 OA
ATOM    101   O  SGN B   5      43.630   7.325  18.1880  0.00  0.00     0.000 OA
ENDBRANCH 86 96
BRANCH 82 102
ATOM    102  O4  IDS B   6      41.933   2.922  13.4480  0.00  0.00     0.000 O
BRANCH 102 106
ATOM    103  C1  IDS B   6      38.443   2.018  12.9390  0.00  0.00     0.000 C
ATOM    104  C2  IDS B   6      39.543   1.453  12.0260  0.00  0.00     0.000 C
ATOM    105  C3  IDS B   6      40.534   2.475  11.5050  0.00  0.00     0.000 C
ATOM    106  C4  IDS B   6      40.938   3.491  12.5600  0.00  0.00     0.000 C
ATOM    107  C5  IDS B   6      39.702   3.941  13.3440  0.00  0.00     0.000 C
ATOM    108  O5  IDS B   6      39.018   2.837  13.9400  0.00  0.00     0.000 O
ATOM    109   O  IDS B   6      39.956   3.119  10.3820  0.00  0.00     0.000 O
ATOM    111  HD  IDS B   6      39.104   3.006  10.4930  0.00  0.00     0.000 HD
BRANCH 104 111
ATOM    111   O  IDS B   6      40.347   0.484  12.7870  0.00  0.00     0.000 O
ATOM    112   S  IDS B   6      40.129  -1.073  12.4900  0.00  0.00     0.000 S
ATOM    113   O  IDS B   6      38.719  -1.305  12.7620  0.00  0.00     0.000 OA
ATOM    114   O  IDS B   6      40.538  -1.343  11.1060  0.00  0.00     0.000 OA
ATOM    115   O  IDS B   6      41.020  -1.628  13.4860  0.00  0.00     0.000 OA
ENDBRANCH 104 111
BRANCH 107 116
ATOM    116   C  IDS B   6      40.122   4.931  14.4230  0.00  0.00     0.000 C
ATOM    117   O  IDS B   6      40.026   4.562  15.5650  0.00  0.00     0.000 OA
ATOM    118   O  IDS B   6      40.527   6.047  14.1370  0.00  0.00     0.000 OA
ENDBRANCH 107 116
BRANCH 103 119
ATOM    119  O4  SGN B   7      37.523   2.507  12.0690  0.00  0.00     0.000 O
BRANCH 119 123
ATOM    120  C1  SGN B   7      33.346   2.665  12.2280  0.00  0.00     0.000 C
ATOM    121  C2  SGN B   7      34.111   4.002  12.2090  0.00  0.00     0.000 C
ATOM    122  C3  SGN B   7      35.559   3.788  11.7500  0.00  0.00     0.000 C
ATOM    123  C4  SGN B   7      36.215   2.716  12.6040  0.00  0.00     0.000 C
ATOM    124  C5  SGN B   7      35.376   1.428  12.5620  0.00  0.00     0.000 C
ATOM    125  O5  SGN B   7      34.022   1.676  13.0030  0.00  0.00     0.000 O
ATOM    126   O  SGN B   7      36.265   5.031  11.8390  0.00  0.00     0.000 O
ATOM    128  HD  SGN B   7      35.508   4.611  11.8690  0.00  0.00     0.000 HD
BRANCH 121 130
ATOM    128   N  SGN B   7      33.137   4.930  12.7900  0.00  0.00     0.000 N
ATOM    130  HD  SGN B   7      33.726   5.565  12.7810  0.00  0.00     0.000 HD
ATOM    130   S  SGN B   7      32.453   6.108  11.9310  0.00  0.00     0.000 S
ATOM    131   O  SGN B   7      31.963   5.473  10.7550  0.00  0.00     0.000 OA
ATOM    132   O  SGN B   7      31.572   6.826  12.7790  0.00  0.00     0.000 OA
ATOM    133   O  SGN B   7      33.680   7.062  11.7350  0.00  0.00     0.000 OA
ENDBRANCH 121 130
BRANCH 124 134
ATOM    134   C  SGN B   7      35.881   0.344  13.4680  0.00  0.00     0.000 C
ATOM    135   O  SGN B   7      36.063   0.895  14.7840  0.00  0.00     0.000 O
ATOM    136   S  SGN B   7      36.444  -0.119  15.9210  0.00  0.00     0.000 S
ATOM    137   O  SGN B   7      36.673   0.669  17.1080  0.00  0.00     0.000 OA
ATOM    138   O  SGN B   7      37.635  -0.788  15.4490  0.00  0.00     0.000 OA
ATOM    139   O  SGN B   7      35.264  -0.967  15.9920  0.00  0.00     0.000 OA
ENDBRANCH 124 134
BRANCH 120 140
ATOM    140  O4  IDS B   8      32.990   1.906  11.1860  0.00  0.00     0.000 O
BRANCH 140 144
ATOM    141  C1  IDS B   8      31.705  -1.197   9.8900  0.00  0.00     0.000 C
ATOM    142  C2  IDS B   8      32.672  -0.318   9.0460  0.00  0.00     0.000 C
ATOM    143  C3  IDS B   8      32.256   1.165   9.0040  0.00  0.00     0.000 C
ATOM    144  C4  IDS B   8      31.829   1.680  10.3770  0.00  0.00     0.000 C
ATOM    145  C5  IDS B   8      30.901   0.663  11.0590  0.00  0.00     0.000 C
ATOM    146  O5  IDS B   8      31.517  -0.618  11.1750  0.00  0.00     0.000 O
BRANCH 142 147
ATOM    147   O  IDS B   8      34.036  -0.375   9.6350  0.00  0.00     0.000 O
ATOM    148   S  IDS B   8      35.341   0.028   8.7600  0.00  0.00     0.000 S
ATOM    149   O  IDS B   8      34.953   0.028   7.3680  0.00  0.00     0.000 OA
ATOM    150   O  IDS B   8      35.733   1.342   9.2340  0.00  0.00     0.000 OA
ATOM    151   O  IDS B   8      36.325  -0.998   9.0480  0.00  0.00     0.000 OA
ENDBRANCH 142 147
BRANCH 145 152
ATOM    152   C  IDS B   8      30.522   1.072  12.4680  0.00  0.00     0.000 C
ATOM    153   O  IDS B   8      30.954   0.433  13.4200  0.00  0.00     0.000 OA
ATOM    154   O  IDS B   8      29.809   2.044  12.6410  0.00  0.00     0.000 OA
ENDBRANCH 145 152
ENDBRANCH 140 144
ENDBRANCH 120 140
ENDBRANCH 119 123
ENDBRANCH 103 119
ENDBRANCH 102 106
ENDBRANCH 82 102
ENDBRANCH 81 85
ENDBRANCH 65 81
ENDBRANCH 64 68
ENDBRANCH 41 64
ENDBRANCH 40 44
ENDBRANCH 24 40
ENDBRANCH 23 27
ENDBRANCH 1 23
TORSDOF 31
ENDMDL
MODEL 5
REMARK VINA RESULT:      -9.6      8.185     12.213
ROOT
ATOM      1  C1  SGN B   1      33.683   1.554  11.1040  0.00  0.00     0.000 C
ATOM      2  C2  SGN B   1      32.179   1.875  11.1240  0.00  0.00     0.000 C
ATOM      3  C3  SGN B   1      31.349   0.586  11.1000  0.00  0.00     0.000 C
ATOM      4  C4  SGN B   1      31.736  -0.266   9.8960  0.00  0.00     0.000 C
ATOM      5  C5  SGN B   1      33.254  -0.424   9.8630  0.00  0.00     0.000 C
ATOM      6  O5  SGN B   1      33.874   0.876   9.8700  0.00  0.00     0.000 O
ATOM      7   O  SGN B   1      29.959   0.887  11.0730  0.00  0.00     0.000 O
ATOM      9  HD  SGN B   1      30.233   1.254  10.3380  0.00  0.00     0.000 HD
ATOM      9   O  SGN B   1      31.115  -1.535   9.9990  0.00  0.00     0.000 O
ATOM     11  HD  SGN B   1      31.389  -1.167   9.2640  0.00  0.00     0.000 HD
ENDROOT
BRANCH 2 13
ATOM     11   N  SGN B   1      32.153   3.349  11.1680  0.00  0.00     0.000 N
ATOM     13  HD  SGN B   1      32.629   2.900  11.7360  0.00  0.00     0.000 HD
ATOM     13   S  SGN B   1      32.386   4.172  12.5310  0.00  0.00     0.000 S
ATOM     14   O  SGN B   1      32.656   3.285  13.5940  0.00  0.00     0.000 OA
ATOM     15   O  SGN B   1      33.290   5.240  12.2630  0.00  0.00     0.000 OA
ATOM     16   O  SGN B   1      30.962   4.796  12.6610  0.00  0.00     0.000 OA
ENDBRANCH 2 13
BRANCH 5 17
ATOM     17   C  SGN B   1      33.768  -1.160   8.6500  0.00  0.00     0.000 C
ATOM     18   O  SGN B   1      35.192  -1.369   8.7410  0.00  0.00     0.000 O
ATOM     19   S  SGN B   1      36.032  -1.055   7.4170  0.00  0.00     0.000 S
ATOM     20   O  SGN B   1      37.362  -1.560   7.6880  0.00  0.00     0.000 OA
ATOM     21   O  SGN B   1      35.339  -1.780   6.3780  0.00  0.00     0.000 OA
ATOM     22   O  SGN B   1      35.977   0.383   7.2680  0.00  0.00     0.000 OA
ENDBRANCH 5 17
BRANCH 1 23
ATOM     23  O4  IDS B   2      34.719   1.311  11.9560  0.00  0.00     0.000 O
BRANCH 23 27
ATOM     24  C1  IDS B   2      38.626   0.733  13.2350  0.00  0.00     0.000 C
ATOM     25  C2  IDS B   2      38.427   0.793  11.7050  0.00  0.00     0.000 C
ATOM     26  C3  IDS B   2      37.030   1.299  11.3550  0.00  0.00     0.000 C
ATOM     27  C4  IDS B   2      35.912   0.501  12.0120  0.00  0.00     0.000 C
ATOM     28  C5  IDS B   2      36.332   0.081  13.4360  0.00  0.00     0.000 C
ATOM     29  O5  IDS B   2      37.379   0.908  13.9210  0.00  0.00     0.000 O
ATOM     30   O  IDS B   2      36.842   1.222   9.9470  0.00  0.00     0.000 O
ATOM     32  HD  IDS B   2      36.654   0.423   9.6710  0.00  0.00     0.000 HD
BRANCH 25 32
ATOM     32   O  IDS B   2      39.407   1.691  11.0460  0.00  0.00     0.000 O
ATOM     33   S  IDS B   2      40.598   1.110  10.0630  0.00  0.00     0.000 S
ATOM     34   O  IDS B   2      41.482   2.232   9.7910  0.00  0.00     0.000 OA
ATOM     35   O  IDS B   2      41.302   0.031  10.7410  0.00  0.00     0.000 OA
ATOM     36   O  IDS B   2      39.930   0.663   8.8630  0.00  0.00     0.000 OA
ENDBRANCH 25 32
BRANCH 28 37
ATOM     37   C  IDS B   2      35.234   0.003  14.5170  0.00  0.00     0.000 C
ATOM     38   O  IDS B   2      35.640   0.298  15.6170  0.00  0.00     0.000 OA
ATOM     39   O  IDS B   2      34.019  -0.260  14.3420  0.00  0.00     0.000 OA
ENDBRANCH 28 37
BRANCH 24 40
ATOM     40  O4  SUS B   3      39.776   0.246  13.7460  0.00  0.00     0.000 O
BRANCH 40 44
ATOM     41  C1  SUS B   3      41.759   1.155  17.3220  0.00  0.00     0.000 C
ATOM     42  C2  SUS B   3      40.438   0.367  17.4290  0.00  0.00     0.000 C
ATOM     43  C3  SUS B   3      40.125  -0.276  16.0790  0.00  0.00     0.000 C
ATOM     44  C4  SUS B   3      40.115   0.805  15.0100  0.00  0.00     0.000 C
ATOM     45  C5  SUS B   3      41.488   1.440  14.9410  0.00  0.00     0.000 C
ATOM     46  O5  SUS B   3      41.762   2.061  16.2130  0.00  0.00     0.000 O
BRANCH 42 49
ATOM     47   N  SUS B   3      39.714   0.911  18.5900  0.00  0.00     0.000 N
ATOM     49  HD  SUS B   3      40.001   1.664  18.9070  0.00  0.00     0.000 HD
ATOM     49   S  SUS B   3      39.613  -0.134  19.8000  0.00  0.00     0.000 S
ATOM     50   O  SUS B   3      40.905  -0.537  20.1940  0.00  0.00     0.000 OA
ATOM     51   O  SUS B   3      39.008   0.849  20.8350  0.00  0.00     0.000 OA
ATOM     52   O  SUS B   3      38.686  -1.143  19.4700  0.00  0.00     0.000 OA
ENDBRANCH 42 49
BRANCH 43 53
ATOM     53   O  SUS B   3      38.793  -0.904  16.1720  0.00  0.00     0.000 O
ATOM     54   S  SUS B   3      38.679  -2.488  15.7510  0.00  0.00     0.000 S
ATOM     55   O  SUS B   3      39.340  -3.264  16.7910  0.00  0.00     0.000 OA
ATOM     56   O  SUS B   3      37.250  -2.727  15.6620  0.00  0.00     0.000 OA
ATOM     57   O  SUS B   3      39.370  -2.627  14.4660  0.00  0.00     0.000 OA
ENDBRANCH 43 53
BRANCH 45 58
ATOM     58   C  SUS B   3      41.586   2.460  13.8280  0.00  0.00     0.000 C
ATOM     59   S  SUS B   3      42.360   4.855  13.3280  0.00  0.00     0.000 S
ATOM     60   O  SUS B   3      42.340   3.595  14.2860  0.00  0.00     0.000 O
ATOM     61   O  SUS B   3      41.078   5.503  13.5260  0.00  0.00     0.000 OA
ATOM     62   O  SUS B   3      43.453   5.602  13.8910  0.00  0.00     0.000 OA
ATOM     63   O  SUS B   3      42.585   4.338  12.0250  0.00  0.00     0.000 OA
ENDBRANCH 45 58
BRANCH 41 64
ATOM     64  O4  IDS B   4      42.881   0.369  17.4080  0.00  0.00     0.000 O
BRANCH 64 68
ATOM     65  C1  IDS B   4      46.298  -0.713  18.0630  0.00  0.00     0.000 C
ATOM     66  C2  IDS B   4      45.311  -0.527  19.2230  0.00  0.00     0.000 C
ATOM     67  C3  IDS B   4      44.516   0.767  19.1680  0.00  0.00     0.000 C
ATOM     68  C4  IDS B   4      44.062   1.122  17.7650  0.00  0.00     0.000 C
ATOM     69  C5  IDS B   4      45.242   0.896  16.8100  0.00  0.00     0.000 C
ATOM     70  O5  IDS B   4      45.617  -0.483  16.8430  0.00  0.00     0.000 O
ATOM     71   O  IDS B   4      45.346   1.791  19.6750  0.00  0.00     0.000 O
ATOM     73  HD  IDS B   4      45.096   0.972  19.5440  0.00  0.00     0.000 HD
BRANCH 66 73
ATOM     73   O  IDS B   4      44.312  -1.603  19.1710  0.00  0.00     0.000 O
ATOM     74   S  IDS B   4      44.209  -2.603  20.4380  0.00  0.00     0.000 S
ATOM     75   O  IDS B   4      45.527  -3.172  20.6200  0.00  0.00     0.000 OA
ATOM     76   O  IDS B   4      43.218  -3.549  19.9890  0.00  0.00     0.000 OA
ATOM     77   O  IDS B   4      43.785  -1.780  21.5450  0.00  0.00     0.000 OA
ENDBRANCH 66 73
BRANCH 69 78
ATOM     78   C  IDS B   4      45.016   1.415  15.3970  0.00  0.00     0.000 C
ATOM     79   O  IDS B   4      45.215   2.607  15.1660  0.00  0.00     0.000 OA
ATOM     80   O  IDS B   4      44.741   0.598  14.4990  0.00  0.00     0.000 OA
ENDBRANCH 69 78
BRANCH 65 81
ATOM     81  O4  SGN B   5      47.413   0.035  18.2930  0.00  0.00     0.000 O
BRANCH 81 85
ATOM     82  C1  SGN B   5      51.361   0.268  16.8790  0.00  0.00     0.000 C
ATOM     83  C2  SGN B   5      50.483   1.517  16.7070  0.00  0.00     0.000 C
ATOM     84  C3  SGN B   5      49.282   1.436  17.6590  0.00  0.00     0.000 C
ATOM     85  C4  SGN B   5      48.532   0.139  17.4090  0.00  0.00     0.000 C
ATOM     86  C5  SGN B   5      49.496  -1.023  17.6320  0.00  0.00     0.000 C
ATOM     87  O5  SGN B   5      50.588  -0.903  16.7010  0.00  0.00     0.000 O
ATOM     88   O  SGN B   5      48.441   2.552  17.4670  0.00  0.00     0.000 O
ATOM     90  HD  SGN B   5      49.006   2.455  18.1150  0.00  0.00     0.000 HD
BRANCH 83 92
ATOM     90   N  SGN B   5      51.785   2.198  16.5680  0.00  0.00     0.000 N
ATOM     92  HD  SGN B   5      52.429   1.624  16.4870  0.00  0.00     0.000 HD
ATOM     92   S  SGN B   5      51.874   3.457  15.5870  0.00  0.00     0.000 S
ATOM     93   O  SGN B   5      53.241   3.875  15.6700  0.00  0.00     0.000 OA
ATOM     94   O  SGN B   5      51.337   3.017  14.3450  0.00  0.00     0.000 OA
ATOM     95   O  SGN B   5      50.905   4.464  16.1660  0.00  0.00     0.000 OA
ENDBRANCH 83 92
BRANCH 86 96
ATOM     96   C  SGN B   5      48.877  -2.391  17.4290  0.00  0.00     0.000 C
ATOM     97   O  SGN B   5      49.167  -2.883  16.1180  0.00  0.00     0.000 O
ATOM     98   S  SGN B   5      49.775  -4.365  16.0380  0.00  0.00     0.000 S
ATOM     99   O  SGN B   5      49.762  -4.638  14.6220  0.00  0.00     0.000 OA
ATOM    100   O  SGN B   5      51.068  -4.326  16.6220  0.00  0.00     0.000 OA
ATOM    101   O  SGN B   5      48.855  -5.166  16.7780  0.00  0.00     0.000 OA
ENDBRANCH 86 96
BRANCH 82 102
ATOM    102  O4  IDS B   6      51.999   0.237  18.0830  0.00  0.00     0.000 O
BRANCH 102 106
ATOM    103  C1  IDS B   6      55.050  -0.130  20.0360  0.00  0.00     0.000 C
ATOM    104  C2  IDS B   6      55.090   0.471  18.6210  0.00  0.00     0.000 C
ATOM    105  C3  IDS B   6      54.317  -0.305  17.5720  0.00  0.00     0.000 C
ATOM    106  C4  IDS B   6      52.987  -0.825  18.0870  0.00  0.00     0.000 C
ATOM    107  C5  IDS B   6      53.166  -1.396  19.4970  0.00  0.00     0.000 C
ATOM    108  O5  IDS B   6      53.716  -0.432  20.3970  0.00  0.00     0.000 O
ATOM    109   O  IDS B   6      55.135  -1.373  17.1220  0.00  0.00     0.000 O
ATOM    111  HD  IDS B   6      55.692  -1.498  17.7740  0.00  0.00     0.000 HD
BRANCH 104 111
ATOM    111   O  IDS B   6      54.472   1.805  18.6500  0.00  0.00     0.000 O
ATOM    112   S  IDS B   6      55.425   3.079  18.4710  0.00  0.00     0.000 S
ATOM    113   O  IDS B   6      56.385   2.975  19.5580  0.00  0.00     0.000 OA
ATOM    114   O  IDS B   6      56.013   3.034  17.1270  0.00  0.00     0.000 OA
ATOM    115   O  IDS B   6      54.446   4.130  18.6510  0.00  0.00     0.000 OA
ENDBRANCH 104 111
BRANCH 107 116
ATOM    116   C  IDS B   6      51.819  -1.881  20.0190  0.00  0.00     0.000 C
ATOM    117   O  IDS B   6      51.469  -2.982  19.6760  0.00  0.00     0.000 OA
ATOM    118   O  IDS B   6      51.128  -1.180  20.7410  0.00  0.00     0.000 OA
ENDBRANCH 107 116
BRANCH 103 119
ATOM    119  O4  SGN B   7      56.009  -1.091  20.0030  0.00  0.00     0.000 O
BRANCH 119 123
ATOM    120  C1  SGN B   7      58.669  -2.807  22.7360  0.00  0.00     0.000 C
ATOM    121  C2  SGN B   7      57.162  -2.958  23.0170  0.00  0.00     0.000 C
ATOM    122  C3  SGN B   7      56.346  -2.645  21.7560  0.00  0.00     0.000 C
ATOM    123  C4  SGN B   7      56.738  -1.279  21.2160  0.00  0.00     0.000 C
ATOM    124  C5  SGN B   7      58.256  -1.228  20.9760  0.00  0.00     0.000 C
ATOM    125  O5  SGN B   7      58.984  -1.528  22.1880  0.00  0.00     0.000 O
ATOM    126   O  SGN B   7      54.952  -2.698  22.0780  0.00  0.00     0.000 O
ATOM    128  HD  SGN B   7      55.769  -2.852  22.3200  0.00  0.00     0.000 HD
BRANCH 121 130
ATOM    128   N  SGN B   7      57.659  -3.747  24.1470  0.00  0.00     0.000 N
ATOM    130  HD  SGN B   7      57.313  -3.180  24.7040  0.00  0.00     0.000 HD
ATOM    130   S  SGN B   7      56.682  -4.631  25.0720  0.00  0.00     0.000 S
ATOM    131   O  SGN B   7      55.913  -5.411  24.1640  0.00  0.00     0.000 OA
ATOM    132   O  SGN B   7      57.465  -5.261  26.0730  0.00  0.00     0.000 OA
ATOM    133   O  SGN B   7      55.910  -3.498  25.8290  0.00  0.00     0.000 OA
ENDBRANCH 121 130
BRANCH 124 134
ATOM    134   C  SGN B   7      58.758   0.120  20.5510  0.00  0.00     0.000 C
ATOM    135   O  SGN B   7      59.638   0.623  21.5710  0.00  0.00     0.000 O
ATOM    136   S  SGN B   7      60.393   1.962  21.2460  0.00  0.00     0.000 S
ATOM    137   O  SGN B   7      61.122   2.317  22.4400  0.00  0.00     0.000 OA
ATOM    138   O  SGN B   7      59.354   2.911  20.9150  0.00  0.00     0.000 OA
ATOM    139   O  SGN B   7      61.239   1.580  20.1260  0.00  0.00     0.000 OA
ENDBRANCH 124 134
BRANCH 120 140
ATOM    140  O4  IDS B   8      59.440  -3.566  21.9490  0.00  0.00     0.000 O
BRANCH 140 144
ATOM    141  C1  IDS B   8      62.001  -5.311  20.1170  0.00  0.00     0.000 C
ATOM    142  C2  IDS B   8      60.990  -4.380  19.3880  0.00  0.00     0.000 C
ATOM    143  C3  IDS B   8      59.527  -4.649  19.7880  0.00  0.00     0.000 C
ATOM    144  C4  IDS B   8      59.371  -4.840  21.2950  0.00  0.00     0.000 C
ATOM    145  C5  IDS B   8      60.473  -5.767  21.8290  0.00  0.00     0.000 C
ATOM    146  O5  IDS B   8      61.774  -5.271  21.5200  0.00  0.00     0.000 O
BRANCH 142 147
ATOM    147   O  IDS B   8      61.286  -2.964  19.7280  0.00  0.00     0.000 O
ATOM    148   S  IDS B   8      61.854  -1.936  18.6090  0.00  0.00     0.000 S
ATOM    149   O  IDS B   8      62.340  -2.724  17.4980  0.00  0.00     0.000 OA
ATOM    150   O  IDS B   8      60.728  -1.095  18.2490  0.00  0.00     0.000 OA
ATOM    151   O  IDS B   8      62.922  -1.208  19.2660  0.00  0.00     0.000 OA
ENDBRANCH 142 147
BRANCH 145 152
ATOM    152   C  IDS B   8      60.431  -5.916  23.3370  0.00  0.00     0.000 C
ATOM    153   O  IDS B   8      61.347  -5.464  24.0150  0.00  0.00     0.000 OA
ATOM    154   O  IDS B   8      59.478  -6.464  23.8600  0.00  0.00     0.000 OA
ENDBRANCH 145 152
ENDBRANCH 140 144
ENDBRANCH 120 140
ENDBRANCH 119 123
ENDBRANCH 103 119
ENDBRANCH 102 106
ENDBRANCH 82 102
ENDBRANCH 81 85
ENDBRANCH 65 81
ENDBRANCH 64 68
ENDBRANCH 41 64
ENDBRANCH 40 44
ENDBRANCH 24 40
ENDBRANCH 23 27
ENDBRANCH 1 23
TORSDOF 31
ENDMDL
MODEL 6
REMARK VINA RESULT:      -9.4      8.267     12.383
ROOT
ATOM      1  C1  SGN B   1      33.753   1.507  11.0940  0.00  0.00     0.000 C
ATOM      2  C2  SGN B   1      32.255   1.855  11.1200  0.00  0.00     0.000 C
ATOM      3  C3  SGN B   1      31.402   0.582  11.0930  0.00  0.00     0.000 C
ATOM      4  C4  SGN B   1      31.769  -0.272   9.8840  0.00  0.00     0.000 C
ATOM      5  C5  SGN B   1      33.284  -0.457   9.8440  0.00  0.00     0.000 C
ATOM      6  O5  SGN B   1      33.927   0.832   9.8560  0.00  0.00     0.000 O
ATOM      7   O  SGN B   1      30.017   0.909  11.0730  0.00  0.00     0.000 O
ATOM      9  HD  SGN B   1      30.296   1.274  10.3390  0.00  0.00     0.000 HD
ATOM      9   O  SGN B   1      31.125  -1.529   9.9830  0.00  0.00     0.000 O
ATOM     11  HD  SGN B   1      31.403  -1.163   9.2490  0.00  0.00     0.000 HD
ENDROOT
BRANCH 2 13
ATOM     11   N  SGN B   1      32.283   3.329  11.1670  0.00  0.00     0.000 N
ATOM     13  HD  SGN B   1      32.726   2.862  11.7470  0.00  0.00     0.000 HD
ATOM     13   S  SGN B   1      32.509   4.141  12.5380  0.00  0.00     0.000 S
ATOM     14   O  SGN B   1      32.716   3.243  13.6060  0.00  0.00     0.000 OA
ATOM     15   O  SGN B   1      33.459   5.175  12.2980  0.00  0.00     0.000 OA
ATOM     16   O  SGN B   1      31.107   4.818  12.6290  0.00  0.00     0.000 OA
ENDBRANCH 2 13
BRANCH 5 17
ATOM     17   C  SGN B   1      33.780  -1.196   8.6270  0.00  0.00     0.000 C
ATOM     18   O  SGN B   1      35.204  -1.411   8.7000  0.00  0.00     0.000 O
ATOM     19   S  SGN B   1      36.030  -1.101   7.3660  0.00  0.00     0.000 S
ATOM     20   O  SGN B   1      37.360  -1.612   7.6220  0.00  0.00     0.000 OA
ATOM     21   O  SGN B   1      35.321  -1.825   6.3370  0.00  0.00     0.000 OA
ATOM     22   O  SGN B   1      35.979   0.336   7.2170  0.00  0.00     0.000 OA
ENDBRANCH 5 17
BRANCH 1 23
ATOM     23  O4  IDS B   2      34.787   1.241  11.9410  0.00  0.00     0.000 O
BRANCH 23 27
ATOM     24  C1  IDS B   2      38.621   0.489  13.3460  0.00  0.00     0.000 C
ATOM     25  C2  IDS B   2      38.492   0.657  11.8150  0.00  0.00     0.000 C
ATOM     26  C3  IDS B   2      37.122   1.217  11.4410  0.00  0.00     0.000 C
ATOM     27  C4  IDS B   2      35.961   0.402  11.9930  0.00  0.00     0.000 C
ATOM     28  C5  IDS B   2      36.307  -0.122  13.4010  0.00  0.00     0.000 C
ATOM     29  O5  IDS B   2      37.348   0.646  13.9870  0.00  0.00     0.000 O
ATOM     30   O  IDS B   2      36.996   1.239  10.0240  0.00  0.00     0.000 O
ATOM     32  HD  IDS B   2      36.805   0.465   9.6860  0.00  0.00     0.000 HD
BRANCH 25 32
ATOM     32   O  IDS B   2      39.518   1.574  11.2630  0.00  0.00     0.000 O
ATOM     33   S  IDS B   2      40.680   1.052  10.2140  0.00  0.00     0.000 S
ATOM     34   O  IDS B   2      41.621   2.152  10.0720  0.00  0.00     0.000 OA
ATOM     35   O  IDS B   2      41.326  -0.134  10.7580  0.00  0.00     0.000 OA
ATOM     36   O  IDS B   2      39.992   0.784   8.9720  0.00  0.00     0.000 OA
ENDBRANCH 25 32
BRANCH 28 37
ATOM     37   C  IDS B   2      35.161  -0.248  14.4260  0.00  0.00     0.000 C
ATOM     38   O  IDS B   2      34.199  -0.829  13.9830  0.00  0.00     0.000 OA
ATOM     39   O  IDS B   2      35.176   0.125  15.6250  0.00  0.00     0.000 OA
ENDBRANCH 28 37
BRANCH 24 40
ATOM     40  O4  SUS B   3      39.737  -0.058  13.8710  0.00  0.00     0.000 O
BRANCH 40 44
ATOM     41  C1  SUS B   3      41.683   0.702  17.5010  0.00  0.00     0.000 C
ATOM     42  C2  SUS B   3      40.303   0.018  17.5710  0.00  0.00     0.000 C
ATOM     43  C3  SUS B   3      39.980  -0.601  16.2130  0.00  0.00     0.000 C
ATOM     44  C4  SUS B   3      40.082   0.476  15.1440  0.00  0.00     0.000 C
ATOM     45  C5  SUS B   3      41.502   1.003  15.1140  0.00  0.00     0.000 C
ATOM     46  O5  SUS B   3      41.786   1.604  16.3940  0.00  0.00     0.000 O
BRANCH 42 49
ATOM     47   N  SUS B   3      40.658  -0.193  18.9850  0.00  0.00     0.000 N
ATOM     49  HD  SUS B   3      41.225  -0.826  19.1510  0.00  0.00     0.000 HD
ATOM     49   S  SUS B   3      39.375  -0.414  19.9180  0.00  0.00     0.000 S
ATOM     50   O  SUS B   3      38.625  -1.512  19.4500  0.00  0.00     0.000 OA
ATOM     51   O  SUS B   3      40.153  -0.792  21.2050  0.00  0.00     0.000 OA
ATOM     52   O  SUS B   3      38.703   0.813  20.0860  0.00  0.00     0.000 OA
ENDBRANCH 42 49
BRANCH 43 53
ATOM     53   O  SUS B   3      38.601  -1.124  16.2680  0.00  0.00     0.000 O
ATOM     54   S  SUS B   3      38.375  -2.693  15.8310  0.00  0.00     0.000 S
ATOM     55   O  SUS B   3      38.949  -3.525  16.8800  0.00  0.00     0.000 OA
ATOM     56   O  SUS B   3      36.934  -2.819  15.7040  0.00  0.00     0.000 OA
ATOM     57   O  SUS B   3      39.085  -2.875  14.5610  0.00  0.00     0.000 OA
ENDBRANCH 43 53
BRANCH 45 58
ATOM     58   C  SUS B   3      41.709   2.011  14.0050  0.00  0.00     0.000 C
ATOM     59   S  SUS B   3      41.277   4.462  13.3790  0.00  0.00     0.000 S
ATOM     60   O  SUS B   3      41.332   3.317  14.4720  0.00  0.00     0.000 O
ATOM     61   O  SUS B   3      40.031   4.249  12.6690  0.00  0.00     0.000 OA
ATOM     62   O  SUS B   3      41.247   5.630  14.2180  0.00  0.00     0.000 OA
ATOM     63   O  SUS B   3      42.455   4.302  12.6030  0.00  0.00     0.000 OA
ENDBRANCH 45 58
BRANCH 41 64
ATOM     64  O4  IDS B   4      42.739  -0.168  17.6190  0.00  0.00     0.000 O
BRANCH 64 68
ATOM     65  C1  IDS B   4      46.052  -1.376  18.5320  0.00  0.00     0.000 C
ATOM     66  C2  IDS B   4      45.168  -0.683  19.5760  0.00  0.00     0.000 C
ATOM     67  C3  IDS B   4      44.516   0.602  19.0940  0.00  0.00     0.000 C
ATOM     68  C4  IDS B   4      44.015   0.508  17.6650  0.00  0.00     0.000 C
ATOM     69  C5  IDS B   4      45.099  -0.175  16.8220  0.00  0.00     0.000 C
ATOM     70  O5  IDS B   4      45.323  -1.495  17.3240  0.00  0.00     0.000 O
ATOM     71   O  IDS B   4      45.484   1.626  19.1940  0.00  0.00     0.000 O
ATOM     73  HD  IDS B   4      45.139   0.850  19.3620  0.00  0.00     0.000 HD
BRANCH 66 73
ATOM     73   O  IDS B   4      44.057  -1.579  19.9250  0.00  0.00     0.000 O
ATOM     74   S  IDS B   4      43.870  -1.988  21.4790  0.00  0.00     0.000 S
ATOM     75   O  IDS B   4      45.122  -2.580  21.8990  0.00  0.00     0.000 OA
ATOM     76   O  IDS B   4      42.774  -2.920  21.4100  0.00  0.00     0.000 OA
ATOM     77   O  IDS B   4      43.562  -0.757  22.1670  0.00  0.00     0.000 OA
ENDBRANCH 66 73
BRANCH 69 78
ATOM     78   C  IDS B   4      44.841  -0.148  15.3220  0.00  0.00     0.000 C
ATOM     79   O  IDS B   4      45.302   0.781  14.6600  0.00  0.00     0.000 OA
ATOM     80   O  IDS B   4      44.264  -1.119  14.7990  0.00  0.00     0.000 OA
ENDBRANCH 69 78
BRANCH 65 81
ATOM     81  O4  SGN B   5      47.255  -0.740  18.4630  0.00  0.00     0.000 O
BRANCH 81 85
ATOM     82  C1  SGN B   5      51.140  -1.179  16.9280  0.00  0.00     0.000 C
ATOM     83  C2  SGN B   5      50.154  -0.339  16.1020  0.00  0.00     0.000 C
ATOM     84  C3  SGN B   5      48.983   0.101  16.9920  0.00  0.00     0.000 C
ATOM     85  C4  SGN B   5      48.343  -1.125  17.6200  0.00  0.00     0.000 C
ATOM     86  C5  SGN B   5      49.408  -1.861  18.4290  0.00  0.00     0.000 C
ATOM     87  O5  SGN B   5      50.467  -2.264  17.5400  0.00  0.00     0.000 O
ATOM     88   O  SGN B   5      48.045   0.825  16.2270  0.00  0.00     0.000 O
ATOM     90  HD  SGN B   5      48.629   1.171  16.7640  0.00  0.00     0.000 HD
BRANCH 83 92
ATOM     90   N  SGN B   5      51.389  -0.251  15.2990  0.00  0.00     0.000 N
ATOM     92  HD  SGN B   5      51.769  -1.025  15.2280  0.00  0.00     0.000 HD
ATOM     92   S  SGN B   5      51.350   0.611  13.9530  0.00  0.00     0.000 S
ATOM     93   O  SGN B   5      52.673   0.492  13.4180  0.00  0.00     0.000 OA
ATOM     94   O  SGN B   5      50.236   0.123  13.2150  0.00  0.00     0.000 OA
ATOM     95   O  SGN B   5      51.013   2.015  14.4050  0.00  0.00     0.000 OA
ENDBRANCH 83 92
BRANCH 86 96
ATOM     96   C  SGN B   5      48.906  -3.108  19.1270  0.00  0.00     0.000 C
ATOM     97   O  SGN B   5      49.762  -3.451  20.2190  0.00  0.00     0.000 O
ATOM     98   S  SGN B   5      49.041  -3.708  21.6280  0.00  0.00     0.000 S
ATOM     99   O  SGN B   5      50.114  -4.221  22.4460  0.00  0.00     0.000 OA
ATOM    100   O  SGN B   5      48.504  -2.469  22.0640  0.00  0.00     0.000 OA
ATOM    101   O  SGN B   5      48.036  -4.679  21.3410  0.00  0.00     0.000 OA
ENDBRANCH 86 96
BRANCH 82 102
ATOM    102  O4  IDS B   6      51.801  -0.442  17.8650  0.00  0.00     0.000 O
BRANCH 102 106
ATOM    103  C1  IDS B   6      54.760   1.237  19.1600  0.00  0.00     0.000 C
ATOM    104  C2  IDS B   6      54.449   1.244  17.6560  0.00  0.00     0.000 C
ATOM    105  C3  IDS B   6      54.078  -0.105  17.0700  0.00  0.00     0.000 C
ATOM    106  C4  IDS B   6      53.169  -0.910  17.9810  0.00  0.00     0.000 C
ATOM    107  C5  IDS B   6      53.659  -0.803  19.4280  0.00  0.00     0.000 C
ATOM    108  O5  IDS B   6      53.740   0.555  19.8640  0.00  0.00     0.000 O
ATOM    109   O  IDS B   6      55.277  -0.814  16.8010  0.00  0.00     0.000 O
ATOM    111  HD  IDS B   6      55.858  -0.449  17.3290  0.00  0.00     0.000 HD
BRANCH 104 111
ATOM    111   O  IDS B   6      53.283   2.107  17.4110  0.00  0.00     0.000 O
ATOM    112   S  IDS B   6      53.522   3.500  16.6600  0.00  0.00     0.000 S
ATOM    113   O  IDS B   6      54.474   4.210  17.4990  0.00  0.00     0.000 OA
ATOM    114   O  IDS B   6      53.995   3.219  15.3000  0.00  0.00     0.000 OA
ATOM    115   O  IDS B   6      52.177   4.030  16.7180  0.00  0.00     0.000 OA
ENDBRANCH 104 111
BRANCH 107 116
ATOM    116   C  IDS B   6      52.720  -1.583  20.3380  0.00  0.00     0.000 C
ATOM    117   O  IDS B   6      52.816  -2.784  20.3150  0.00  0.00     0.000 OA
ATOM    118   O  IDS B   6      51.905  -1.015  21.0470  0.00  0.00     0.000 OA
ENDBRANCH 107 116
BRANCH 103 119
ATOM    119  O4  SGN B   7      56.054   0.827  19.2190  0.00  0.00     0.000 O
BRANCH 119 123
ATOM    120  C1  SGN B   7      58.751   0.024  22.3120  0.00  0.00     0.000 C
ATOM    121  C2  SGN B   7      58.038  -1.175  21.6580  0.00  0.00     0.000 C
ATOM    122  C3  SGN B   7      57.418  -0.765  20.3160  0.00  0.00     0.000 C
ATOM    123  C4  SGN B   7      56.526   0.449  20.5120  0.00  0.00     0.000 C
ATOM    124  C5  SGN B   7      57.325   1.583  21.1750  0.00  0.00     0.000 C
ATOM    125  O5  SGN B   7      57.889   1.154  22.4340  0.00  0.00     0.000 O
ATOM    126   O  SGN B   7      56.682  -1.873  19.7850  0.00  0.00     0.000 O
ATOM    128  HD  SGN B   7      57.240  -1.576  20.3770  0.00  0.00     0.000 HD
BRANCH 121 130
ATOM    128   N  SGN B   7      59.181  -1.976  22.1040  0.00  0.00     0.000 N
ATOM    130  HD  SGN B   7      58.881  -1.964  22.9160  0.00  0.00     0.000 HD
ATOM    130   S  SGN B   7      59.038  -3.528  22.5060  0.00  0.00     0.000 S
ATOM    131   O  SGN B   7      58.346  -4.132  21.4190  0.00  0.00     0.000 OA
ATOM    132   O  SGN B   7      60.314  -4.007  22.8980  0.00  0.00     0.000 OA
ATOM    133   O  SGN B   7      58.236  -3.399  23.8450  0.00  0.00     0.000 OA
ENDBRANCH 121 130
BRANCH 124 134
ATOM    134   C  SGN B   7      56.499   2.789  21.5170  0.00  0.00     0.000 C
ATOM    135   O  SGN B   7      55.450   2.386  22.4140  0.00  0.00     0.000 O
ATOM    136   S  SGN B   7      54.563   3.535  23.0140  0.00  0.00     0.000 S
ATOM    137   O  SGN B   7      53.530   2.888  23.7880  0.00  0.00     0.000 OA
ATOM    138   O  SGN B   7      54.046   4.251  21.8700  0.00  0.00     0.000 OA
ATOM    139   O  SGN B   7      55.520   4.284  23.8130  0.00  0.00     0.000 OA
ENDBRANCH 124 134
BRANCH 120 140
ATOM    140  O4  IDS B   8      59.858   0.649  21.8970  0.00  0.00     0.000 O
BRANCH 140 144
ATOM    141  C1  IDS B   8      62.924   1.522  20.2230  0.00  0.00     0.000 C
ATOM    142  C2  IDS B   8      62.704   0.093  20.7970  0.00  0.00     0.000 C
ATOM    143  C3  IDS B   8      62.187   0.097  22.2470  0.00  0.00     0.000 C
ATOM    144  C4  IDS B   8      61.085   1.134  22.4590  0.00  0.00     0.000 C
ATOM    145  C5  IDS B   8      61.476   2.465  21.8010  0.00  0.00     0.000 C
ATOM    146  O5  IDS B   8      61.752   2.306  20.4120  0.00  0.00     0.000 O
BRANCH 142 147
ATOM    147   O  IDS B   8      61.696  -0.623  19.9720  0.00  0.00     0.000 O
ATOM    148   S  IDS B   8      62.071  -2.000  19.2010  0.00  0.00     0.000 S
ATOM    149   O  IDS B   8      63.512  -2.101  19.1610  0.00  0.00     0.000 OA
ATOM    150   O  IDS B   8      61.455  -3.059  19.9790  0.00  0.00     0.000 OA
ATOM    151   O  IDS B   8      61.500  -1.862  17.8740  0.00  0.00     0.000 OA
ENDBRANCH 142 147
BRANCH 145 152
ATOM    152   C  IDS B   8      60.379   3.506  21.8920  0.00  0.00     0.000 C
ATOM    153   O  IDS B   8      59.939   3.826  22.9900  0.00  0.00     0.000 OA
ATOM    154   O  IDS B   8      59.959   4.028  20.8750  0.00  0.00     0.000 OA
ENDBRANCH 145 152
ENDBRANCH 140 144
ENDBRANCH 120 140
ENDBRANCH 119 123
ENDBRANCH 103 119
ENDBRANCH 102 106
ENDBRANCH 82 102
ENDBRANCH 81 85
ENDBRANCH 65 81
ENDBRANCH 64 68
ENDBRANCH 41 64
ENDBRANCH 40 44
ENDBRANCH 24 40
ENDBRANCH 23 27
ENDBRANCH 1 23
TORSDOF 31
ENDMDL
MODEL 7
REMARK VINA RESULT:      -9.3      8.174     12.481
ROOT
ATOM      1  C1  SGN B   1      33.877   1.403  11.0170  0.00  0.00     0.000 C
ATOM      2  C2  SGN B   1      32.392   1.802  11.0320  0.00  0.00     0.000 C
ATOM      3  C3  SGN B   1      31.496   0.558  11.0500  0.00  0.00     0.000 C
ATOM      4  C4  SGN B   1      31.832  -0.349   9.8700  0.00  0.00     0.000 C
ATOM      5  C5  SGN B   1      33.340  -0.586   9.8370  0.00  0.00     0.000 C
ATOM      6  O5  SGN B   1      34.026   0.680   9.8030  0.00  0.00     0.000 O
ATOM      7   O  SGN B   1      30.123   0.930  11.0190  0.00  0.00     0.000 O
ATOM      9  HD  SGN B   1      30.412   1.261  10.2720  0.00  0.00     0.000 HD
ATOM      9   O  SGN B   1      31.146  -1.579  10.0130  0.00  0.00     0.000 O
ATOM     11  HD  SGN B   1      31.435  -1.249   9.2670  0.00  0.00     0.000 HD
ENDROOT
BRANCH 2 13
ATOM     11   N  SGN B   1      32.389   3.277  11.0450  0.00  0.00     0.000 N
ATOM     13  HD  SGN B   1      32.896   2.833  11.5890  0.00  0.00     0.000 HD
ATOM     13   S  SGN B   1      32.724   4.126  12.3700  0.00  0.00     0.000 S
ATOM     14   O  SGN B   1      33.053   3.258  13.4320  0.00  0.00     0.000 OA
ATOM     15   O  SGN B   1      33.623   5.174  12.0180  0.00  0.00     0.000 OA
ATOM     16   O  SGN B   1      31.322   4.774  12.5800  0.00  0.00     0.000 OA
ENDBRANCH 2 13
BRANCH 5 17
ATOM     17   C  SGN B   1      33.809  -1.384   8.6450  0.00  0.00     0.000 C
ATOM     18   O  SGN B   1      35.244  -1.521   8.6500  0.00  0.00     0.000 O
ATOM     19   S  SGN B   1      35.978  -1.264   7.2530  0.00  0.00     0.000 S
ATOM     20   O  SGN B   1      37.346  -1.687   7.4640  0.00  0.00     0.000 OA
ATOM     21   O  SGN B   1      35.255  -2.093   6.3170  0.00  0.00     0.000 OA
ATOM     22   O  SGN B   1      35.841   0.155   7.0090  0.00  0.00     0.000 OA
ENDBRANCH 5 17
BRANCH 1 23
ATOM     23  O4  IDS B   2      34.903   1.131  11.8730  0.00  0.00     0.000 O
BRANCH 23 27
ATOM     24  C1  IDS B   2      38.907   0.880  12.9400  0.00  0.00     0.000 C
ATOM     25  C2  IDS B   2      38.621   0.898  11.4220  0.00  0.00     0.000 C
ATOM     26  C3  IDS B   2      37.172   1.289  11.1440  0.00  0.00     0.000 C
ATOM     27  C4  IDS B   2      36.157   0.418  11.8730  0.00  0.00     0.000 C
ATOM     28  C5  IDS B   2      36.685   0.056  13.2760  0.00  0.00     0.000 C
ATOM     29  O5  IDS B   2      37.689   0.970  13.6920  0.00  0.00     0.000 O
ATOM     30   O  IDS B   2      36.915   1.172   9.7500  0.00  0.00     0.000 O
ATOM     32  HD  IDS B   2      36.775   0.357   9.4950  0.00  0.00     0.000 HD
BRANCH 25 32
ATOM     32   O  IDS B   2      39.490   1.858  10.6980  0.00  0.00     0.000 O
ATOM     33   S  IDS B   2      40.667   1.354   9.6570  0.00  0.00     0.000 S
ATOM     34   O  IDS B   2      41.445   2.536   9.3220  0.00  0.00     0.000 OA
ATOM     35   O  IDS B   2      41.489   0.343  10.3080  0.00  0.00     0.000 OA
ATOM     36   O  IDS B   2      39.970   0.837   8.5020  0.00  0.00     0.000 OA
ENDBRANCH 25 32
BRANCH 28 37
ATOM     37   C  IDS B   2      35.657  -0.088  14.4170  0.00  0.00     0.000 C
ATOM     38   O  IDS B   2      34.867  -0.982  14.2250  0.00  0.00     0.000 OA
ATOM     39   O  IDS B   2      35.622   0.565  15.4890  0.00  0.00     0.000 OA
ENDBRANCH 28 37
BRANCH 24 40
ATOM     40  O4  SUS B   3      40.117   0.492  13.3920  0.00  0.00     0.000 O
BRANCH 40 44
ATOM     41  C1  SUS B   3      42.187   1.567  16.8710  0.00  0.00     0.000 C
ATOM     42  C2  SUS B   3      40.880   0.767  17.0470  0.00  0.00     0.000 C
ATOM     43  C3  SUS B   3      40.539   0.068  15.7330  0.00  0.00     0.000 C
ATOM     44  C4  SUS B   3      40.484   1.105  14.6230  0.00  0.00     0.000 C
ATOM     45  C5  SUS B   3      41.847   1.753  14.4900  0.00  0.00     0.000 C
ATOM     46  O5  SUS B   3      42.147   2.428  15.7280  0.00  0.00     0.000 O
BRANCH 42 49
ATOM     47   N  SUS B   3      39.715   0.646  17.9390  0.00  0.00     0.000 N
ATOM     49  HD  SUS B   3      39.154   1.306  17.9360  0.00  0.00     0.000 HD
ATOM     49   S  SUS B   3      40.128   0.352  19.4590  0.00  0.00     0.000 S
ATOM     50   O  SUS B   3      40.981   1.371  19.9300  0.00  0.00     0.000 OA
ATOM     51   O  SUS B   3      38.709   0.505  20.0640  0.00  0.00     0.000 OA
ATOM     52   O  SUS B   3      40.577  -0.979  19.5720  0.00  0.00     0.000 OA
ENDBRANCH 42 49
BRANCH 43 53
ATOM     53   O  SUS B   3      39.217  -0.571  15.8890  0.00  0.00     0.000 O
ATOM     54   S  SUS B   3      39.117  -2.177  15.5530  0.00  0.00     0.000 S
ATOM     55   O  SUS B   3      39.812  -2.889  16.6170  0.00  0.00     0.000 OA
ATOM     56   O  SUS B   3      37.690  -2.439  15.5080  0.00  0.00     0.000 OA
ATOM     57   O  SUS B   3      39.781  -2.373  14.2610  0.00  0.00     0.000 OA
ENDBRANCH 43 53
BRANCH 45 58
ATOM     58   C  SUS B   3      41.900   2.729  13.3350  0.00  0.00     0.000 C
ATOM     59   S  SUS B   3      42.821   5.026  12.6560  0.00  0.00     0.000 S
ATOM     60   O  SUS B   3      42.804   3.799  13.6570  0.00  0.00     0.000 O
ATOM     61   O  SUS B   3      41.637   5.797  12.9800  0.00  0.00     0.000 OA
ATOM     62   O  SUS B   3      44.038   5.681  13.0560  0.00  0.00     0.000 OA
ATOM     63   O  SUS B   3      42.838   4.455  11.3560  0.00  0.00     0.000 OA
ENDBRANCH 45 58
BRANCH 41 64
ATOM     64  O4  IDS B   4      43.322   0.798  16.9570  0.00  0.00     0.000 O
BRANCH 64 68
ATOM     65  C1  IDS B   4      46.703  -0.259  17.8090  0.00  0.00     0.000 C
ATOM     66  C2  IDS B   4      45.661  -0.039  18.9130  0.00  0.00     0.000 C
ATOM     67  C3  IDS B   4      44.869   1.251  18.7820  0.00  0.00     0.000 C
ATOM     68  C4  IDS B   4      44.484   1.563  17.3480  0.00  0.00     0.000 C
ATOM     69  C5  IDS B   4      45.709   1.310  16.4590  0.00  0.00     0.000 C
ATOM     70  O5  IDS B   4      46.081  -0.067  16.5510  0.00  0.00     0.000 O
ATOM     71   O  IDS B   4      45.674   2.291  19.2970  0.00  0.00     0.000 O
ATOM     73  HD  IDS B   4      45.431   1.469  19.1790  0.00  0.00     0.000 HD
BRANCH 66 73
ATOM     73   O  IDS B   4      44.665  -1.118  18.8460  0.00  0.00     0.000 O
ATOM     74   S  IDS B   4      44.772  -2.317  19.9260  0.00  0.00     0.000 S
ATOM     75   O  IDS B   4      46.101  -2.873  19.7910  0.00  0.00     0.000 OA
ATOM     76   O  IDS B   4      43.719  -3.201  19.4930  0.00  0.00     0.000 OA
ATOM     77   O  IDS B   4      44.539  -1.701  21.2110  0.00  0.00     0.000 OA
ENDBRANCH 66 73
BRANCH 69 78
ATOM     78   C  IDS B   4      45.552   1.786  15.0210  0.00  0.00     0.000 C
ATOM     79   O  IDS B   4      45.244   0.965  14.1570  0.00  0.00     0.000 OA
ATOM     80   O  IDS B   4      45.636   3.005  14.7840  0.00  0.00     0.000 OA
ENDBRANCH 69 78
BRANCH 65 81
ATOM     81  O4  SGN B   5      47.806   0.496  18.0700  0.00  0.00     0.000 O
BRANCH 81 85
ATOM     82  C1  SGN B   5      51.655   1.183  16.5370  0.00  0.00     0.000 C
ATOM     83  C2  SGN B   5      50.640   2.330  16.4150  0.00  0.00     0.000 C
ATOM     84  C3  SGN B   5      49.488   2.103  17.4030  0.00  0.00     0.000 C
ATOM     85  C4  SGN B   5      48.876   0.736  17.1540  0.00  0.00     0.000 C
ATOM     86  C5  SGN B   5      49.968  -0.317  17.3260  0.00  0.00     0.000 C
ATOM     87  O5  SGN B   5      51.009  -0.064  16.3620  0.00  0.00     0.000 O
ATOM     88   O  SGN B   5      48.523   3.122  17.2570  0.00  0.00     0.000 O
ATOM     90  HD  SGN B   5      49.117   3.079  17.8860  0.00  0.00     0.000 HD
BRANCH 83 92
ATOM     90   N  SGN B   5      51.485   2.855  15.3250  0.00  0.00     0.000 N
ATOM     92  HD  SGN B   5      51.265   2.503  14.5640  0.00  0.00     0.000 HD
ATOM     92   S  SGN B   5      51.772   4.426  15.2860  0.00  0.00     0.000 S
ATOM     93   O  SGN B   5      52.598   4.608  14.1310  0.00  0.00     0.000 OA
ATOM     94   O  SGN B   5      50.496   5.053  15.3570  0.00  0.00     0.000 OA
ATOM     95   O  SGN B   5      52.491   4.718  16.5860  0.00  0.00     0.000 OA
ENDBRANCH 83 92
BRANCH 86 96
ATOM     96   C  SGN B   5      49.497  -1.741  17.1180  0.00  0.00     0.000 C
ATOM     97   O  SGN B   5      49.280  -2.000  15.7280  0.00  0.00     0.000 O
ATOM     98   S  SGN B   5      49.981  -3.316  15.1380  0.00  0.00     0.000 S
ATOM     99   O  SGN B   5      49.420  -3.407  13.8110  0.00  0.00     0.000 OA
ATOM    100   O  SGN B   5      51.384  -3.103  15.1740  0.00  0.00     0.000 OA
ATOM    101   O  SGN B   5      49.555  -4.365  16.0050  0.00  0.00     0.000 OA
ENDBRANCH 86 96
BRANCH 82 102
ATOM    102  O4  IDS B   6      52.332   1.206  17.7190  0.00  0.00     0.000 O
BRANCH 102 106
ATOM    103  C1  IDS B   6      55.233   1.344  19.9150  0.00  0.00     0.000 C
ATOM    104  C2  IDS B   6      55.016   2.412  18.8320  0.00  0.00     0.000 C
ATOM    105  C3  IDS B   6      54.659   1.873  17.4600  0.00  0.00     0.000 C
ATOM    106  C4  IDS B   6      53.682   0.713  17.5210  0.00  0.00     0.000 C
ATOM    107  C5  IDS B   6      54.084  -0.243  18.6480  0.00  0.00     0.000 C
ATOM    108  O5  IDS B   6      54.160   0.423  19.9100  0.00  0.00     0.000 O
ATOM    109   O  IDS B   6      55.860   1.487  16.8120  0.00  0.00     0.000 O
ATOM    111  HD  IDS B   6      56.413   1.349  17.4640  0.00  0.00     0.000 HD
BRANCH 104 111
ATOM    111   O  IDS B   6      53.882   3.265  19.2210  0.00  0.00     0.000 O
ATOM    112   S  IDS B   6      54.197   4.744  19.7450  0.00  0.00     0.000 S
ATOM    113   O  IDS B   6      55.063   4.548  20.8970  0.00  0.00     0.000 OA
ATOM    114   O  IDS B   6      54.802   5.507  18.6470  0.00  0.00     0.000 OA
ATOM    115   O  IDS B   6      52.854   5.163  20.0840  0.00  0.00     0.000 OA
ENDBRANCH 104 111
BRANCH 107 116
ATOM    116   C  IDS B   6      53.077  -1.383  18.7250  0.00  0.00     0.000 C
ATOM    117   O  IDS B   6      52.376  -1.423  19.7040  0.00  0.00     0.000 OA
ATOM    118   O  IDS B   6      52.994  -2.219  17.8380  0.00  0.00     0.000 OA
ENDBRANCH 107 116
BRANCH 103 119
ATOM    119  O4  SGN B   7      56.513   0.938  19.7130  0.00  0.00     0.000 O
BRANCH 119 123
ATOM    120  C1  SGN B   7      59.515  -0.749  22.0860  0.00  0.00     0.000 C
ATOM    121  C2  SGN B   7      58.607  -1.710  21.2940  0.00  0.00     0.000 C
ATOM    122  C3  SGN B   7      57.853  -0.952  20.1940  0.00  0.00     0.000 C
ATOM    123  C4  SGN B   7      57.118   0.233  20.7970  0.00  0.00     0.000 C
ATOM    124  C5  SGN B   7      58.106   1.123  21.5690  0.00  0.00     0.000 C
ATOM    125  O5  SGN B   7      58.791   0.370  22.5940  0.00  0.00     0.000 O
ATOM    126   O  SGN B   7      56.948  -1.852  19.5450  0.00  0.00     0.000 O
ATOM    128  HD  SGN B   7      57.607  -1.742  20.0960  0.00  0.00     0.000 HD
BRANCH 121 130
ATOM    128   N  SGN B   7      59.668  -2.668  21.6140  0.00  0.00     0.000 N
ATOM    130  HD  SGN B   7      59.234  -2.925  22.3180  0.00  0.00     0.000 HD
ATOM    130   S  SGN B   7      59.479  -4.255  21.4190  0.00  0.00     0.000 S
ATOM    131   O  SGN B   7      58.989  -4.412  20.0920  0.00  0.00     0.000 OA
ATOM    132   O  SGN B   7      60.677  -4.900  21.8230  0.00  0.00     0.000 OA
ATOM    133   O  SGN B   7      58.459  -4.560  22.5690  0.00  0.00     0.000 OA
ENDBRANCH 121 130
BRANCH 124 134
ATOM    134   C  SGN B   7      57.455   2.261  22.3000  0.00  0.00     0.000 C
ATOM    135   O  SGN B   7      57.982   2.307  23.6370  0.00  0.00     0.000 O
ATOM    136   S  SGN B   7      57.539   3.527  24.5210  0.00  0.00     0.000 S
ATOM    137   O  SGN B   7      58.101   3.303  25.8320  0.00  0.00     0.000 OA
ATOM    138   O  SGN B   7      56.094   3.496  24.5130  0.00  0.00     0.000 OA
ATOM    139   O  SGN B   7      58.121   4.656  23.8120  0.00  0.00     0.000 OA
ENDBRANCH 124 134
BRANCH 120 140
ATOM    140  O4  IDS B   8      60.611  -0.113  21.6580  0.00  0.00     0.000 O
BRANCH 140 144
ATOM    141  C1  IDS B   8      63.703   0.497  19.9180  0.00  0.00     0.000 C
ATOM    142  C2  IDS B   8      63.400  -0.893  20.5480  0.00  0.00     0.000 C
ATOM    143  C3  IDS B   8      62.904  -0.801  22.0030  0.00  0.00     0.000 C
ATOM    144  C4  IDS B   8      61.873   0.312  22.1870  0.00  0.00     0.000 C
ATOM    145  C5  IDS B   8      62.341   1.590  21.4750  0.00  0.00     0.000 C
ATOM    146  O5  IDS B   8      62.587   1.362  20.0900  0.00  0.00     0.000 O
BRANCH 142 147
ATOM    147   O  IDS B   8      62.337  -1.572  19.7620  0.00  0.00     0.000 O
ATOM    148   S  IDS B   8      62.707  -2.688  18.6450  0.00  0.00     0.000 S
ATOM    149   O  IDS B   8      64.114  -2.555  18.3410  0.00  0.00     0.000 OA
ATOM    150   O  IDS B   8      62.381  -3.965  19.2510  0.00  0.00     0.000 OA
ATOM    151   O  IDS B   8      61.874  -2.373  17.5000  0.00  0.00     0.000 OA
ENDBRANCH 142 147
BRANCH 145 152
ATOM    152   C  IDS B   8      61.313   2.702  21.5380  0.00  0.00     0.000 C
ATOM    153   O  IDS B   8      60.978   3.154  22.6270  0.00  0.00     0.000 OA
ATOM    154   O  IDS B   8      60.845   3.149  20.5060  0.00  0.00     0.000 OA
ENDBRANCH 145 152
ENDBRANCH 140 144
ENDBRANCH 120 140
ENDBRANCH 119 123
ENDBRANCH 103 119
ENDBRANCH 102 106
ENDBRANCH 82 102
ENDBRANCH 81 85
ENDBRANCH 65 81
ENDBRANCH 64 68
ENDBRANCH 41 64
ENDBRANCH 40 44
ENDBRANCH 24 40
ENDBRANCH 23 27
ENDBRANCH 1 23
TORSDOF 31
ENDMDL
MODEL 8
REMARK VINA RESULT:      -9.3      8.285     12.327
ROOT
ATOM      1  C1  SGN B   1      33.588   1.086  11.2020  0.00  0.00     0.000 C
ATOM      2  C2  SGN B   1      32.094   0.726  11.2580  0.00  0.00     0.000 C
ATOM      3  C3  SGN B   1      31.855  -0.683  10.7060  0.00  0.00     0.000 C
ATOM      4  C4  SGN B   1      32.416  -0.797   9.2920  0.00  0.00     0.000 C
ATOM      5  C5  SGN B   1      33.857  -0.290   9.2850  0.00  0.00     0.000 C
ATOM      6  O5  SGN B   1      33.899   1.049   9.8150  0.00  0.00     0.000 O
ATOM      7   O  SGN B   1      30.467  -0.996  10.7180  0.00  0.00     0.000 O
ATOM      9  HD  SGN B   1      30.488  -0.308  10.1910  0.00  0.00     0.000 HD
ATOM      9   O  SGN B   1      32.372  -2.150   8.8760  0.00  0.00     0.000 O
ATOM     11  HD  SGN B   1      32.393  -1.463   8.3500  0.00  0.00     0.000 HD
ENDROOT
BRANCH 2 13
ATOM     11   N  SGN B   1      31.605   1.988  11.8450  0.00  0.00     0.000 N
ATOM     13  HD  SGN B   1      32.175   1.495  12.2730  0.00  0.00     0.000 HD
ATOM     13   S  SGN B   1      31.514   2.217  13.4350  0.00  0.00     0.000 S
ATOM     14   O  SGN B   1      32.006   1.085  14.1180  0.00  0.00     0.000 OA
ATOM     15   O  SGN B   1      32.047   3.503  13.7360  0.00  0.00     0.000 OA
ATOM     16   O  SGN B   1      29.962   2.323  13.5570  0.00  0.00     0.000 OA
ENDBRANCH 2 13
BRANCH 5 17
ATOM     17   C  SGN B   1      34.487  -0.251   7.9150  0.00  0.00     0.000 C
ATOM     18   O  SGN B   1      35.094  -1.518   7.5920  0.00  0.00     0.000 O
ATOM     19   S  SGN B   1      36.557  -1.451   6.9490  0.00  0.00     0.000 S
ATOM     20   O  SGN B   1      36.836  -2.801   6.5080  0.00  0.00     0.000 OA
ATOM     21   O  SGN B   1      36.423  -0.505   5.8660  0.00  0.00     0.000 OA
ATOM     22   O  SGN B   1      37.419  -1.001   8.0200  0.00  0.00     0.000 OA
ENDBRANCH 5 17
BRANCH 1 23
ATOM     23  O4  IDS B   2      34.721   1.000  11.9550  0.00  0.00     0.000 O
BRANCH 23 27
ATOM     24  C1  IDS B   2      38.566   0.401  13.4010  0.00  0.00     0.000 C
ATOM     25  C2  IDS B   2      38.449   0.578  11.8710  0.00  0.00     0.000 C
ATOM     26  C3  IDS B   2      37.061   1.083  11.4850  0.00  0.00     0.000 C
ATOM     27  C4  IDS B   2      35.929   0.213  12.0140  0.00  0.00     0.000 C
ATOM     28  C5  IDS B   2      36.281  -0.311  13.4210  0.00  0.00     0.000 C
ATOM     29  O5  IDS B   2      37.280   0.496  14.0280  0.00  0.00     0.000 O
ATOM     30   O  IDS B   2      36.952   1.113  10.0660  0.00  0.00     0.000 O
ATOM     32  HD  IDS B   2      36.799   0.335   9.7190  0.00  0.00     0.000 HD
BRANCH 25 32
ATOM     32   O  IDS B   2      39.441   1.545  11.3400  0.00  0.00     0.000 O
ATOM     33   S  IDS B   2      40.616   1.091  10.2750  0.00  0.00     0.000 S
ATOM     34   O  IDS B   2      41.519   2.225  10.1590  0.00  0.00     0.000 OA
ATOM     35   O  IDS B   2      41.304  -0.087  10.7850  0.00  0.00     0.000 OA
ATOM     36   O  IDS B   2      39.934   0.833   9.0280  0.00  0.00     0.000 OA
ENDBRANCH 25 32
BRANCH 28 37
ATOM     37   C  IDS B   2      35.128  -0.496  14.4300  0.00  0.00     0.000 C
ATOM     38   O  IDS B   2      34.375  -1.388  14.1210  0.00  0.00     0.000 OA
ATOM     39   O  IDS B   2      34.962   0.125  15.5090  0.00  0.00     0.000 OA
ENDBRANCH 28 37
BRANCH 24 40
ATOM     40  O4  SUS B   3      39.698  -0.102  13.9360  0.00  0.00     0.000 O
BRANCH 40 44
ATOM     41  C1  SUS B   3      41.665   0.841  17.5110  0.00  0.00     0.000 C
ATOM     42  C2  SUS B   3      40.294   0.145  17.6230  0.00  0.00     0.000 C
ATOM     43  C3  SUS B   3      39.966  -0.538  16.2980  0.00  0.00     0.000 C
ATOM     44  C4  SUS B   3      40.048   0.491  15.1810  0.00  0.00     0.000 C
ATOM     45  C5  SUS B   3      41.462   1.032  15.1150  0.00  0.00     0.000 C
ATOM     46  O5  SUS B   3      41.750   1.693  16.3630  0.00  0.00     0.000 O
BRANCH 42 49
ATOM     47   N  SUS B   3      39.441   0.720  18.6780  0.00  0.00     0.000 N
ATOM     49  HD  SUS B   3      39.618   1.533  18.9190  0.00  0.00     0.000 HD
ATOM     49   S  SUS B   3      39.390  -0.190  19.9960  0.00  0.00     0.000 S
ATOM     50   O  SUS B   3      40.694  -0.384  20.4950  0.00  0.00     0.000 OA
ATOM     51   O  SUS B   3      38.612   0.817  20.8800  0.00  0.00     0.000 OA
ATOM     52   O  SUS B   3      38.611  -1.336  19.7420  0.00  0.00     0.000 OA
ENDBRANCH 42 49
BRANCH 43 53
ATOM     53   O  SUS B   3      38.594  -1.072  16.3880  0.00  0.00     0.000 O
ATOM     54   S  SUS B   3      38.388  -2.669  16.0590  0.00  0.00     0.000 S
ATOM     55   O  SUS B   3      38.970  -3.421  17.1620  0.00  0.00     0.000 OA
ATOM     56   O  SUS B   3      36.948  -2.822  15.9410  0.00  0.00     0.000 OA
ATOM     57   O  SUS B   3      39.100  -2.929  14.8040  0.00  0.00     0.000 OA
ENDBRANCH 43 53
BRANCH 45 58
ATOM     58   C  SUS B   3      41.648   1.991  13.9600  0.00  0.00     0.000 C
ATOM     59   S  SUS B   3      41.328   4.446  13.2840  0.00  0.00     0.000 S
ATOM     60   O  SUS B   3      41.392   3.332  14.4080  0.00  0.00     0.000 O
ATOM     61   O  SUS B   3      40.021   4.295  12.6750  0.00  0.00     0.000 OA
ATOM     62   O  SUS B   3      41.436   5.638  14.0820  0.00  0.00     0.000 OA
ATOM     63   O  SUS B   3      42.432   4.186  12.4290  0.00  0.00     0.000 OA
ENDBRANCH 45 58
BRANCH 41 64
ATOM     64  O4  IDS B   4      42.732  -0.011  17.6590  0.00  0.00     0.000 O
BRANCH 64 68
ATOM     65  C1  IDS B   4      46.037  -1.202  18.6230  0.00  0.00     0.000 C
ATOM     66  C2  IDS B   4      45.099  -0.592  19.6730  0.00  0.00     0.000 C
ATOM     67  C3  IDS B   4      44.436   0.706  19.2430  0.00  0.00     0.000 C
ATOM     68  C4  IDS B   4      43.989   0.688  17.7930  0.00  0.00     0.000 C
ATOM     69  C5  IDS B   4      45.119   0.079  16.9530  0.00  0.00     0.000 C
ATOM     70  O5  IDS B   4      45.356  -1.264  17.3830  0.00  0.00     0.000 O
ATOM     71   O  IDS B   4      45.375   1.743  19.4400  0.00  0.00     0.000 O
ATOM     73  HD  IDS B   4      45.042   0.950  19.5490  0.00  0.00     0.000 HD
BRANCH 66 73
ATOM     73   O  IDS B   4      43.997  -1.530  19.9250  0.00  0.00     0.000 O
ATOM     74   S  IDS B   4      43.848  -2.142  21.4150  0.00  0.00     0.000 S
ATOM     75   O  IDS B   4      45.110  -2.779  21.7250  0.00  0.00     0.000 OA
ATOM     76   O  IDS B   4      42.751  -3.061  21.2490  0.00  0.00     0.000 OA
ATOM     77   O  IDS B   4      43.554  -1.014  22.2670  0.00  0.00     0.000 OA
ENDBRANCH 66 73
BRANCH 69 78
ATOM     78   C  IDS B   4      44.915   0.191  15.4480  0.00  0.00     0.000 C
ATOM     79   O  IDS B   4      45.161   1.263  14.8970  0.00  0.00     0.000 OA
ATOM     80   O  IDS B   4      44.609  -0.833  14.8100  0.00  0.00     0.000 OA
ENDBRANCH 69 78
BRANCH 65 81
ATOM     81  O4  SGN B   5      47.226  -0.537  18.6370  0.00  0.00     0.000 O
BRANCH 81 85
ATOM     82  C1  SGN B   5      50.962  -0.527  16.7180  0.00  0.00     0.000 C
ATOM     83  C2  SGN B   5      49.991   0.609  16.3620  0.00  0.00     0.000 C
ATOM     84  C3  SGN B   5      48.915   0.725  17.4500  0.00  0.00     0.000 C
ATOM     85  C4  SGN B   5      48.227  -0.618  17.6200  0.00  0.00     0.000 C
ATOM     86  C5  SGN B   5      49.283  -1.654  17.9940  0.00  0.00     0.000 C
ATOM     87  O5  SGN B   5      50.251  -1.732  16.9290  0.00  0.00     0.000 O
ATOM     88   O  SGN B   5      47.987   1.729  17.1020  0.00  0.00     0.000 O
ATOM     90  HD  SGN B   5      48.628   1.816  17.6770  0.00  0.00     0.000 HD
BRANCH 83 92
ATOM     90   N  SGN B   5      50.702   0.777  15.0790  0.00  0.00     0.000 N
ATOM     92  HD  SGN B   5      50.339   0.296  14.4570  0.00  0.00     0.000 HD
ATOM     92   S  SGN B   5      51.116   2.256  14.6380  0.00  0.00     0.000 S
ATOM     93   O  SGN B   5      51.768   2.080  13.3750  0.00  0.00     0.000 OA
ATOM     94   O  SGN B   5      49.925   3.031  14.7230  0.00  0.00     0.000 OA
ATOM     95   O  SGN B   5      52.047   2.737  15.7290  0.00  0.00     0.000 OA
ENDBRANCH 83 92
BRANCH 86 96
ATOM     96   C  SGN B   5      48.735  -3.050  18.2080  0.00  0.00     0.000 C
ATOM     97   O  SGN B   5      48.255  -3.595  16.9770  0.00  0.00     0.000 O
ATOM     98   S  SGN B   5      48.791  -5.058  16.5960  0.00  0.00     0.000 S
ATOM     99   O  SGN B   5      47.990  -5.401  15.4460  0.00  0.00     0.000 OA
ATOM    100   O  SGN B   5      50.182  -4.948  16.3370  0.00  0.00     0.000 OA
ATOM    101   O  SGN B   5      48.500  -5.853  17.7450  0.00  0.00     0.000 OA
ENDBRANCH 86 96
BRANCH 82 102
ATOM    102  O4  IDS B   6      51.734  -0.235  17.8020  0.00  0.00     0.000 O
BRANCH 102 106
ATOM    103  C1  IDS B   6      54.797   0.283  19.7020  0.00  0.00     0.000 C
ATOM    104  C2  IDS B   6      54.532   1.070  18.4080  0.00  0.00     0.000 C
ATOM    105  C3  IDS B   6      54.056   0.235  17.2350  0.00  0.00     0.000 C
ATOM    106  C4  IDS B   6      53.049  -0.827  17.6410  0.00  0.00     0.000 C
ATOM    107  C5  IDS B   6      53.505  -1.503  18.9380  0.00  0.00     0.000 C
ATOM    108  O5  IDS B   6      53.697  -0.558  19.9920  0.00  0.00     0.000 O
ATOM    109   O  IDS B   6      55.191  -0.355  16.6230  0.00  0.00     0.000 O
ATOM    111  HD  IDS B   6      55.787  -0.359  17.2510  0.00  0.00     0.000 HD
BRANCH 104 111
ATOM    111   O  IDS B   6      53.459   2.045  18.6520  0.00  0.00     0.000 O
ATOM    112   S  IDS B   6      53.861   3.589  18.7880  0.00  0.00     0.000 S
ATOM    113   O  IDS B   6      54.801   3.626  19.8980  0.00  0.00     0.000 OA
ATOM    114   O  IDS B   6      54.410   4.040  17.5040  0.00  0.00     0.000 OA
ATOM    115   O  IDS B   6      52.561   4.143  19.1000  0.00  0.00     0.000 OA
ENDBRANCH 104 111
BRANCH 107 116
ATOM    116   C  IDS B   6      52.471  -2.540  19.3560  0.00  0.00     0.000 C
ATOM    117   O  IDS B   6      52.369  -3.516  18.6560  0.00  0.00     0.000 OA
ATOM    118   O  IDS B   6      51.775  -2.381  20.3470  0.00  0.00     0.000 OA
ENDBRANCH 107 116
BRANCH 103 119
ATOM    119  O4  SGN B   7      56.045  -0.221  19.5210  0.00  0.00     0.000 O
BRANCH 119 123
ATOM    120  C1  SGN B   7      59.030  -1.784  21.9980  0.00  0.00     0.000 C
ATOM    121  C2  SGN B   7      58.007  -2.771  21.4040  0.00  0.00     0.000 C
ATOM    122  C3  SGN B   7      57.255  -2.126  20.2320  0.00  0.00     0.000 C
ATOM    123  C4  SGN B   7      56.651  -0.804  20.6750  0.00  0.00     0.000 C
ATOM    124  C5  SGN B   7      57.747   0.104  21.2560  0.00  0.00     0.000 C
ATOM    125  O5  SGN B   7      58.426  -0.542  22.3560  0.00  0.00     0.000 O
ATOM    126   O  SGN B   7      56.247  -3.033  19.7700  0.00  0.00     0.000 O
ATOM    128  HD  SGN B   7      56.942  -2.897  20.2690  0.00  0.00     0.000 HD
BRANCH 121 130
ATOM    128   N  SGN B   7      59.040  -3.791  21.6000  0.00  0.00     0.000 N
ATOM    130  HD  SGN B   7      58.861  -3.820  22.4470  0.00  0.00     0.000 HD
ATOM    130   S  SGN B   7      58.681  -5.334  21.8870  0.00  0.00     0.000 S
ATOM    131   O  SGN B   7      57.749  -5.694  20.8730  0.00  0.00     0.000 OA
ATOM    132   O  SGN B   7      59.894  -6.055  22.0340  0.00  0.00     0.000 OA
ATOM    133   O  SGN B   7      58.107  -5.223  23.3400  0.00  0.00     0.000 OA
ENDBRANCH 121 130
BRANCH 124 134
ATOM    134   C  SGN B   7      57.230   1.391  21.8280  0.00  0.00     0.000 C
ATOM    135   O  SGN B   7      57.098   1.239  23.2520  0.00  0.00     0.000 O
ATOM    136   S  SGN B   7      56.713   2.529  24.0610  0.00  0.00     0.000 S
ATOM    137   O  SGN B   7      56.539   2.112  25.4320  0.00  0.00     0.000 OA
ATOM    138   O  SGN B   7      55.490   3.005  23.4550  0.00  0.00     0.000 OA
ATOM    139   O  SGN B   7      57.867   3.389  23.8450  0.00  0.00     0.000 OA
ENDBRANCH 124 134
BRANCH 120 140
ATOM    140  O4  IDS B   8      60.148  -1.317  21.4300  0.00  0.00     0.000 O
BRANCH 140 144
ATOM    141  C1  IDS B   8      63.061   0.447  20.2640  0.00  0.00     0.000 C
ATOM    142  C2  IDS B   8      61.632   0.906  19.8570  0.00  0.00     0.000 C
ATOM    143  C3  IDS B   8      60.750  -0.248  19.3460  0.00  0.00     0.000 C
ATOM    144  C4  IDS B   8      60.884  -1.498  20.2140  0.00  0.00     0.000 C
ATOM    145  C5  IDS B   8      62.363  -1.770  20.5270  0.00  0.00     0.000 C
ATOM    146  O5  IDS B   8      62.981  -0.653  21.1620  0.00  0.00     0.000 O
BRANCH 142 147
ATOM    147   O  IDS B   8      60.946   1.496  21.0360  0.00  0.00     0.000 O
ATOM    148   S  IDS B   8      60.956   3.097  21.2960  0.00  0.00     0.000 S
ATOM    149   O  IDS B   8      62.002   3.667  20.4770  0.00  0.00     0.000 OA
ATOM    150   O  IDS B   8      59.633   3.559  20.9200  0.00  0.00     0.000 OA
ATOM    151   O  IDS B   8      61.233   3.252  22.7120  0.00  0.00     0.000 OA
ENDBRANCH 142 147
BRANCH 145 152
ATOM    152   C  IDS B   8      62.553  -2.942  21.4690  0.00  0.00     0.000 C
ATOM    153   O  IDS B   8      62.204  -4.063  21.1160  0.00  0.00     0.000 OA
ATOM    154   O  IDS B   8      63.070  -2.762  22.5570  0.00  0.00     0.000 OA
ENDBRANCH 145 152
ENDBRANCH 140 144
ENDBRANCH 120 140
ENDBRANCH 119 123
ENDBRANCH 103 119
ENDBRANCH 102 106
ENDBRANCH 82 102
ENDBRANCH 81 85
ENDBRANCH 65 81
ENDBRANCH 64 68
ENDBRANCH 41 64
ENDBRANCH 40 44
ENDBRANCH 24 40
ENDBRANCH 23 27
ENDBRANCH 1 23
TORSDOF 31
ENDMDL
MODEL 9
REMARK VINA RESULT:      -8.9      2.185      4.008
ROOT
ATOM      1  C1  SGN B   1      32.150   3.555  11.2400  0.00  0.00     0.000 C
ATOM      2  C2  SGN B   1      30.808   3.963  11.8700  0.00  0.00     0.000 C
ATOM      3  C3  SGN B   1      30.279   2.855  12.7860  0.00  0.00     0.000 C
ATOM      4  C4  SGN B   1      30.172   1.542  12.0170  0.00  0.00     0.000 C
ATOM      5  C5  SGN B   1      31.495   1.273  11.3030  0.00  0.00     0.000 C
ATOM      6  O5  SGN B   1      31.832   2.401  10.4730  0.00  0.00     0.000 O
ATOM      7   O  SGN B   1      29.017   3.217  13.3330  0.00  0.00     0.000 O
ATOM      9  HD  SGN B   1      28.847   3.213  12.4840  0.00  0.00     0.000 HD
ATOM      9   O  SGN B   1      29.881   0.490  12.9190  0.00  0.00     0.000 O
ATOM     11  HD  SGN B   1      29.711   0.486  12.0700  0.00  0.00     0.000 HD
ENDROOT
BRANCH 2 13
ATOM     11   N  SGN B   1      30.489   5.327  11.4060  0.00  0.00     0.000 N
ATOM     13  HD  SGN B   1      31.294   5.123  11.6520  0.00  0.00     0.000 HD
ATOM     13   S  SGN B   1      31.301   6.619  11.9150  0.00  0.00     0.000 S
ATOM     14   O  SGN B   1      32.339   6.229  12.7860  0.00  0.00     0.000 OA
ATOM     15   O  SGN B   1      31.603   7.434  10.7860  0.00  0.00     0.000 OA
ATOM     16   O  SGN B   1      30.142   7.319  12.6900  0.00  0.00     0.000 OA
ENDBRANCH 2 13
BRANCH 5 17
ATOM     17   C  SGN B   1      31.477   0.052  10.4160  0.00  0.00     0.000 C
ATOM     18   O  SGN B   1      32.779  -0.562  10.3590  0.00  0.00     0.000 O
ATOM     19   S  SGN B   1      33.288  -0.992   8.9050  0.00  0.00     0.000 S
ATOM     20   O  SGN B   1      34.480  -1.778   9.1420  0.00  0.00     0.000 OA
ATOM     21   O  SGN B   1      32.191  -1.756   8.3590  0.00  0.00     0.000 OA
ATOM     22   O  SGN B   1      33.542   0.251   8.2100  0.00  0.00     0.000 OA
ENDBRANCH 5 17
BRANCH 1 23
ATOM     23  O4  IDS B   2      33.491   3.623  11.4790  0.00  0.00     0.000 O
BRANCH 23 27
ATOM     24  C1  IDS B   2      37.215   2.576  12.9830  0.00  0.00     0.000 C
ATOM     25  C2  IDS B   2      36.020   1.773  13.5410  0.00  0.00     0.000 C
ATOM     26  C3  IDS B   2      34.760   2.025  12.7180  0.00  0.00     0.000 C
ATOM     27  C4  IDS B   2      34.404   3.500  12.5890  0.00  0.00     0.000 C
ATOM     28  C5  IDS B   2      35.688   4.342  12.4550  0.00  0.00     0.000 C
ATOM     29  O5  IDS B   2      36.777   3.542  12.0180  0.00  0.00     0.000 O
ATOM     30   O  IDS B   2      33.658   1.369  13.3350  0.00  0.00     0.000 O
ATOM     32  HD  IDS B   2      33.339   1.803  14.0130  0.00  0.00     0.000 HD
BRANCH 25 32
ATOM     32   O  IDS B   2      36.275   0.311  13.5350  0.00  0.00     0.000 O
ATOM     33   S  IDS B   2      36.226  -0.588  14.9180  0.00  0.00     0.000 S
ATOM     34   O  IDS B   2      36.739  -1.903  14.5640  0.00  0.00     0.000 OA
ATOM     35   O  IDS B   2      37.048   0.047  15.9380  0.00  0.00     0.000 OA
ATOM     36   O  IDS B   2      34.832  -0.651  15.2930  0.00  0.00     0.000 OA
ENDBRANCH 25 32
BRANCH 28 37
ATOM     37   C  IDS B   2      35.632   5.607  11.5740  0.00  0.00     0.000 C
ATOM     38   O  IDS B   2      35.460   6.617  12.2170  0.00  0.00     0.000 OA
ATOM     39   O  IDS B   2      35.804   5.671  10.3330  0.00  0.00     0.000 OA
ENDBRANCH 28 37
BRANCH 24 40
ATOM     40  O4  SUS B   3      38.406   2.539  13.6160  0.00  0.00     0.000 O
BRANCH 40 44
ATOM     41  C1  SUS B   3      42.219   2.402  11.8870  0.00  0.00     0.000 C
ATOM     42  C2  SUS B   3      41.769   3.745  12.4960  0.00  0.00     0.000 C
ATOM     43  C3  SUS B   3      40.621   3.496  13.4720  0.00  0.00     0.000 C
ATOM     44  C4  SUS B   3      39.515   2.744  12.7480  0.00  0.00     0.000 C
ATOM     45  C5  SUS B   3      40.056   1.408  12.2790  0.00  0.00     0.000 C
ATOM     46  O5  SUS B   3      41.123   1.658  11.3430  0.00  0.00     0.000 O
BRANCH 42 49
ATOM     47   N  SUS B   3      42.694   4.650  13.2010  0.00  0.00     0.000 N
ATOM     49  HD  SUS B   3      42.372   5.082  13.8780  0.00  0.00     0.000 HD
ATOM     49   S  SUS B   3      43.389   5.708  12.2200  0.00  0.00     0.000 S
ATOM     50   O  SUS B   3      42.404   6.464  11.5530  0.00  0.00     0.000 OA
ATOM     51   O  SUS B   3      44.073   6.554  13.3240  0.00  0.00     0.000 OA
ATOM     52   O  SUS B   3      44.352   5.050  11.4290  0.00  0.00     0.000 OA
ENDBRANCH 42 49
BRANCH 43 53
ATOM     53   O  SUS B   3      40.120   4.806  13.9290  0.00  0.00     0.000 O
ATOM     54   S  SUS B   3      40.290   5.158  15.5260  0.00  0.00     0.000 S
ATOM     55   O  SUS B   3      41.707   5.386  15.7740  0.00  0.00     0.000 OA
ATOM     56   O  SUS B   3      39.465   6.337  15.7170  0.00  0.00     0.000 OA
ATOM     57   O  SUS B   3      39.804   3.988  16.2630  0.00  0.00     0.000 OA
ENDBRANCH 43 53
BRANCH 45 58
ATOM     58   C  SUS B   3      38.983   0.557  11.6350  0.00  0.00     0.000 C
ATOM     59   S  SUS B   3      37.705   0.218   9.4360  0.00  0.00     0.000 S
ATOM     60   O  SUS B   3      38.917   0.857  10.2310  0.00  0.00     0.000 O
ATOM     61   O  SUS B   3      36.558   1.042   9.7660  0.00  0.00     0.000 OA
ATOM     62   O  SUS B   3      38.149   0.402   8.0800  0.00  0.00     0.000 OA
ATOM     63   O  SUS B   3      37.632  -1.130   9.8740  0.00  0.00     0.000 OA
ENDBRANCH 45 58
BRANCH 41 64
ATOM     64  O4  IDS B   4      43.042   1.671  12.7080  0.00  0.00     0.000 O
BRANCH 64 68
ATOM     65  C1  IDS B   4      46.336   0.404  13.6150  0.00  0.00     0.000 C
ATOM     66  C2  IDS B   4      46.202   1.711  12.8240  0.00  0.00     0.000 C
ATOM     67  C3  IDS B   4      45.236   1.641  11.6530  0.00  0.00     0.000 C
ATOM     68  C4  IDS B   4      43.979   0.854  11.9720  0.00  0.00     0.000 C
ATOM     69  C5  IDS B   4      44.391  -0.424  12.7160  0.00  0.00     0.000 C
ATOM     70  O5  IDS B   4      45.040  -0.068  13.9390  0.00  0.00     0.000 O
ATOM     71   O  IDS B   4      45.923   1.030  10.5800  0.00  0.00     0.000 O
ATOM     73  HD  IDS B   4      45.855   1.439  11.3400  0.00  0.00     0.000 HD
BRANCH 66 73
ATOM     73   O  IDS B   4      45.664   2.749  13.7130  0.00  0.00     0.000 O
ATOM     74   S  IDS B   4      46.673   3.902  14.2310  0.00  0.00     0.000 S
ATOM     75   O  IDS B   4      47.771   3.223  14.8860  0.00  0.00     0.000 OA
ATOM     76   O  IDS B   4      45.830   4.654  15.1260  0.00  0.00     0.000 OA
ATOM     77   O  IDS B   4      47.074   4.624  13.0470  0.00  0.00     0.000 OA
ENDBRANCH 66 73
BRANCH 69 78
ATOM     78   C  IDS B   4      43.264  -1.428  12.9140  0.00  0.00     0.000 C
ATOM     79   O  IDS B   4      42.518  -1.295  13.8830  0.00  0.00     0.000 OA
ATOM     80   O  IDS B   4      43.069  -2.286  12.0330  0.00  0.00     0.000 OA
ENDBRANCH 69 78
BRANCH 65 81
ATOM     81  O4  SGN B   5      47.149  -0.454  12.9380  0.00  0.00     0.000 O
BRANCH 81 85
ATOM     82  C1  SGN B   5      49.950  -3.547  13.4190  0.00  0.00     0.000 C
ATOM     83  C2  SGN B   5      48.553  -3.770  14.0190  0.00  0.00     0.000 C
ATOM     84  C3  SGN B   5      47.555  -2.800  13.3720  0.00  0.00     0.000 C
ATOM     85  C4  SGN B   5      48.058  -1.377  13.5430  0.00  0.00     0.000 C
ATOM     86  C5  SGN B   5      49.434  -1.273  12.8900  0.00  0.00     0.000 C
ATOM     87  O5  SGN B   5      50.328  -2.190  13.5500  0.00  0.00     0.000 O
ATOM     88   O  SGN B   5      46.282  -2.960  13.9590  0.00  0.00     0.000 O
ATOM     90  HD  SGN B   5      46.525  -3.278  13.1910  0.00  0.00     0.000 HD
BRANCH 83 92
ATOM     90   N  SGN B   5      49.262  -4.874  14.6970  0.00  0.00     0.000 N
ATOM     92  HD  SGN B   5      49.802  -4.571  15.3020  0.00  0.00     0.000 HD
ATOM     92   S  SGN B   5      48.414  -6.158  15.1280  0.00  0.00     0.000 S
ATOM     93   O  SGN B   5      49.371  -7.021  15.7520  0.00  0.00     0.000 OA
ATOM     94   O  SGN B   5      47.310  -5.659  15.8740  0.00  0.00     0.000 OA
ATOM     95   O  SGN B   5      47.868  -6.712  13.8300  0.00  0.00     0.000 OA
ENDBRANCH 83 92
BRANCH 86 96
ATOM     96   C  SGN B   5      50.058   0.105  12.9730  0.00  0.00     0.000 C
ATOM     97   O  SGN B   5      50.286   0.471  14.3360  0.00  0.00     0.000 O
ATOM     98   S  SGN B   5      51.761   0.991  14.6900  0.00  0.00     0.000 S
ATOM     99   O  SGN B   5      51.615   1.463  16.0460  0.00  0.00     0.000 OA
ATOM    100   O  SGN B   5      52.648  -0.106  14.5360  0.00  0.00     0.000 OA
ATOM    101   O  SGN B   5      52.003   2.037  13.7500  0.00  0.00     0.000 OA
ENDBRANCH 86 96
BRANCH 82 102
ATOM    102  O4  IDS B   6      50.029  -3.939  12.1160  0.00  0.00     0.000 O
BRANCH 102 106
ATOM    103  C1  IDS B   6      51.228  -5.913   9.3010  0.00  0.00     0.000 C
ATOM    104  C2  IDS B   6      50.747  -6.595  10.5910  0.00  0.00     0.000 C
ATOM    105  C3  IDS B   6      51.297  -6.004  11.8750  0.00  0.00     0.000 C
ATOM    106  C4  IDS B   6      51.345  -4.486  11.8480  0.00  0.00     0.000 C
ATOM    107  C5  IDS B   6      51.868  -4.009  10.4900  0.00  0.00     0.000 C
ATOM    108  O5  IDS B   6      51.078  -4.510   9.4100  0.00  0.00     0.000 O
ATOM    109   O  IDS B   6      52.590  -6.545  12.0920  0.00  0.00     0.000 O
ATOM    111  HD  IDS B   6      52.847  -6.792  11.3020  0.00  0.00     0.000 HD
BRANCH 104 111
ATOM    111   O  IDS B   6      49.286  -6.452  10.6930  0.00  0.00     0.000 O
ATOM    112   S  IDS B   6      48.380  -7.729  10.3600  0.00  0.00     0.000 S
ATOM    113   O  IDS B   6      48.731  -8.081   8.9930  0.00  0.00     0.000 OA
ATOM    114   O  IDS B   6      48.664  -8.772  11.3530  0.00  0.00     0.000 OA
ATOM    115   O  IDS B   6      47.071  -7.128  10.4940  0.00  0.00     0.000 OA
ENDBRANCH 104 111
BRANCH 107 116
ATOM    116   C  IDS B   6      51.878  -2.486  10.4600  0.00  0.00     0.000 C
ATOM    117   O  IDS B   6      52.662  -1.935  11.1910  0.00  0.00     0.000 OA
ATOM    118   O  IDS B   6      51.120  -1.860   9.7370  0.00  0.00     0.000 OA
ENDBRANCH 107 116
BRANCH 103 119
ATOM    119  O4  SGN B   7      52.441  -6.478   9.0720  0.00  0.00     0.000 O
BRANCH 119 123
ATOM    120  C1  SGN B   7      54.576  -7.842   5.7440  0.00  0.00     0.000 C
ATOM    121  C2  SGN B   7      54.289  -6.331   5.8380  0.00  0.00     0.000 C
ATOM    122  C3  SGN B   7      53.875  -5.950   7.2650  0.00  0.00     0.000 C
ATOM    123  C4  SGN B   7      52.717  -6.825   7.7150  0.00  0.00     0.000 C
ATOM    124  C5  SGN B   7      53.098  -8.308   7.5770  0.00  0.00     0.000 C
ATOM    125  O5  SGN B   7      53.479  -8.622   6.2190  0.00  0.00     0.000 O
ATOM    126   O  SGN B   7      53.522  -4.562   7.2930  0.00  0.00     0.000 O
ATOM    128  HD  SGN B   7      53.871  -5.224   6.8560  0.00  0.00     0.000 HD
BRANCH 121 130
ATOM    128   N  SGN B   7      54.527  -6.044   4.4210  0.00  0.00     0.000 N
ATOM    130  HD  SGN B   7      54.108  -5.289   4.4970  0.00  0.00     0.000 HD
ATOM    130   S  SGN B   7      55.592  -4.938   3.9360  0.00  0.00     0.000 S
ATOM    131   O  SGN B   7      56.793  -5.245   4.6350  0.00  0.00     0.000 OA
ATOM    132   O  SGN B   7      55.577  -4.897   2.5180  0.00  0.00     0.000 OA
ATOM    133   O  SGN B   7      54.857  -3.627   4.3760  0.00  0.00     0.000 OA
ENDBRANCH 121 130
BRANCH 124 134
ATOM    134   C  SGN B   7      51.976  -9.255   7.8880  0.00  0.00     0.000 C
ATOM    135   O  SGN B   7      52.447 -10.600   7.7000  0.00  0.00     0.000 O
ATOM    136   S  SGN B   7      51.465 -11.751   8.1240  0.00  0.00     0.000 S
ATOM    137   O  SGN B   7      52.105 -12.989   7.7490  0.00  0.00     0.000 OA
ATOM    138   O  SGN B   7      50.248 -11.499   7.3870  0.00  0.00     0.000 OA
ATOM    139   O  SGN B   7      51.352 -11.553   9.5600  0.00  0.00     0.000 OA
ENDBRANCH 124 134
BRANCH 120 140
ATOM    140  O4  IDS B   8      55.578  -8.526   6.3070  0.00  0.00     0.000 O
BRANCH 140 144
ATOM    141  C1  IDS B   8      57.337 -10.306   3.7190  0.00  0.00     0.000 C
ATOM    142  C2  IDS B   8      55.790 -10.407   3.8490  0.00  0.00     0.000 C
ATOM    143  C3  IDS B   8      55.324 -10.704   5.2870  0.00  0.00     0.000 C
ATOM    144  C4  IDS B   8      56.080  -9.868   6.3180  0.00  0.00     0.000 C
ATOM    145  C5  IDS B   8      57.583  -9.872   6.0050  0.00  0.00     0.000 C
ATOM    146  O5  IDS B   8      57.848  -9.398   4.6870  0.00  0.00     0.000 O
BRANCH 142 147
ATOM    147   O  IDS B   8      55.173  -9.116   3.4450  0.00  0.00     0.000 O
ATOM    148   S  IDS B   8      54.084  -9.050   2.2450  0.00  0.00     0.000 S
ATOM    149   O  IDS B   8      54.180 -10.283   1.4970  0.00  0.00     0.000 OA
ATOM    150   O  IDS B   8      52.798  -8.888   2.8990  0.00  0.00     0.000 OA
ATOM    151   O  IDS B   8      54.465  -7.901   1.4460  0.00  0.00     0.000 OA
ENDBRANCH 142 147
BRANCH 145 152
ATOM    152   C  IDS B   8      58.376  -8.978   6.9370  0.00  0.00     0.000 C
ATOM    153   O  IDS B   8      59.116  -8.121   6.4670  0.00  0.00     0.000 OA
ATOM    154   O  IDS B   8      58.255  -9.107   8.1420  0.00  0.00     0.000 OA
ENDBRANCH 145 152
ENDBRANCH 140 144
ENDBRANCH 120 140
ENDBRANCH 119 123
ENDBRANCH 103 119
ENDBRANCH 102 106
ENDBRANCH 82 102
ENDBRANCH 81 85
ENDBRANCH 65 81
ENDBRANCH 64 68
ENDBRANCH 41 64
ENDBRANCH 40 44
ENDBRANCH 24 40
ENDBRANCH 23 27
ENDBRANCH 1 23
TORSDOF 31
ENDMDL
MODEL 10
REMARK VINA RESULT:      -8.8      9.054     12.331
ROOT
ATOM      1  C1  SGN B   1      33.645   1.046  11.2230  0.00  0.00     0.000 C
ATOM      2  C2  SGN B   1      32.159   0.656  11.2730  0.00  0.00     0.000 C
ATOM      3  C3  SGN B   1      31.950  -0.756  10.7160  0.00  0.00     0.000 C
ATOM      4  C4  SGN B   1      32.518  -0.855   9.3040  0.00  0.00     0.000 C
ATOM      5  C5  SGN B   1      33.948  -0.319   9.3030  0.00  0.00     0.000 C
ATOM      6  O5  SGN B   1      33.961   1.019   9.8370  0.00  0.00     0.000 O
ATOM      7   O  SGN B   1      30.569  -1.097  10.7230  0.00  0.00     0.000 O
ATOM      9  HD  SGN B   1      30.577  -0.408  10.1980  0.00  0.00     0.000 HD
ATOM      9   O  SGN B   1      32.503  -2.207   8.8840  0.00  0.00     0.000 O
ATOM     11  HD  SGN B   1      32.512  -1.518   8.3600  0.00  0.00     0.000 HD
ENDROOT
BRANCH 2 13
ATOM     11   N  SGN B   1      31.623   1.898  11.8620  0.00  0.00     0.000 N
ATOM     13  HD  SGN B   1      32.219   1.432  12.2840  0.00  0.00     0.000 HD
ATOM     13   S  SGN B   1      31.542   2.129  13.4520  0.00  0.00     0.000 S
ATOM     14   O  SGN B   1      32.091   1.021  14.1330  0.00  0.00     0.000 OA
ATOM     15   O  SGN B   1      32.023   3.438  13.7430  0.00  0.00     0.000 OA
ATOM     16   O  SGN B   1      29.989   2.168  13.5920  0.00  0.00     0.000 OA
ENDBRANCH 2 13
BRANCH 5 17
ATOM     17   C  SGN B   1      34.582  -0.263   7.9350  0.00  0.00     0.000 C
ATOM     18   O  SGN B   1      35.219  -1.516   7.6120  0.00  0.00     0.000 O
ATOM     19   S  SGN B   1      36.682  -1.414   6.9750  0.00  0.00     0.000 S
ATOM     20   O  SGN B   1      36.993  -2.757   6.5320  0.00  0.00     0.000 OA
ATOM     21   O  SGN B   1      36.531  -0.469   5.8930  0.00  0.00     0.000 OA
ATOM     22   O  SGN B   1      37.531  -0.947   8.0490  0.00  0.00     0.000 OA
ENDBRANCH 5 17
BRANCH 1 23
ATOM     23  O4  IDS B   2      34.778   0.981  11.9790  0.00  0.00     0.000 O
BRANCH 23 27
ATOM     24  C1  IDS B   2      38.635   0.465  13.4240  0.00  0.00     0.000 C
ATOM     25  C2  IDS B   2      38.513   0.633  11.8930  0.00  0.00     0.000 C
ATOM     26  C3  IDS B   2      37.115   1.108  11.5060  0.00  0.00     0.000 C
ATOM     27  C4  IDS B   2      36.001   0.218  12.0400  0.00  0.00     0.000 C
ATOM     28  C5  IDS B   2      36.365  -0.292  13.4490  0.00  0.00     0.000 C
ATOM     29  O5  IDS B   2      37.348   0.536  14.0510  0.00  0.00     0.000 O
ATOM     30   O  IDS B   2      37.004   1.131  10.0880  0.00  0.00     0.000 O
ATOM     32  HD  IDS B   2      36.866   0.349   9.7440  0.00  0.00     0.000 HD
BRANCH 25 32
ATOM     32   O  IDS B   2      39.485   1.618  11.3580  0.00  0.00     0.000 O
ATOM     33   S  IDS B   2      40.700   1.174  10.3330  0.00  0.00     0.000 S
ATOM     34   O  IDS B   2      41.567   2.335  10.2050  0.00  0.00     0.000 OA
ATOM     35   O  IDS B   2      41.414   0.035  10.8920  0.00  0.00     0.000 OA
ATOM     36   O  IDS B   2      40.056   0.858   9.0790  0.00  0.00     0.000 OA
ENDBRANCH 25 32
BRANCH 28 37
ATOM     37   C  IDS B   2      35.217  -0.497  14.4600  0.00  0.00     0.000 C
ATOM     38   O  IDS B   2      34.408  -1.314  14.0900  0.00  0.00     0.000 OA
ATOM     39   O  IDS B   2      35.103   0.037  15.5900  0.00  0.00     0.000 OA
ENDBRANCH 28 37
BRANCH 24 40
ATOM     40  O4  SUS B   3      39.777  -0.014  13.9590  0.00  0.00     0.000 O
BRANCH 40 44
ATOM     41  C1  SUS B   3      41.686   0.924  17.5680  0.00  0.00     0.000 C
ATOM     42  C2  SUS B   3      40.343   0.172  17.6550  0.00  0.00     0.000 C
ATOM     43  C3  SUS B   3      40.050  -0.492  16.3120  0.00  0.00     0.000 C
ATOM     44  C4  SUS B   3      40.097   0.564  15.2200  0.00  0.00     0.000 C
ATOM     45  C5  SUS B   3      41.488   1.161  15.1750  0.00  0.00     0.000 C
ATOM     46  O5  SUS B   3      41.744   1.804  16.4400  0.00  0.00     0.000 O
BRANCH 42 49
ATOM     47   N  SUS B   3      39.569   0.748  18.7690  0.00  0.00     0.000 N
ATOM     49  HD  SUS B   3      39.834   1.516  19.0680  0.00  0.00     0.000 HD
ATOM     49   S  SUS B   3      39.440  -0.253  20.0130  0.00  0.00     0.000 S
ATOM     50   O  SUS B   3      40.723  -0.621  20.4680  0.00  0.00     0.000 OA
ATOM     51   O  SUS B   3      38.784   0.758  20.9890  0.00  0.00     0.000 OA
ATOM     52   O  SUS B   3      38.541  -1.288  19.6890  0.00  0.00     0.000 OA
ENDBRANCH 42 49
BRANCH 43 53
ATOM     53   O  SUS B   3      38.699  -1.082  16.3820  0.00  0.00     0.000 O
ATOM     54   S  SUS B   3      38.555  -2.674  15.9990  0.00  0.00     0.000 S
ATOM     55   O  SUS B   3      39.165  -3.439  17.0780  0.00  0.00     0.000 OA
ATOM     56   O  SUS B   3      37.123  -2.878  15.8730  0.00  0.00     0.000 OA
ATOM     57   O  SUS B   3      39.279  -2.865  14.7380  0.00  0.00     0.000 OA
ENDBRANCH 43 53
BRANCH 45 58
ATOM     58   C  SUS B   3      41.643   2.153  14.0430  0.00  0.00     0.000 C
ATOM     59   S  SUS B   3      41.241   4.611  13.4250  0.00  0.00     0.000 S
ATOM     60   O  SUS B   3      41.341   3.474  14.5230  0.00  0.00     0.000 O
ATOM     61   O  SUS B   3      39.940   4.431  12.8100  0.00  0.00     0.000 OA
ATOM     62   O  SUS B   3      41.306   5.787  14.2510  0.00  0.00     0.000 OA
ATOM     63   O  SUS B   3      42.353   4.410  12.5660  0.00  0.00     0.000 OA
ENDBRANCH 45 58
BRANCH 41 64
ATOM     64  O4  IDS B   4      42.785   0.111  17.7020  0.00  0.00     0.000 O
BRANCH 64 68
ATOM     65  C1  IDS B   4      46.126  -1.004  18.6340  0.00  0.00     0.000 C
ATOM     66  C2  IDS B   4      45.140  -0.536  19.7110  0.00  0.00     0.000 C
ATOM     67  C3  IDS B   4      44.421   0.762  19.3840  0.00  0.00     0.000 C
ATOM     68  C4  IDS B   4      44.003   0.854  17.9280  0.00  0.00     0.000 C
ATOM     69  C5  IDS B   4      45.178   0.378  17.0640  0.00  0.00     0.000 C
ATOM     70  O5  IDS B   4      45.472  -0.985  17.3780  0.00  0.00     0.000 O
ATOM     71   O  IDS B   4      45.304   1.820  19.6950  0.00  0.00     0.000 O
ATOM     73  HD  IDS B   4      45.009   1.006  19.7240  0.00  0.00     0.000 HD
BRANCH 66 73
ATOM     73   O  IDS B   4      44.081  -1.545  19.8530  0.00  0.00     0.000 O
ATOM     74   S  IDS B   4      43.873  -2.228  21.3040  0.00  0.00     0.000 S
ATOM     75   O  IDS B   4      45.148  -2.807  21.6710  0.00  0.00     0.000 OA
ATOM     76   O  IDS B   4      42.844  -3.200  21.0300  0.00  0.00     0.000 OA
ATOM     77   O  IDS B   4      43.460  -1.157  22.1790  0.00  0.00     0.000 OA
ENDBRANCH 66 73
BRANCH 69 78
ATOM     78   C  IDS B   4      44.997   0.616  15.5710  0.00  0.00     0.000 C
ATOM     79   O  IDS B   4      45.192   1.746  15.1240  0.00  0.00     0.000 OA
ATOM     80   O  IDS B   4      44.763  -0.361  14.8360  0.00  0.00     0.000 OA
ENDBRANCH 69 78
BRANCH 65 81
ATOM     81  O4  SGN B   5      47.280  -0.287  18.7350  0.00  0.00     0.000 O
BRANCH 81 85
ATOM     82  C1  SGN B   5      51.120  -0.244  17.0330  0.00  0.00     0.000 C
ATOM     83  C2  SGN B   5      50.241   0.995  16.8050  0.00  0.00     0.000 C
ATOM     84  C3  SGN B   5      49.110   1.021  17.8420  0.00  0.00     0.000 C
ATOM     85  C4  SGN B   5      48.334  -0.283  17.7700  0.00  0.00     0.000 C
ATOM     86  C5  SGN B   5      49.303  -1.433  18.0340  0.00  0.00     0.000 C
ATOM     87  O5  SGN B   5      50.327  -1.416  17.0220  0.00  0.00     0.000 O
ATOM     88   O  SGN B   5      48.266   2.126  17.6040  0.00  0.00     0.000 O
ATOM     90  HD  SGN B   5      48.875   2.082  18.2180  0.00  0.00     0.000 HD
BRANCH 83 92
ATOM     90   N  SGN B   5      51.487   1.362  16.1040  0.00  0.00     0.000 N
ATOM     92  HD  SGN B   5      51.775   0.706  15.6180  0.00  0.00     0.000 HD
ATOM     92   S  SGN B   5      51.564   2.801  15.4120  0.00  0.00     0.000 S
ATOM     93   O  SGN B   5      52.870   2.843  14.8260  0.00  0.00     0.000 OA
ATOM     94   O  SGN B   5      50.409   2.894  14.5870  0.00  0.00     0.000 OA
ATOM     95   O  SGN B   5      51.387   3.784  16.5490  0.00  0.00     0.000 OA
ENDBRANCH 83 92
BRANCH 86 96
ATOM     96   C  SGN B   5      48.661  -2.804  18.0050  0.00  0.00     0.000 C
ATOM     97   O  SGN B   5      49.410  -3.726  18.8000  0.00  0.00     0.000 O
ATOM     98   S  SGN B   5      48.575  -4.573  19.8760  0.00  0.00     0.000 S
ATOM     99   O  SGN B   5      49.546  -5.527  20.3540  0.00  0.00     0.000 OA
ATOM    100   O  SGN B   5      48.103  -3.665  20.8590  0.00  0.00     0.000 OA
ATOM    101   O  SGN B   5      47.522  -5.168  19.1190  0.00  0.00     0.000 OA
ENDBRANCH 86 96
BRANCH 82 102
ATOM    102  O4  IDS B   6      51.841  -0.170  18.1870  0.00  0.00     0.000 O
BRANCH 102 106
ATOM    103  C1  IDS B   6      54.955   0.133  20.0500  0.00  0.00     0.000 C
ATOM    104  C2  IDS B   6      54.738   0.921  18.7480  0.00  0.00     0.000 C
ATOM    105  C3  IDS B   6      54.185   0.111  17.5910  0.00  0.00     0.000 C
ATOM    106  C4  IDS B   6      53.104  -0.864  18.0220  0.00  0.00     0.000 C
ATOM    107  C5  IDS B   6      53.520  -1.557  19.3230  0.00  0.00     0.000 C
ATOM    108  O5  IDS B   6      53.796  -0.616  20.3620  0.00  0.00     0.000 O
ATOM    109   O  IDS B   6      55.265  -0.573  16.9770  0.00  0.00     0.000 O
ATOM    111  HD  IDS B   6      55.866  -0.616  17.5990  0.00  0.00     0.000 HD
BRANCH 104 111
ATOM    111   O  IDS B   6      53.746   1.980  18.9890  0.00  0.00     0.000 O
ATOM    112   S  IDS B   6      54.230   3.503  18.8860  0.00  0.00     0.000 S
ATOM    113   O  IDS B   6      55.297   3.615  19.8690  0.00  0.00     0.000 OA
ATOM    114   O  IDS B   6      54.642   3.766  17.5020  0.00  0.00     0.000 OA
ATOM    115   O  IDS B   6      53.003   4.165  19.2720  0.00  0.00     0.000 OA
ENDBRANCH 104 111
BRANCH 107 116
ATOM    116   C  IDS B   6      52.413  -2.505  19.7650  0.00  0.00     0.000 C
ATOM    117   O  IDS B   6      51.675  -2.111  20.6320  0.00  0.00     0.000 OA
ATOM    118   O  IDS B   6      52.290  -3.614  19.2680  0.00  0.00     0.000 OA
ENDBRANCH 107 116
BRANCH 103 119
ATOM    119  O4  SGN B   7      56.157  -0.469  19.8640  0.00  0.00     0.000 O
BRANCH 119 123
ATOM    120  C1  SGN B   7      58.998  -2.329  22.3050  0.00  0.00     0.000 C
ATOM    121  C2  SGN B   7      57.858  -3.201  21.7460  0.00  0.00     0.000 C
ATOM    122  C3  SGN B   7      57.160  -2.490  20.5790  0.00  0.00     0.000 C
ATOM    123  C4  SGN B   7      56.717  -1.103  21.0150  0.00  0.00     0.000 C
ATOM    124  C5  SGN B   7      57.921  -0.318  21.5610  0.00  0.00     0.000 C
ATOM    125  O5  SGN B   7      58.546  -1.023  22.6570  0.00  0.00     0.000 O
ATOM    126   O  SGN B   7      56.047  -3.282  20.1500  0.00  0.00     0.000 O
ATOM    128  HD  SGN B   7      56.763  -3.220  20.6330  0.00  0.00     0.000 HD
BRANCH 121 130
ATOM    128   N  SGN B   7      58.770  -4.309  22.0390  0.00  0.00     0.000 N
ATOM    130  HD  SGN B   7      58.492  -4.331  22.8590  0.00  0.00     0.000 HD
ATOM    130   S  SGN B   7      58.248  -5.818  22.2520  0.00  0.00     0.000 S
ATOM    131   O  SGN B   7      57.413  -6.085  21.1310  0.00  0.00     0.000 OA
ATOM    132   O  SGN B   7      59.369  -6.643  22.5250  0.00  0.00     0.000 OA
ATOM    133   O  SGN B   7      57.521  -5.671  23.6320  0.00  0.00     0.000 OA
ENDBRANCH 121 130
BRANCH 124 134
ATOM    134   C  SGN B   7      57.564   1.026  22.1240  0.00  0.00     0.000 C
ATOM    135   O  SGN B   7      58.613   1.443  23.0140  0.00  0.00     0.000 O
ATOM    136   S  SGN B   7      58.503   2.900  23.5930  0.00  0.00     0.000 S
ATOM    137   O  SGN B   7      59.594   3.049  24.5260  0.00  0.00     0.000 OA
ATOM    138   O  SGN B   7      57.206   2.958  24.2260  0.00  0.00     0.000 OA
ATOM    139   O  SGN B   7      58.629   3.721  22.3990  0.00  0.00     0.000 OA
ENDBRANCH 124 134
BRANCH 120 140
ATOM    140  O4  IDS B   8      60.149  -1.998  21.7090  0.00  0.00     0.000 O
BRANCH 140 144
ATOM    141  C1  IDS B   8      63.526  -2.413  20.5310  0.00  0.00     0.000 C
ATOM    142  C2  IDS B   8      63.070  -3.029  21.8850  0.00  0.00     0.000 C
ATOM    143  C3  IDS B   8      62.318  -2.028  22.7810  0.00  0.00     0.000 C
ATOM    144  C4  IDS B   8      61.306  -1.200  21.9900  0.00  0.00     0.000 C
ATOM    145  C5  IDS B   8      61.935  -0.704  20.6800  0.00  0.00     0.000 C
ATOM    146  O5  IDS B   8      62.425  -1.783  19.8880  0.00  0.00     0.000 O
BRANCH 142 147
ATOM    147   O  IDS B   8      62.148  -4.167  21.6260  0.00  0.00     0.000 O
ATOM    148   S  IDS B   8      62.714  -5.674  21.4310  0.00  0.00     0.000 S
ATOM    149   O  IDS B   8      64.133  -5.579  21.1720  0.00  0.00     0.000 OA
ATOM    150   O  IDS B   8      62.415  -6.363  22.6730  0.00  0.00     0.000 OA
ATOM    151   O  IDS B   8      61.990  -6.210  20.2950  0.00  0.00     0.000 OA
ENDBRANCH 142 147
BRANCH 145 152
ATOM    152   C  IDS B   8      60.949   0.042  19.8050  0.00  0.00     0.000 C
ATOM    153   O  IDS B   8      60.478  -0.512  18.8170  0.00  0.00     0.000 OA
ATOM    154   O  IDS B   8      60.617   1.176  20.1020  0.00  0.00     0.000 OA
ENDBRANCH 145 152
ENDBRANCH 140 144
ENDBRANCH 120 140
ENDBRANCH 119 123
ENDBRANCH 103 119
ENDBRANCH 102 106
ENDBRANCH 82 102
ENDBRANCH 81 85
ENDBRANCH 65 81
ENDBRANCH 64 68
ENDBRANCH 41 64
ENDBRANCH 40 44
ENDBRANCH 24 40
ENDBRANCH 23 27
ENDBRANCH 1 23
TORSDOF 31
ENDMDL
MODEL 11
REMARK VINA RESULT:      -8.8      8.634     12.793
ROOT
ATOM      1  C1  SGN B   1      35.499   0.753  13.7280  0.00  0.00     0.000 C
ATOM      2  C2  SGN B   1      34.514  -0.391  13.4320  0.00  0.00     0.000 C
ATOM      3  C3  SGN B   1      34.084  -0.369  11.9610  0.00  0.00     0.000 C
ATOM      4  C4  SGN B   1      33.499   0.994  11.6040  0.00  0.00     0.000 C
ATOM      5  C5  SGN B   1      34.467   2.086  12.0550  0.00  0.00     0.000 C
ATOM      6  O5  SGN B   1      34.749   1.930  13.4590  0.00  0.00     0.000 O
ATOM      7   O  SGN B   1      33.139  -1.401  11.7010  0.00  0.00     0.000 O
ATOM      9  HD  SGN B   1      32.723  -0.926  12.2950  0.00  0.00     0.000 HD
ATOM      9   O  SGN B   1      33.297   1.067  10.2050  0.00  0.00     0.000 O
ATOM     11  HD  SGN B   1      32.881   1.542  10.7990  0.00  0.00     0.000 HD
ENDROOT
BRANCH 2 13
ATOM     11   N  SGN B   1      34.368  -1.111  14.7110  0.00  0.00     0.000 N
ATOM     13  HD  SGN B   1      35.153  -0.906  14.4090  0.00  0.00     0.000 HD
ATOM     13   S  SGN B   1      35.499  -2.110  15.2690  0.00  0.00     0.000 S
ATOM     14   O  SGN B   1      36.607  -2.126  14.3960  0.00  0.00     0.000 OA
ATOM     15   O  SGN B   1      35.702  -1.832  16.6520  0.00  0.00     0.000 OA
ATOM     16   O  SGN B   1      34.687  -3.439  15.1810  0.00  0.00     0.000 OA
ENDBRANCH 2 13
BRANCH 5 17
ATOM     17   C  SGN B   1      33.948   3.488  11.8540  0.00  0.00     0.000 C
ATOM     18   O  SGN B   1      34.897   4.288  11.1210  0.00  0.00     0.000 O
ATOM     19   S  SGN B   1      35.165   5.757  11.6940  0.00  0.00     0.000 S
ATOM     20   O  SGN B   1      35.950   6.420  10.6730  0.00  0.00     0.000 OA
ATOM     21   O  SGN B   1      33.844   6.317  11.8620  0.00  0.00     0.000 OA
ATOM     22   O  SGN B   1      35.881   5.554  12.9340  0.00  0.00     0.000 OA
ENDBRANCH 5 17
BRANCH 1 23
ATOM     23  O4  IDS B   2      36.836   1.019  13.7250  0.00  0.00     0.000 O
BRANCH 23 27
ATOM     24  C1  IDS B   2      40.657   1.301  15.3210  0.00  0.00     0.000 C
ATOM     25  C2  IDS B   2      39.513   1.169  16.3500  0.00  0.00     0.000 C
ATOM     26  C3  IDS B   2      38.206   0.777  15.6650  0.00  0.00     0.000 C
ATOM     27  C4  IDS B   2      37.808   1.714  14.5340  0.00  0.00     0.000 C
ATOM     28  C5  IDS B   2      39.062   2.177  13.7670  0.00  0.00     0.000 C
ATOM     29  O5  IDS B   2      40.146   1.286  13.9820  0.00  0.00     0.000 O
ATOM     30   O  IDS B   2      37.154   0.787  16.6230  0.00  0.00     0.000 O
ATOM     32  HD  IDS B   2      36.859   1.583  16.7970  0.00  0.00     0.000 HD
BRANCH 25 32
ATOM     32   O  IDS B   2      39.802   0.145  17.3840  0.00  0.00     0.000 O
ATOM     33   S  IDS B   2      39.808   0.509  18.9930  0.00  0.00     0.000 S
ATOM     34   O  IDS B   2      40.345  -0.661  19.6710  0.00  0.00     0.000 OA
ATOM     35   O  IDS B   2      40.639   1.683  19.2210  0.00  0.00     0.000 OA
ATOM     36   O  IDS B   2      38.426   0.734  19.3470  0.00  0.00     0.000 OA
ENDBRANCH 25 32
BRANCH 28 37
ATOM     37   C  IDS B   2      38.930   2.422  12.2490  0.00  0.00     0.000 C
ATOM     38   O  IDS B   2      38.257   3.392  11.9900  0.00  0.00     0.000 OA
ATOM     39   O  IDS B   2      39.484   1.774  11.3280  0.00  0.00     0.000 OA
ENDBRANCH 28 37
BRANCH 24 40
ATOM     40  O4  SUS B   3      41.879   1.708  15.7230  0.00  0.00     0.000 O
BRANCH 40 44
ATOM     41  C1  SUS B   3      45.690   0.501  14.4700  0.00  0.00     0.000 C
ATOM     42  C2  SUS B   3      44.815   1.250  13.4450  0.00  0.00     0.000 C
ATOM     43  C3  SUS B   3      43.717   2.012  14.1830  0.00  0.00     0.000 C
ATOM     44  C4  SUS B   3      42.945   1.038  15.0590  0.00  0.00     0.000 C
ATOM     45  C5  SUS B   3      43.892   0.439  16.0790  0.00  0.00     0.000 C
ATOM     46  O5  SUS B   3      44.911  -0.295  15.3700  0.00  0.00     0.000 O
BRANCH 42 49
ATOM     47   N  SUS B   3      45.375   0.527  12.2900  0.00  0.00     0.000 N
ATOM     49  HD  SUS B   3      46.039  -0.004  12.4520  0.00  0.00     0.000 HD
ATOM     49   S  SUS B   3      45.800   1.506  11.0960  0.00  0.00     0.000 S
ATOM     50   O  SUS B   3      46.736   2.453  11.5610  0.00  0.00     0.000 OA
ATOM     51   O  SUS B   3      46.498   0.432  10.2230  0.00  0.00     0.000 OA
ATOM     52   O  SUS B   3      44.643   1.993  10.4560  0.00  0.00     0.000 OA
ENDBRANCH 42 49
BRANCH 43 53
ATOM     53   O  SUS B   3      42.816   2.602  13.1740  0.00  0.00     0.000 O
ATOM     54   S  SUS B   3      42.803   4.241  13.0470  0.00  0.00     0.000 S
ATOM     55   O  SUS B   3      44.067   4.642  12.4460  0.00  0.00     0.000 OA
ATOM     56   O  SUS B   3      41.645   4.520  12.2150  0.00  0.00     0.000 OA
ATOM     57   O  SUS B   3      42.674   4.762  14.4110  0.00  0.00     0.000 OA
ENDBRANCH 43 53
BRANCH 45 58
ATOM     58   C  SUS B   3      43.175  -0.468  17.0540  0.00  0.00     0.000 C
ATOM     59   S  SUS B   3      42.564  -2.926  17.4710  0.00  0.00     0.000 S
ATOM     60   O  SUS B   3      43.412  -1.839  16.6910  0.00  0.00     0.000 O
ATOM     61   O  SUS B   3      41.248  -2.889  16.8620  0.00  0.00     0.000 OA
ATOM     62   O  SUS B   3      43.294  -4.121  17.1440  0.00  0.00     0.000 OA
ATOM     63   O  SUS B   3      42.613  -2.538  18.8360  0.00  0.00     0.000 OA
ENDBRANCH 45 58
BRANCH 41 64
ATOM     64  O4  IDS B   4      46.623   1.297  15.0880  0.00  0.00     0.000 O
BRANCH 64 68
ATOM     65  C1  IDS B   4      49.622   2.275  16.9110  0.00  0.00     0.000 C
ATOM     66  C2  IDS B   4      49.466   2.638  15.4290  0.00  0.00     0.000 C
ATOM     67  C3  IDS B   4      48.989   1.495  14.5490  0.00  0.00     0.000 C
ATOM     68  C4  IDS B   4      47.912   0.654  15.2070  0.00  0.00     0.000 C
ATOM     69  C5  IDS B   4      48.331   0.392  16.6600  0.00  0.00     0.000 C
ATOM     70  O5  IDS B   4      48.436   1.639  17.3520  0.00  0.00     0.000 O
ATOM     71   O  IDS B   4      50.114   0.690  14.2610  0.00  0.00     0.000 O
ATOM     73  HD  IDS B   4      49.705   1.409  14.5190  0.00  0.00     0.000 HD
BRANCH 66 73
ATOM     73   O  IDS B   4      48.440   3.683  15.3040  0.00  0.00     0.000 O
ATOM     74   S  IDS B   4      48.932   5.197  15.0170  0.00  0.00     0.000 S
ATOM     75   O  IDS B   4      49.847   5.541  16.0850  0.00  0.00     0.000 OA
ATOM     76   O  IDS B   4      47.688   5.924  15.0540  0.00  0.00     0.000 OA
ATOM     77   O  IDS B   4      49.559   5.160  13.7170  0.00  0.00     0.000 OA
ENDBRANCH 66 73
BRANCH 69 78
ATOM     78   C  IDS B   4      47.463  -0.621  17.3930  0.00  0.00     0.000 C
ATOM     79   O  IDS B   4      47.599  -1.815  17.1310  0.00  0.00     0.000 OA
ATOM     80   O  IDS B   4      46.720  -0.219  18.3080  0.00  0.00     0.000 OA
ENDBRANCH 69 78
BRANCH 65 81
ATOM     81  O4  SGN B   5      50.787   1.592  17.0900  0.00  0.00     0.000 O
BRANCH 81 85
ATOM     82  C1  SGN B   5      53.296   0.261  20.1840  0.00  0.00     0.000 C
ATOM     83  C2  SGN B   5      52.504  -0.809  19.4180  0.00  0.00     0.000 C
ATOM     84  C3  SGN B   5      52.030  -0.235  18.0760  0.00  0.00     0.000 C
ATOM     85  C4  SGN B   5      51.232   1.032  18.3280  0.00  0.00     0.000 C
ATOM     86  C5  SGN B   5      52.126   2.023  19.0690  0.00  0.00     0.000 C
ATOM     87  O5  SGN B   5      52.523   1.438  20.3240  0.00  0.00     0.000 O
ATOM     88   O  SGN B   5      51.253  -1.194  17.3920  0.00  0.00     0.000 O
ATOM     90  HD  SGN B   5      52.080  -1.003  17.2210  0.00  0.00     0.000 HD
BRANCH 83 92
ATOM     90   N  SGN B   5      52.956  -1.630  20.5580  0.00  0.00     0.000 N
ATOM     92  HD  SGN B   5      52.555  -1.395  21.2890  0.00  0.00     0.000 HD
ATOM     92   S  SGN B   5      53.095  -3.207  20.3400  0.00  0.00     0.000 S
ATOM     93   O  SGN B   5      53.537  -3.703  21.6090  0.00  0.00     0.000 OA
ATOM     94   O  SGN B   5      51.849  -3.634  19.8030  0.00  0.00     0.000 OA
ATOM     95   O  SGN B   5      54.132  -3.355  19.2480  0.00  0.00     0.000 OA
ENDBRANCH 83 92
BRANCH 86 96
ATOM     96   C  SGN B   5      51.461   3.348  19.3790  0.00  0.00     0.000 C
ATOM     97   O  SGN B   5      52.435   4.318  19.7720  0.00  0.00     0.000 O
ATOM     98   S  SGN B   5      52.378   5.726  19.0050  0.00  0.00     0.000 S
ATOM     99   O  SGN B   5      53.318   6.531  19.7480  0.00  0.00     0.000 OA
ATOM    100   O  SGN B   5      52.738   5.490  17.6540  0.00  0.00     0.000 OA
ATOM    101   O  SGN B   5      51.025   6.156  19.1530  0.00  0.00     0.000 OA
ENDBRANCH 86 96
BRANCH 82 102
ATOM    102  O4  IDS B   6      54.493   0.548  19.5970  0.00  0.00     0.000 O
BRANCH 102 106
ATOM    103  C1  IDS B   6      58.008   0.969  20.4490  0.00  0.00     0.000 C
ATOM    104  C2  IDS B   6      57.031   0.321  21.4420  0.00  0.00     0.000 C
ATOM    105  C3  IDS B   6      55.723   1.064  21.6350  0.00  0.00     0.000 C
ATOM    106  C4  IDS B   6      55.159   1.605  20.3330  0.00  0.00     0.000 C
ATOM    107  C5  IDS B   6      56.285   2.223  19.4990  0.00  0.00     0.000 C
ATOM    108  O5  IDS B   6      57.336   1.288  19.2460  0.00  0.00     0.000 O
ATOM    109   O  IDS B   6      55.944   2.113  22.5630  0.00  0.00     0.000 O
ATOM    111  HD  IDS B   6      56.797   2.257  22.5150  0.00  0.00     0.000 HD
BRANCH 104 111
ATOM    111   O  IDS B   6      56.652  -1.010  20.9430  0.00  0.00     0.000 O
ATOM    112   S  IDS B   6      57.205  -2.293  21.7240  0.00  0.00     0.000 S
ATOM    113   O  IDS B   6      58.653  -2.158  21.6710  0.00  0.00     0.000 OA
ATOM    114   O  IDS B   6      56.639  -2.292  23.0780  0.00  0.00     0.000 OA
ATOM    115   O  IDS B   6      56.680  -3.333  20.8660  0.00  0.00     0.000 OA
ENDBRANCH 104 111
BRANCH 107 116
ATOM    116   C  IDS B   6      55.716   2.730  18.1800  0.00  0.00     0.000 C
ATOM    117   O  IDS B   6      55.540   1.911  17.3150  0.00  0.00     0.000 OA
ATOM    118   O  IDS B   6      55.461   3.912  18.0110  0.00  0.00     0.000 OA
ENDBRANCH 107 116
BRANCH 103 119
ATOM    119  O4  SGN B   7      58.630   1.924  21.1860  0.00  0.00     0.000 O
BRANCH 119 123
ATOM    120  C1  SGN B   7      62.337   3.827  20.8340  0.00  0.00     0.000 C
ATOM    121  C2  SGN B   7      61.075   4.670  20.5720  0.00  0.00     0.000 C
ATOM    122  C3  SGN B   7      59.831   3.962  21.1240  0.00  0.00     0.000 C
ATOM    123  C4  SGN B   7      59.754   2.550  20.5680  0.00  0.00     0.000 C
ATOM    124  C5  SGN B   7      61.059   1.797  20.8750  0.00  0.00     0.000 C
ATOM    125  O5  SGN B   7      62.202   2.497  20.3360  0.00  0.00     0.000 O
ATOM    126   O  SGN B   7      58.669   4.724  20.7760  0.00  0.00     0.000 O
ATOM    128  HD  SGN B   7      59.532   4.676  20.8150  0.00  0.00     0.000 HD
BRANCH 121 130
ATOM    128   N  SGN B   7      61.968   5.722  20.0790  0.00  0.00     0.000 N
ATOM    130  HD  SGN B   7      61.404   5.917  19.4520  0.00  0.00     0.000 HD
ATOM    130   S  SGN B   7      61.650   7.287  20.2900  0.00  0.00     0.000 S
ATOM    131   O  SGN B   7      61.363   7.425  21.6770  0.00  0.00     0.000 OA
ATOM    132   O  SGN B   7      62.696   8.038  19.6960  0.00  0.00     0.000 OA
ATOM    133   O  SGN B   7      60.436   7.461  19.3160  0.00  0.00     0.000 OA
ENDBRANCH 121 130
BRANCH 124 134
ATOM    134   C  SGN B   7      61.127   0.427  20.2650  0.00  0.00     0.000 C
ATOM    135   O  SGN B   7      62.099   0.445  19.2060  0.00  0.00     0.000 O
ATOM    136   S  SGN B   7      62.432  -0.937  18.5380  0.00  0.00     0.000 S
ATOM    137   O  SGN B   7      63.339  -0.654  17.4510  0.00  0.00     0.000 OA
ATOM    138   O  SGN B   7      61.160  -1.457  18.0910  0.00  0.00     0.000 OA
ATOM    139   O  SGN B   7      63.035  -1.678  19.6350  0.00  0.00     0.000 OA
ENDBRANCH 124 134
BRANCH 120 140
ATOM    140  O4  IDS B   8      62.913   3.553  22.0100  0.00  0.00     0.000 O
BRANCH 140 144
ATOM    141  C1  IDS B   8      63.154   2.568  25.4640  0.00  0.00     0.000 C
ATOM    142  C2  IDS B   8      61.952   3.413  24.9560  0.00  0.00     0.000 C
ATOM    143  C3  IDS B   8      62.381   4.626  24.1110  0.00  0.00     0.000 C
ATOM    144  C4  IDS B   8      63.482   4.269  23.1130  0.00  0.00     0.000 C
ATOM    145  C5  IDS B   8      64.560   3.416  23.7970  0.00  0.00     0.000 C
ATOM    146  O5  IDS B   8      64.009   2.236  24.3770  0.00  0.00     0.000 O
BRANCH 142 147
ATOM    147   O  IDS B   8      61.079   2.568  24.0990  0.00  0.00     0.000 O
ATOM    148   S  IDS B   8      59.737   1.878  24.6960  0.00  0.00     0.000 S
ATOM    149   O  IDS B   8      59.828   1.919  26.1380  0.00  0.00     0.000 OA
ATOM    150   O  IDS B   8      58.634   2.668  24.1810  0.00  0.00     0.000 OA
ATOM    151   O  IDS B   8      59.749   0.519  24.1900  0.00  0.00     0.000 OA
ENDBRANCH 142 147
BRANCH 145 152
ATOM    152   C  IDS B   8      65.631   2.946  22.8330  0.00  0.00     0.000 C
ATOM    153   O  IDS B   8      65.856   1.746  22.7180  0.00  0.00     0.000 OA
ATOM    154   O  IDS B   8      66.242   3.763  22.1680  0.00  0.00     0.000 OA
ENDBRANCH 145 152
ENDBRANCH 140 144
ENDBRANCH 120 140
ENDBRANCH 119 123
ENDBRANCH 103 119
ENDBRANCH 102 106
ENDBRANCH 82 102
ENDBRANCH 81 85
ENDBRANCH 65 81
ENDBRANCH 64 68
ENDBRANCH 41 64
ENDBRANCH 40 44
ENDBRANCH 24 40
ENDBRANCH 23 27
ENDBRANCH 1 23
TORSDOF 31
ENDMDL
MODEL 12
REMARK VINA RESULT:      -8.7      8.247     12.387
ROOT
ATOM      1  C1  SGN B   1      34.838   3.002  12.1140  0.00  0.00     0.000 C
ATOM      2  C2  SGN B   1      33.672   4.003  12.1260  0.00  0.00     0.000 C
ATOM      3  C3  SGN B   1      32.506   3.469  12.9650  0.00  0.00     0.000 C
ATOM      4  C4  SGN B   1      32.075   2.098  12.4550  0.00  0.00     0.000 C
ATOM      5  C5  SGN B   1      33.306   1.201  12.3350  0.00  0.00     0.000 C
ATOM      6  O5  SGN B   1      34.290   1.843  11.5010  0.00  0.00     0.000 O
ATOM      7   O  SGN B   1      31.412   4.378  12.9370  0.00  0.00     0.000 O
ATOM      9  HD  SGN B   1      31.490   4.171  12.0990  0.00  0.00     0.000 HD
ATOM      9   O  SGN B   1      31.144   1.531  13.3580  0.00  0.00     0.000 O
ATOM     11  HD  SGN B   1      31.222   1.324  12.5210  0.00  0.00     0.000 HD
ENDROOT
BRANCH 2 13
ATOM     11   N  SGN B   1      34.027   5.228  11.3840  0.00  0.00     0.000 N
ATOM     13  HD  SGN B   1      34.619   4.817  11.8630  0.00  0.00     0.000 HD
ATOM     13   S  SGN B   1      35.189   6.225  11.8780  0.00  0.00     0.000 S
ATOM     14   O  SGN B   1      35.802   5.718  13.0430  0.00  0.00     0.000 OA
ATOM     15   O  SGN B   1      35.996   6.567  10.7550  0.00  0.00     0.000 OA
ATOM     16   O  SGN B   1      34.298   7.464  12.1990  0.00  0.00     0.000 OA
ENDBRANCH 2 13
BRANCH 5 17
ATOM     17   C  SGN B   1      33.022  -0.154  11.7340  0.00  0.00     0.000 C
ATOM     18   O  SGN B   1      34.025  -0.505  10.7600  0.00  0.00     0.000 O
ATOM     19   S  SGN B   1      33.483  -1.114   9.3840  0.00  0.00     0.000 S
ATOM     20   O  SGN B   1      34.663  -1.592   8.6950  0.00  0.00     0.000 OA
ATOM     21   O  SGN B   1      32.586  -2.168   9.7950  0.00  0.00     0.000 OA
ATOM     22   O  SGN B   1      32.828  -0.011   8.7150  0.00  0.00     0.000 OA
ENDBRANCH 5 17
BRANCH 1 23
ATOM     23  O4  IDS B   2      35.968   2.692  12.8130  0.00  0.00     0.000 O
BRANCH 23 27
ATOM     24  C1  IDS B   2      39.748   1.547  14.0890  0.00  0.00     0.000 C
ATOM     25  C2  IDS B   2      39.676   2.139  12.6630  0.00  0.00     0.000 C
ATOM     26  C3  IDS B   2      38.320   2.792  12.4120  0.00  0.00     0.000 C
ATOM     27  C4  IDS B   2      37.141   1.864  12.6700  0.00  0.00     0.000 C
ATOM     28  C5  IDS B   2      37.436   0.962  13.8860  0.00  0.00     0.000 C
ATOM     29  O5  IDS B   2      38.452   1.527  14.7010  0.00  0.00     0.000 O
ATOM     30   O  IDS B   2      38.247   3.212  11.0540  0.00  0.00     0.000 O
ATOM     32  HD  IDS B   2      38.071   2.565  10.5060  0.00  0.00     0.000 HD
BRANCH 25 32
ATOM     32   O  IDS B   2      40.720   3.167  12.4290  0.00  0.00     0.000 O
ATOM     33   S  IDS B   2      41.882   2.981  11.2720  0.00  0.00     0.000 S
ATOM     34   O  IDS B   2      42.840   4.054  11.4850  0.00  0.00     0.000 OA
ATOM     35   O  IDS B   2      42.507   1.674  11.4200  0.00  0.00     0.000 OA
ATOM     36   O  IDS B   2      41.200   3.126  10.0070  0.00  0.00     0.000 OA
ENDBRANCH 25 32
BRANCH 28 37
ATOM     37   C  IDS B   2      36.253   0.563  14.7910  0.00  0.00     0.000 C
ATOM     38   O  IDS B   2      35.569  -0.309  14.3100  0.00  0.00     0.000 OA
ATOM     39   O  IDS B   2      36.001   0.999  15.9410  0.00  0.00     0.000 OA
ENDBRANCH 28 37
BRANCH 24 40
ATOM     40  O4  SUS B   3      40.845   0.866  14.4790  0.00  0.00     0.000 O
BRANCH 40 44
ATOM     41  C1  SUS B   3      42.750   0.695  18.2060  0.00  0.00     0.000 C
ATOM     42  C2  SUS B   3      41.349   0.059  18.1010  0.00  0.00     0.000 C
ATOM     43  C3  SUS B   3      41.032  -0.216  16.6320  0.00  0.00     0.000 C
ATOM     44  C4  SUS B   3      41.184   1.077  15.8460  0.00  0.00     0.000 C
ATOM     45  C5  SUS B   3      42.620   1.549  15.9530  0.00  0.00     0.000 C
ATOM     46  O5  SUS B   3      42.900   1.826  17.3410  0.00  0.00     0.000 O
BRANCH 42 49
ATOM     47   N  SUS B   3      40.642  -1.081  18.7080  0.00  0.00     0.000 N
ATOM     49  HD  SUS B   3      39.897  -1.318  18.3340  0.00  0.00     0.000 HD
ATOM     49   S  SUS B   3      40.369  -0.877  20.2730  0.00  0.00     0.000 S
ATOM     50   O  SUS B   3      39.629   0.305  20.4810  0.00  0.00     0.000 OA
ATOM     51   O  SUS B   3      39.470  -2.125  20.4630  0.00  0.00     0.000 OA
ATOM     52   O  SUS B   3      41.579  -1.022  20.9810  0.00  0.00     0.000 OA
ENDBRANCH 42 49
BRANCH 43 53
ATOM     53   O  SUS B   3      39.637  -0.691  16.5500  0.00  0.00     0.000 O
ATOM     54   S  SUS B   3      39.382  -2.148  15.8320  0.00  0.00     0.000 S
ATOM     55   O  SUS B   3      39.893  -3.173  16.7320  0.00  0.00     0.000 OA
ATOM     56   O  SUS B   3      37.944  -2.199  15.6410  0.00  0.00     0.000 OA
ATOM     57   O  SUS B   3      40.132  -2.126  14.5730  0.00  0.00     0.000 OA
ENDBRANCH 43 53
BRANCH 45 58
ATOM     58   C  SUS B   3      42.875   2.780  15.1120  0.00  0.00     0.000 C
ATOM     59   S  SUS B   3      42.699   5.340  15.1490  0.00  0.00     0.000 S
ATOM     60   O  SUS B   3      42.685   3.956  15.9180  0.00  0.00     0.000 O
ATOM     61   O  SUS B   3      41.395   5.439  14.5220  0.00  0.00     0.000 OA
ATOM     62   O  SUS B   3      42.857   6.255  16.2480  0.00  0.00     0.000 OA
ATOM     63   O  SUS B   3      43.800   5.268  14.2550  0.00  0.00     0.000 OA
ENDBRANCH 45 58
BRANCH 41 64
ATOM     64  O4  IDS B   4      43.777  -0.212  18.1280  0.00  0.00     0.000 O
BRANCH 64 68
ATOM     65  C1  IDS B   4      47.020  -1.678  18.9090  0.00  0.00     0.000 C
ATOM     66  C2  IDS B   4      46.132  -1.126  20.0310  0.00  0.00     0.000 C
ATOM     67  C3  IDS B   4      45.539   0.244  19.7460  0.00  0.00     0.000 C
ATOM     68  C4  IDS B   4      45.075   0.398  18.3100  0.00  0.00     0.000 C
ATOM     69  C5  IDS B   4      46.158  -0.186  17.3920  0.00  0.00     0.000 C
ATOM     70  O5  IDS B   4      46.321  -1.576  17.6820  0.00  0.00     0.000 O
ATOM     71   O  IDS B   4      46.539   1.201  20.0290  0.00  0.00     0.000 O
ATOM     73  HD  IDS B   4      46.163   0.422  20.0630  0.00  0.00     0.000 HD
BRANCH 66 73
ATOM     73   O  IDS B   4      44.981  -2.021  20.2080  0.00  0.00     0.000 O
ATOM     74   S  IDS B   4      44.815  -2.771  21.6310  0.00  0.00     0.000 S
ATOM     75   O  IDS B   4      46.041  -3.507  21.8530  0.00  0.00     0.000 OA
ATOM     76   O  IDS B   4      43.664  -3.606  21.3940  0.00  0.00     0.000 OA
ATOM     77   O  IDS B   4      44.597  -1.721  22.5970  0.00  0.00     0.000 OA
ENDBRANCH 66 73
BRANCH 69 78
ATOM     78   C  IDS B   4      45.942   0.090  15.9100  0.00  0.00     0.000 C
ATOM     79   O  IDS B   4      45.531  -0.822  15.1940  0.00  0.00     0.000 OA
ATOM     80   O  IDS B   4      46.087   1.253  15.4930  0.00  0.00     0.000 OA
ENDBRANCH 69 78
BRANCH 65 81
ATOM     81  O4  SGN B   5      48.246  -1.086  18.9680  0.00  0.00     0.000 O
BRANCH 81 85
ATOM     82  C1  SGN B   5      52.046  -1.241  17.1880  0.00  0.00     0.000 C
ATOM     83  C2  SGN B   5      51.114  -0.103  16.7450  0.00  0.00     0.000 C
ATOM     84  C3  SGN B   5      50.003   0.086  17.7880  0.00  0.00     0.000 C
ATOM     85  C4  SGN B   5      49.280  -1.234  17.9930  0.00  0.00     0.000 C
ATOM     86  C5  SGN B   5      50.299  -2.273  18.4510  0.00  0.00     0.000 C
ATOM     87  O5  SGN B   5      51.302  -2.420  17.4270  0.00  0.00     0.000 O
ATOM     88   O  SGN B   5      49.110   1.091  17.3600  0.00  0.00     0.000 O
ATOM     90  HD  SGN B   5      49.732   1.191  17.9540  0.00  0.00     0.000 HD
BRANCH 83 92
ATOM     90   N  SGN B   5      52.061   1.003  16.5030  0.00  0.00     0.000 N
ATOM     92  HD  SGN B   5      52.769   0.920  16.9950  0.00  0.00     0.000 HD
ATOM     92   S  SGN B   5      52.335   1.440  14.9910  0.00  0.00     0.000 S
ATOM     93   O  SGN B   5      53.282   2.509  15.0970  0.00  0.00     0.000 OA
ATOM     94   O  SGN B   5      52.683   0.245  14.3010  0.00  0.00     0.000 OA
ATOM     95   O  SGN B   5      50.987   1.887  14.4690  0.00  0.00     0.000 OA
ENDBRANCH 83 92
BRANCH 86 96
ATOM     96   C  SGN B   5      49.713  -3.646  18.7080  0.00  0.00     0.000 C
ATOM     97   O  SGN B   5      49.482  -4.332  17.4750  0.00  0.00     0.000 O
ATOM     98   S  SGN B   5      50.075  -5.819  17.3720  0.00  0.00     0.000 S
ATOM     99   O  SGN B   5      49.514  -6.300  16.1330  0.00  0.00     0.000 OA
ATOM    100   O  SGN B   5      51.490  -5.714  17.3800  0.00  0.00     0.000 OA
ATOM    101   O  SGN B   5      49.561  -6.487  18.5230  0.00  0.00     0.000 OA
ENDBRANCH 86 96
BRANCH 82 102
ATOM    102  O4  IDS B   6      52.786  -0.915  18.2860  0.00  0.00     0.000 O
BRANCH 102 106
ATOM    103  C1  IDS B   6      55.890  -0.200  20.0500  0.00  0.00     0.000 C
ATOM    104  C2  IDS B   6      55.639   0.362  18.6420  0.00  0.00     0.000 C
ATOM    105  C3  IDS B   6      55.117  -0.643  17.6330  0.00  0.00     0.000 C
ATOM    106  C4  IDS B   6      54.075  -1.578  18.2220  0.00  0.00     0.000 C
ATOM    107  C5  IDS B   6      54.520  -2.038  19.6130  0.00  0.00     0.000 C
ATOM    108  O5  IDS B   6      54.762  -0.934  20.4870  0.00  0.00     0.000 O
ATOM    109   O  IDS B   6      56.221  -1.374  17.1260  0.00  0.00     0.000 O
ATOM    111  HD  IDS B   6      56.824  -1.294  17.7420  0.00  0.00     0.000 HD
BRANCH 104 111
ATOM    111   O  IDS B   6      54.607   1.407  18.7190  0.00  0.00     0.000 O
ATOM    112   S  IDS B   6      55.056   2.927  18.4950  0.00  0.00     0.000 S
ATOM    113   O  IDS B   6      56.058   3.168  19.5220  0.00  0.00     0.000 OA
ATOM    114   O  IDS B   6      55.544   3.068  17.1180  0.00  0.00     0.000 OA
ATOM    115   O  IDS B   6      53.791   3.584  18.7420  0.00  0.00     0.000 OA
ENDBRANCH 104 111
BRANCH 107 116
ATOM    116   C  IDS B   6      53.452  -2.945  20.2100  0.00  0.00     0.000 C
ATOM    117   O  IDS B   6      53.293  -4.015  19.6790  0.00  0.00     0.000 OA
ATOM    118   O  IDS B   6      52.787  -2.597  21.1720  0.00  0.00     0.000 OA
ENDBRANCH 107 116
BRANCH 103 119
ATOM    119  O4  SGN B   7      57.114  -0.777  19.9530  0.00  0.00     0.000 O
BRANCH 119 123
ATOM    120  C1  SGN B   7      60.408  -1.338  22.4680  0.00  0.00     0.000 C
ATOM    121  C2  SGN B   7      59.225  -2.313  22.6140  0.00  0.00     0.000 C
ATOM    122  C3  SGN B   7      58.307  -2.233  21.3880  0.00  0.00     0.000 C
ATOM    123  C4  SGN B   7      57.890  -0.791  21.1510  0.00  0.00     0.000 C
ATOM    124  C5  SGN B   7      59.138   0.100  21.0260  0.00  0.00     0.000 C
ATOM    125  O5  SGN B   7      59.971  -0.006  22.2020  0.00  0.00     0.000 O
ATOM    126   O  SGN B   7      57.169  -3.076  21.6010  0.00  0.00     0.000 O
ATOM    128  HD  SGN B   7      57.955  -2.822  21.8610  0.00  0.00     0.000 HD
BRANCH 121 130
ATOM    128   N  SGN B   7      60.005  -3.517  22.9110  0.00  0.00     0.000 N
ATOM    130  HD  SGN B   7      60.460  -3.084  23.5060  0.00  0.00     0.000 HD
ATOM    130   S  SGN B   7      59.803  -4.359  24.2680  0.00  0.00     0.000 S
ATOM    131   O  SGN B   7      58.401  -4.585  24.3610  0.00  0.00     0.000 OA
ATOM    132   O  SGN B   7      60.706  -5.453  24.2540  0.00  0.00     0.000 OA
ATOM    133   O  SGN B   7      60.408  -3.360  25.3110  0.00  0.00     0.000 OA
ENDBRANCH 121 130
BRANCH 124 134
ATOM    134   C  SGN B   7      58.829   1.563  20.9060  0.00  0.00     0.000 C
ATOM    135   O  SGN B   7      59.617   2.278  21.8730  0.00  0.00     0.000 O
ATOM    136   S  SGN B   7      59.553   3.846  21.8060  0.00  0.00     0.000 S
ATOM    137   O  SGN B   7      60.328   4.332  22.9230  0.00  0.00     0.000 OA
ATOM    138   O  SGN B   7      58.149   4.173  21.9090  0.00  0.00     0.000 OA
ATOM    139   O  SGN B   7      60.144   4.128  20.5070  0.00  0.00     0.000 OA
ENDBRANCH 124 134
BRANCH 120 140
ATOM    140  O4  IDS B   8      61.424  -1.401  21.6010  0.00  0.00     0.000 O
BRANCH 140 144
ATOM    141  C1  IDS B   8      63.778  -2.389  19.0620  0.00  0.00     0.000 C
ATOM    142  C2  IDS B   8      63.352  -3.377  20.1850  0.00  0.00     0.000 C
ATOM    143  C3  IDS B   8      63.427  -2.758  21.5940  0.00  0.00     0.000 C
ATOM    144  C4  IDS B   8      62.856  -1.341  21.6280  0.00  0.00     0.000 C
ATOM    145  C5  IDS B   8      63.373  -0.533  20.4280  0.00  0.00     0.000 C
ATOM    146  O5  IDS B   8      63.060  -1.168  19.1900  0.00  0.00     0.000 O
BRANCH 142 147
ATOM    147   O  IDS B   8      61.944  -3.800  19.9650  0.00  0.00     0.000 O
ATOM    148   S  IDS B   8      61.568  -5.360  19.7290  0.00  0.00     0.000 S
ATOM    149   O  IDS B   8      62.789  -6.060  19.3970  0.00  0.00     0.000 OA
ATOM    150   O  IDS B   8      60.985  -5.812  20.9790  0.00  0.00     0.000 OA
ATOM    151   O  IDS B   8      60.625  -5.363  18.6270  0.00  0.00     0.000 OA
ENDBRANCH 142 147
BRANCH 145 152
ATOM    152   C  IDS B   8      62.763   0.852  20.3510  0.00  0.00     0.000 C
ATOM    153   O  IDS B   8      62.978   1.658  21.2500  0.00  0.00     0.000 OA
ATOM    154   O  IDS B   8      62.083   1.158  19.3880  0.00  0.00     0.000 OA
ENDBRANCH 145 152
ENDBRANCH 140 144
ENDBRANCH 120 140
ENDBRANCH 119 123
ENDBRANCH 103 119
ENDBRANCH 102 106
ENDBRANCH 82 102
ENDBRANCH 81 85
ENDBRANCH 65 81
ENDBRANCH 64 68
ENDBRANCH 41 64
ENDBRANCH 40 44
ENDBRANCH 24 40
ENDBRANCH 23 27
ENDBRANCH 1 23
TORSDOF 31
ENDMDL
MODEL 13
REMARK VINA RESULT:      -8.7      8.394     11.846
ROOT
ATOM      1  C1  SGN B   1      35.299   0.768  13.7170  0.00  0.00     0.000 C
ATOM      2  C2  SGN B   1      34.260  -0.340  13.4790  0.00  0.00     0.000 C
ATOM      3  C3  SGN B   1      33.804  -0.350  12.0160  0.00  0.00     0.000 C
ATOM      4  C4  SGN B   1      33.273   1.024  11.6210  0.00  0.00     0.000 C
ATOM      5  C5  SGN B   1      34.296   2.087  12.0160  0.00  0.00     0.000 C
ATOM      6  O5  SGN B   1      34.597   1.967  13.4200  0.00  0.00     0.000 O
ATOM      7   O  SGN B   1      32.810  -1.347  11.8090  0.00  0.00     0.000 O
ATOM      9  HD  SGN B   1      32.426  -0.834  12.3920  0.00  0.00     0.000 HD
ATOM      9   O  SGN B   1      33.048   1.058  10.2230  0.00  0.00     0.000 O
ATOM     11  HD  SGN B   1      32.665   1.571  10.8070  0.00  0.00     0.000 HD
ENDROOT
BRANCH 2 13
ATOM     11   N  SGN B   1      34.109  -1.004  14.7870  0.00  0.00     0.000 N
ATOM     13  HD  SGN B   1      34.896  -0.850  14.4610  0.00  0.00     0.000 HD
ATOM     13   S  SGN B   1      35.203  -2.036  15.3590  0.00  0.00     0.000 S
ATOM     14   O  SGN B   1      36.287  -2.140  14.4630  0.00  0.00     0.000 OA
ATOM     15   O  SGN B   1      35.451  -1.718  16.7250  0.00  0.00     0.000 OA
ATOM     16   O  SGN B   1      34.324  -3.325  15.3390  0.00  0.00     0.000 OA
ENDBRANCH 2 13
BRANCH 5 17
ATOM     17   C  SGN B   1      33.835   3.503  11.7740  0.00  0.00     0.000 C
ATOM     18   O  SGN B   1      34.843   4.261  11.0770  0.00  0.00     0.000 O
ATOM     19   S  SGN B   1      35.136   5.727  11.6430  0.00  0.00     0.000 S
ATOM     20   O  SGN B   1      35.988   6.349  10.6520  0.00  0.00     0.000 OA
ATOM     21   O  SGN B   1      33.829   6.334  11.7440  0.00  0.00     0.000 OA
ATOM     22   O  SGN B   1      35.787   5.517  12.9180  0.00  0.00     0.000 OA
ENDBRANCH 5 17
BRANCH 1 23
ATOM     23  O4  IDS B   2      36.646   0.974  13.6820  0.00  0.00     0.000 O
BRANCH 23 27
ATOM     24  C1  IDS B   2      40.476   0.984  15.2840  0.00  0.00     0.000 C
ATOM     25  C2  IDS B   2      39.323   0.969  16.3120  0.00  0.00     0.000 C
ATOM     26  C3  IDS B   2      37.990   0.668  15.6320  0.00  0.00     0.000 C
ATOM     27  C4  IDS B   2      37.670   1.608  14.4780  0.00  0.00     0.000 C
ATOM     28  C5  IDS B   2      38.959   1.949  13.7040  0.00  0.00     0.000 C
ATOM     29  O5  IDS B   2      39.967   0.978  13.9430  0.00  0.00     0.000 O
ATOM     30   O  IDS B   2      36.941   0.786  16.5860  0.00  0.00     0.000 O
ATOM     32  HD  IDS B   2      36.711   1.607  16.7400  0.00  0.00     0.000 HD
BRANCH 25 32
ATOM     32   O  IDS B   2      39.527  -0.050  17.3700  0.00  0.00     0.000 O
ATOM     33   S  IDS B   2      39.553   0.349  18.9710  0.00  0.00     0.000 S
ATOM     34   O  IDS B   2      39.994  -0.843  19.6780  0.00  0.00     0.000 OA
ATOM     35   O  IDS B   2      40.470   1.460  19.1790  0.00  0.00     0.000 OA
ATOM     36   O  IDS B   2      38.190   0.688  19.3100  0.00  0.00     0.000 OA
ENDBRANCH 25 32
BRANCH 28 37
ATOM     37   C  IDS B   2      38.849   2.168  12.1810  0.00  0.00     0.000 C
ATOM     38   O  IDS B   2      39.486   1.361  11.5450  0.00  0.00     0.000 OA
ATOM     39   O  IDS B   2      38.144   3.022  11.5900  0.00  0.00     0.000 OA
ENDBRANCH 28 37
BRANCH 24 40
ATOM     40  O4  SUS B   3      41.726   1.299  15.6800  0.00  0.00     0.000 O
BRANCH 40 44
ATOM     41  C1  SUS B   3      45.425  -0.277  14.5040  0.00  0.00     0.000 C
ATOM     42  C2  SUS B   3      44.616   0.492  13.4400  0.00  0.00     0.000 C
ATOM     43  C3  SUS B   3      43.584   1.377  14.1360  0.00  0.00     0.000 C
ATOM     44  C4  SUS B   3      42.733   0.512  15.0540  0.00  0.00     0.000 C
ATOM     45  C5  SUS B   3      43.627  -0.113  16.1050  0.00  0.00     0.000 C
ATOM     46  O5  SUS B   3      44.582  -0.962  15.4370  0.00  0.00     0.000 O
BRANCH 42 49
ATOM     47   N  SUS B   3      44.335   0.756  12.0190  0.00  0.00     0.000 N
ATOM     49  HD  SUS B   3      43.675   0.319  11.6670  0.00  0.00     0.000 HD
ATOM     49   S  SUS B   3      45.621   0.553  11.0860  0.00  0.00     0.000 S
ATOM     50   O  SUS B   3      46.119  -0.757  11.2350  0.00  0.00     0.000 OA
ATOM     51   O  SUS B   3      44.886   0.708   9.7300  0.00  0.00     0.000 OA
ATOM     52   O  SUS B   3      46.519   1.620  11.2900  0.00  0.00     0.000 OA
ENDBRANCH 42 49
BRANCH 43 53
ATOM     53   O  SUS B   3      42.735   1.990  13.0960  0.00  0.00     0.000 O
ATOM     54   S  SUS B   3      42.824   3.622  12.9210  0.00  0.00     0.000 S
ATOM     55   O  SUS B   3      44.120   3.928  12.3310  0.00  0.00     0.000 OA
ATOM     56   O  SUS B   3      41.698   3.946  12.0630  0.00  0.00     0.000 OA
ATOM     57   O  SUS B   3      42.707   4.190  14.2680  0.00  0.00     0.000 OA
ENDBRANCH 43 53
BRANCH 45 58
ATOM     58   C  SUS B   3      42.837  -0.911  17.1190  0.00  0.00     0.000 C
ATOM     59   S  SUS B   3      42.110  -3.301  17.7050  0.00  0.00     0.000 S
ATOM     60   O  SUS B   3      43.031  -2.314  16.8770  0.00  0.00     0.000 O
ATOM     61   O  SUS B   3      40.821  -3.264  17.0410  0.00  0.00     0.000 OA
ATOM     62   O  SUS B   3      42.803  -4.545  17.5050  0.00  0.00     0.000 OA
ATOM     63   O  SUS B   3      42.122  -2.805  19.0360  0.00  0.00     0.000 OA
ENDBRANCH 45 58
BRANCH 41 64
ATOM     64  O4  IDS B   4      46.420   0.468  15.0880  0.00  0.00     0.000 O
BRANCH 64 68
ATOM     65  C1  IDS B   4      49.969   0.358  15.9040  0.00  0.00     0.000 C
ATOM     66  C2  IDS B   4      49.356  -0.701  14.9780  0.00  0.00     0.000 C
ATOM     67  C3  IDS B   4      48.052  -1.296  15.4820  0.00  0.00     0.000 C
ATOM     68  C4  IDS B   4      47.136  -0.262  16.1090  0.00  0.00     0.000 C
ATOM     69  C5  IDS B   4      47.983   0.636  17.0210  0.00  0.00     0.000 C
ATOM     70  O5  IDS B   4      48.972   1.306  16.2360  0.00  0.00     0.000 O
ATOM     71   O  IDS B   4      48.382  -2.283  16.4370  0.00  0.00     0.000 O
ATOM     73  HD  IDS B   4      48.536  -1.742  15.7780  0.00  0.00     0.000 HD
BRANCH 66 73
ATOM     73   O  IDS B   4      49.028  -0.072  13.6910  0.00  0.00     0.000 O
ATOM     74   S  IDS B   4      49.900  -0.496  12.3960  0.00  0.00     0.000 S
ATOM     75   O  IDS B   4      51.283  -0.231  12.7280  0.00  0.00     0.000 OA
ATOM     76   O  IDS B   4      49.363   0.374  11.3800  0.00  0.00     0.000 OA
ATOM     77   O  IDS B   4      49.621  -1.897  12.1860  0.00  0.00     0.000 OA
ENDBRANCH 66 73
BRANCH 69 78
ATOM     78   C  IDS B   4      47.175   1.587  17.8940  0.00  0.00     0.000 C
ATOM     79   O  IDS B   4      47.021   1.311  19.0830  0.00  0.00     0.000 OA
ATOM     80   O  IDS B   4      46.788   2.663  17.4030  0.00  0.00     0.000 OA
ENDBRANCH 69 78
BRANCH 65 81
ATOM     81  O4  SGN B   5      50.600  -0.259  16.9420  0.00  0.00     0.000 O
BRANCH 81 85
ATOM     82  C1  SGN B   5      53.270   0.563  20.0770  0.00  0.00     0.000 C
ATOM     83  C2  SGN B   5      51.792   0.378  20.4500  0.00  0.00     0.000 C
ATOM     84  C3  SGN B   5      51.064  -0.355  19.3150  0.00  0.00     0.000 C
ATOM     85  C4  SGN B   5      51.261   0.410  18.0180  0.00  0.00     0.000 C
ATOM     86  C5  SGN B   5      52.759   0.509  17.7430  0.00  0.00     0.000 C
ATOM     87  O5  SGN B   5      53.383   1.220  18.8290  0.00  0.00     0.000 O
ATOM     88   O  SGN B   5      49.693  -0.478  19.6250  0.00  0.00     0.000 O
ATOM     90  HD  SGN B   5      50.283  -1.107  19.6990  0.00  0.00     0.000 HD
BRANCH 83 92
ATOM     90   N  SGN B   5      52.070   1.145  21.6800  0.00  0.00     0.000 N
ATOM     92  HD  SGN B   5      51.962   1.994  21.5470  0.00  0.00     0.000 HD
ATOM     92   S  SGN B   5      51.480   0.595  23.0590  0.00  0.00     0.000 S
ATOM     93   O  SGN B   5      51.914   1.548  24.0360  0.00  0.00     0.000 OA
ATOM     94   O  SGN B   5      50.091   0.390  22.8300  0.00  0.00     0.000 OA
ATOM     95   O  SGN B   5      52.115  -0.768  23.2330  0.00  0.00     0.000 OA
ENDBRANCH 83 92
BRANCH 86 96
ATOM     96   C  SGN B   5      53.109   1.242  16.4640  0.00  0.00     0.000 C
ATOM     97   O  SGN B   5      52.349   2.447  16.3530  0.00  0.00     0.000 O
ATOM     98   S  SGN B   5      53.182   3.782  16.0430  0.00  0.00     0.000 S
ATOM     99   O  SGN B   5      52.145   4.754  15.7920  0.00  0.00     0.000 OA
ATOM    100   O  SGN B   5      53.987   4.055  17.1790  0.00  0.00     0.000 OA
ATOM    101   O  SGN B   5      53.949   3.460  14.8830  0.00  0.00     0.000 OA
ENDBRANCH 86 96
BRANCH 82 102
ATOM    102  O4  IDS B   6      53.958  -0.614  20.0580  0.00  0.00     0.000 O
BRANCH 102 106
ATOM    103  C1  IDS B   6      56.541  -3.007  20.9840  0.00  0.00     0.000 C
ATOM    104  C2  IDS B   6      55.633  -2.378  22.0530  0.00  0.00     0.000 C
ATOM    105  C3  IDS B   6      55.468  -0.873  21.9510  0.00  0.00     0.000 C
ATOM    106  C4  IDS B   6      55.316  -0.396  20.5170  0.00  0.00     0.000 C
ATOM    107  C5  IDS B   6      56.318  -1.128  19.6190  0.00  0.00     0.000 C
ATOM    108  O5  IDS B   6      56.169  -2.546  19.6990  0.00  0.00     0.000 O
ATOM    109   O  IDS B   6      56.589  -0.263  22.5680  0.00  0.00     0.000 O
ATOM    111  HD  IDS B   6      57.202  -0.874  22.5370  0.00  0.00     0.000 HD
BRANCH 104 111
ATOM    111   O  IDS B   6      54.276  -2.928  21.9140  0.00  0.00     0.000 O
ATOM    112   S  IDS B   6      53.793  -4.019  22.9800  0.00  0.00     0.000 S
ATOM    113   O  IDS B   6      54.761  -5.099  22.8620  0.00  0.00     0.000 OA
ATOM    114   O  IDS B   6      53.742  -3.385  24.3030  0.00  0.00     0.000 OA
ATOM    115   O  IDS B   6      52.494  -4.331  22.4240  0.00  0.00     0.000 OA
ENDBRANCH 104 111
BRANCH 107 116
ATOM    116   C  IDS B   6      56.133  -0.669  18.1790  0.00  0.00     0.000 C
ATOM    117   O  IDS B   6      55.610  -1.449  17.4240  0.00  0.00     0.000 OA
ATOM    118   O  IDS B   6      56.507   0.433  17.8100  0.00  0.00     0.000 OA
ENDBRANCH 107 116
BRANCH 103 119
ATOM    119  O4  SGN B   7      57.793  -2.810  21.4700  0.00  0.00     0.000 O
BRANCH 119 123
ATOM    120  C1  SGN B   7      61.538  -4.619  21.0250  0.00  0.00     0.000 C
ATOM    121  C2  SGN B   7      61.069  -3.665  19.9100  0.00  0.00     0.000 C
ATOM    122  C3  SGN B   7      59.904  -2.796  20.4000  0.00  0.00     0.000 C
ATOM    123  C4  SGN B   7      58.801  -3.682  20.9560  0.00  0.00     0.000 C
ATOM    124  C5  SGN B   7      59.369  -4.597  22.0530  0.00  0.00     0.000 C
ATOM    125  O5  SGN B   7      60.462  -5.397  21.5470  0.00  0.00     0.000 O
ATOM    126   O  SGN B   7      59.431  -1.994  19.3120  0.00  0.00     0.000 O
ATOM    128  HD  SGN B   7      60.036  -2.530  19.6220  0.00  0.00     0.000 HD
BRANCH 121 130
ATOM    128   N  SGN B   7      62.474  -3.365  19.6210  0.00  0.00     0.000 N
ATOM    130  HD  SGN B   7      62.593  -4.171  19.3270  0.00  0.00     0.000 HD
ATOM    130   S  SGN B   7      63.020  -3.174  18.1180  0.00  0.00     0.000 S
ATOM    131   O  SGN B   7      62.131  -2.240  17.5150  0.00  0.00     0.000 OA
ATOM    132   O  SGN B   7      64.411  -2.902  18.1800  0.00  0.00     0.000 OA
ATOM    133   O  SGN B   7      62.927  -4.647  17.5960  0.00  0.00     0.000 OA
ENDBRANCH 121 130
BRANCH 124 134
ATOM    134   C  SGN B   7      58.380  -5.592  22.5850  0.00  0.00     0.000 C
ATOM    135   O  SGN B   7      58.798  -6.910  22.1880  0.00  0.00     0.000 O
ATOM    136   S  SGN B   7      57.976  -8.111  22.7780  0.00  0.00     0.000 S
ATOM    137   O  SGN B   7      58.505  -9.306  22.1630  0.00  0.00     0.000 OA
ATOM    138   O  SGN B   7      56.603  -7.848  22.4090  0.00  0.00     0.000 OA
ATOM    139   O  SGN B   7      58.247  -8.008  24.2030  0.00  0.00     0.000 OA
ENDBRANCH 124 134
BRANCH 120 140
ATOM    140  O4  IDS B   8      62.146  -4.307  22.1740  0.00  0.00     0.000 O
BRANCH 140 144
ATOM    141  C1  IDS B   8      63.535  -2.835  25.1520  0.00  0.00     0.000 C
ATOM    142  C2  IDS B   8      63.972  -2.348  23.7410  0.00  0.00     0.000 C
ATOM    143  C3  IDS B   8      64.342  -3.503  22.7920  0.00  0.00     0.000 C
ATOM    144  C4  IDS B   8      63.345  -4.657  22.8770  0.00  0.00     0.000 C
ATOM    145  C5  IDS B   8      63.023  -4.971  24.3460  0.00  0.00     0.000 C
ATOM    146  O5  IDS B   8      62.522  -3.826  25.0320  0.00  0.00     0.000 O
BRANCH 142 147
ATOM    147   O  IDS B   8      62.855  -1.599  23.1070  0.00  0.00     0.000 O
ATOM    148   S  IDS B   8      63.138  -0.288  22.1960  0.00  0.00     0.000 S
ATOM    149   O  IDS B   8      64.485   0.157  22.4740  0.00  0.00     0.000 OA
ATOM    150   O  IDS B   8      62.964  -0.725  20.8230  0.00  0.00     0.000 OA
ATOM    151   O  IDS B   8      62.149   0.688  22.6120  0.00  0.00     0.000 OA
ENDBRANCH 142 147
BRANCH 145 152
ATOM    152   C  IDS B   8      61.962  -6.043  24.4940  0.00  0.00     0.000 C
ATOM    153   O  IDS B   8      62.169  -7.164  24.0430  0.00  0.00     0.000 OA
ATOM    154   O  IDS B   8      60.924  -5.786  25.0770  0.00  0.00     0.000 OA
ENDBRANCH 145 152
ENDBRANCH 140 144
ENDBRANCH 120 140
ENDBRANCH 119 123
ENDBRANCH 103 119
ENDBRANCH 102 106
ENDBRANCH 82 102
ENDBRANCH 81 85
ENDBRANCH 65 81
ENDBRANCH 64 68
ENDBRANCH 41 64
ENDBRANCH 40 44
ENDBRANCH 24 40
ENDBRANCH 23 27
ENDBRANCH 1 23
TORSDOF 31
ENDMDL
MODEL 14
REMARK VINA RESULT:      -8.6      8.569     11.918
ROOT
ATOM      1  C1  SGN B   1      36.566   1.929  12.7980  0.00  0.00     0.000 C
ATOM      2  C2  SGN B   1      35.790   0.627  13.0580  0.00  0.00     0.000 C
ATOM      3  C3  SGN B   1      34.603   0.502  12.0970  0.00  0.00     0.000 C
ATOM      4  C4  SGN B   1      33.707   1.731  12.2040  0.00  0.00     0.000 C
ATOM      5  C5  SGN B   1      34.566   2.987  12.0780  0.00  0.00     0.000 C
ATOM      6  O5  SGN B   1      35.617   2.953  13.0630  0.00  0.00     0.000 O
ATOM      7   O  SGN B   1      33.862  -0.682  12.3700  0.00  0.00     0.000 O
ATOM      9  HD  SGN B   1      33.787  -0.250  13.1170  0.00  0.00     0.000 HD
ATOM      9   O  SGN B   1      32.736   1.697  11.1740  0.00  0.00     0.000 O
ATOM     11  HD  SGN B   1      32.661   2.128  11.9220  0.00  0.00     0.000 HD
ENDROOT
BRANCH 2 13
ATOM     11   N  SGN B   1      36.612   0.110  14.1690  0.00  0.00     0.000 N
ATOM     13  HD  SGN B   1      36.965   0.256  13.3910  0.00  0.00     0.000 HD
ATOM     13   S  SGN B   1      37.909  -0.810  13.9220  0.00  0.00     0.000 S
ATOM     14   O  SGN B   1      38.132  -0.974  12.5380  0.00  0.00     0.000 OA
ATOM     15   O  SGN B   1      38.965  -0.331  14.7490  0.00  0.00     0.000 OA
ATOM     16   O  SGN B   1      37.377  -2.125  14.5710  0.00  0.00     0.000 OA
ENDBRANCH 2 13
BRANCH 5 17
ATOM     17   C  SGN B   1      33.804   4.274  12.2780  0.00  0.00     0.000 C
ATOM     18   O  SGN B   1      33.423   4.849  11.0120  0.00  0.00     0.000 O
ATOM     19   S  SGN B   1      33.668   6.421  10.8530  0.00  0.00     0.000 S
ATOM     20   O  SGN B   1      33.000   6.783   9.6210  0.00  0.00     0.000 OA
ATOM     21   O  SGN B   1      33.058   6.994  12.0310  0.00  0.00     0.000 OA
ATOM     22   O  SGN B   1      35.105   6.576  10.8010  0.00  0.00     0.000 OA
ENDBRANCH 5 17
BRANCH 1 23
ATOM     23  O4  IDS B   2      37.599   2.408  12.0480  0.00  0.00     0.000 O
BRANCH 23 27
ATOM     24  C1  IDS B   2      41.371   2.354  13.7820  0.00  0.00     0.000 C
ATOM     25  C2  IDS B   2      40.473   3.548  14.1730  0.00  0.00     0.000 C
ATOM     26  C3  IDS B   2      39.032   3.318  13.7280  0.00  0.00     0.000 C
ATOM     27  C4  IDS B   2      38.897   3.008  12.2430  0.00  0.00     0.000 C
ATOM     28  C5  IDS B   2      40.079   2.134  11.7780  0.00  0.00     0.000 C
ATOM     29  O5  IDS B   2      40.687   1.474  12.8790  0.00  0.00     0.000 O
ATOM     30   O  IDS B   2      38.267   4.488  13.9940  0.00  0.00     0.000 O
ATOM     32  HD  IDS B   2      38.381   5.112  13.4040  0.00  0.00     0.000 HD
BRANCH 25 32
ATOM     32   O  IDS B   2      40.458   3.782  15.6380  0.00  0.00     0.000 O
ATOM     33   S  IDS B   2      40.974   5.203  16.3000  0.00  0.00     0.000 S
ATOM     34   O  IDS B   2      41.026   4.985  17.7370  0.00  0.00     0.000 OA
ATOM     35   O  IDS B   2      42.286   5.538  15.7650  0.00  0.00     0.000 OA
ATOM     36   O  IDS B   2      39.971   6.182  15.9520  0.00  0.00     0.000 OA
ENDBRANCH 25 32
BRANCH 28 37
ATOM     37   C  IDS B   2      39.814   1.090  10.6740  0.00  0.00     0.000 C
ATOM     38   O  IDS B   2      40.480   0.091  10.8050  0.00  0.00     0.000 OA
ATOM     39   O  IDS B   2      38.967   1.167   9.7500  0.00  0.00     0.000 OA
ENDBRANCH 28 37
BRANCH 24 40
ATOM     40  O4  SUS B   3      42.696   2.398  14.0290  0.00  0.00     0.000 O
BRANCH 40 44
ATOM     41  C1  SUS B   3      45.326  -0.620  15.2650  0.00  0.00     0.000 C
ATOM     42  C2  SUS B   3      44.836  -0.666  13.8030  0.00  0.00     0.000 C
ATOM     43  C3  SUS B   3      44.311   0.711  13.4050  0.00  0.00     0.000 C
ATOM     44  C4  SUS B   3      43.244   1.138  14.4010  0.00  0.00     0.000 C
ATOM     45  C5  SUS B   3      43.869   1.234  15.7780  0.00  0.00     0.000 C
ATOM     46  O5  SUS B   3      44.341  -0.077  16.1510  0.00  0.00     0.000 O
BRANCH 42 49
ATOM     47   N  SUS B   3      45.711  -1.099  12.7000  0.00  0.00     0.000 N
ATOM     49  HD  SUS B   3      45.617  -0.683  11.9460  0.00  0.00     0.000 HD
ATOM     49   S  SUS B   3      45.615  -2.672  12.4160  0.00  0.00     0.000 S
ATOM     50   O  SUS B   3      44.281  -3.028  12.1310  0.00  0.00     0.000 OA
ATOM     51   O  SUS B   3      46.470  -2.674  11.1230  0.00  0.00     0.000 OA
ATOM     52   O  SUS B   3      46.271  -3.373  13.4480  0.00  0.00     0.000 OA
ENDBRANCH 42 49
BRANCH 43 53
ATOM     53   O  SUS B   3      43.723   0.601  12.0560  0.00  0.00     0.000 O
ATOM     54   S  SUS B   3      44.360   1.556  10.8800  0.00  0.00     0.000 S
ATOM     55   O  SUS B   3      45.684   1.037  10.5660  0.00  0.00     0.000 OA
ATOM     56   O  SUS B   3      43.412   1.446   9.7850  0.00  0.00     0.000 OA
ATOM     57   O  SUS B   3      44.439   2.908  11.4410  0.00  0.00     0.000 OA
ENDBRANCH 43 53
BRANCH 45 58
ATOM     58   C  SUS B   3      42.890   1.751  16.8100  0.00  0.00     0.000 C
ATOM     59   S  SUS B   3      41.036   0.991  18.4130  0.00  0.00     0.000 S
ATOM     60   O  SUS B   3      42.248   0.639  17.4560  0.00  0.00     0.000 O
ATOM     61   O  SUS B   3      39.917   1.249  17.5280  0.00  0.00     0.000 OA
ATOM     62   O  SUS B   3      40.899  -0.245  19.1360  0.00  0.00     0.000 OA
ATOM     63   O  SUS B   3      41.471   2.101  19.1840  0.00  0.00     0.000 OA
ENDBRANCH 45 58
BRANCH 41 64
ATOM     64  O4  IDS B   4      46.577  -0.072  15.4120  0.00  0.00     0.000 O
BRANCH 64 68
ATOM     65  C1  IDS B   4      50.169  -0.128  16.0190  0.00  0.00     0.000 C
ATOM     66  C2  IDS B   4      49.506  -1.248  15.2070  0.00  0.00     0.000 C
ATOM     67  C3  IDS B   4      48.236  -1.805  15.8280  0.00  0.00     0.000 C
ATOM     68  C4  IDS B   4      47.355  -0.730  16.4360  0.00  0.00     0.000 C
ATOM     69  C5  IDS B   4      48.252   0.228  17.2320  0.00  0.00     0.000 C
ATOM     70  O5  IDS B   4      49.189   0.842  16.3440  0.00  0.00     0.000 O
ATOM     71   O  IDS B   4      48.627  -2.724  16.8280  0.00  0.00     0.000 O
ATOM     73  HD  IDS B   4      48.738  -2.230  16.1250  0.00  0.00     0.000 HD
BRANCH 66 73
ATOM     73   O  IDS B   4      49.099  -0.709  13.9020  0.00  0.00     0.000 O
ATOM     74   S  IDS B   4      49.826  -1.293  12.5810  0.00  0.00     0.000 S
ATOM     75   O  IDS B   4      51.246  -1.088  12.7700  0.00  0.00     0.000 OA
ATOM     76   O  IDS B   4      49.249  -0.479  11.5410  0.00  0.00     0.000 OA
ATOM     77   O  IDS B   4      49.454  -2.686  12.5200  0.00  0.00     0.000 OA
ENDBRANCH 66 73
BRANCH 69 78
ATOM     78   C  IDS B   4      47.495   1.238  18.0840  0.00  0.00     0.000 C
ATOM     79   O  IDS B   4      46.448   0.886  18.6270  0.00  0.00     0.000 OA
ATOM     80   O  IDS B   4      48.012   2.351  18.2890  0.00  0.00     0.000 OA
ENDBRANCH 69 78
BRANCH 65 81
ATOM     81  O4  SGN B   5      50.863  -0.671  17.0570  0.00  0.00     0.000 O
BRANCH 81 85
ATOM     82  C1  SGN B   5      53.587   0.456  20.0490  0.00  0.00     0.000 C
ATOM     83  C2  SGN B   5      52.162   0.102  20.5000  0.00  0.00     0.000 C
ATOM     84  C3  SGN B   5      51.462  -0.710  19.4020  0.00  0.00     0.000 C
ATOM     85  C4  SGN B   5      51.500   0.071  18.1000  0.00  0.00     0.000 C
ATOM     86  C5  SGN B   5      52.960   0.341  17.7450  0.00  0.00     0.000 C
ATOM     87  O5  SGN B   5      53.556   1.120  18.8000  0.00  0.00     0.000 O
ATOM     88   O  SGN B   5      50.133  -0.990  19.7850  0.00  0.00     0.000 O
ATOM     90  HD  SGN B   5      50.795  -1.547  19.8240  0.00  0.00     0.000 HD
BRANCH 83 92
ATOM     90   N  SGN B   5      52.442   0.885  21.7190  0.00  0.00     0.000 N
ATOM     92  HD  SGN B   5      52.260   1.723  21.5990  0.00  0.00     0.000 HD
ATOM     92   S  SGN B   5      51.969   0.285  23.1230  0.00  0.00     0.000 S
ATOM     93   O  SGN B   5      52.375   1.267  24.0830  0.00  0.00     0.000 OA
ATOM     94   O  SGN B   5      50.590  -0.028  22.9640  0.00  0.00     0.000 OA
ATOM     95   O  SGN B   5      52.717  -1.023  23.2540  0.00  0.00     0.000 OA
ENDBRANCH 83 92
BRANCH 86 96
ATOM     96   C  SGN B   5      53.153   1.108  16.4530  0.00  0.00     0.000 C
ATOM     97   O  SGN B   5      52.424   2.337  16.4850  0.00  0.00     0.000 O
ATOM     98   S  SGN B   5      53.250   3.658  16.1040  0.00  0.00     0.000 S
ATOM     99   O  SGN B   5      52.220   4.666  16.0280  0.00  0.00     0.000 OA
ATOM    100   O  SGN B   5      54.212   3.869  17.1250  0.00  0.00     0.000 OA
ATOM    101   O  SGN B   5      53.838   3.355  14.8390  0.00  0.00     0.000 OA
ENDBRANCH 86 96
BRANCH 82 102
ATOM    102  O4  IDS B   6      54.403  -0.634  19.9870  0.00  0.00     0.000 O
BRANCH 102 106
ATOM    103  C1  IDS B   6      57.324  -2.689  20.6930  0.00  0.00     0.000 C
ATOM    104  C2  IDS B   6      56.448  -2.151  21.8350  0.00  0.00     0.000 C
ATOM    105  C3  IDS B   6      56.097  -0.679  21.7360  0.00  0.00     0.000 C
ATOM    106  C4  IDS B   6      55.761  -0.250  20.3180  0.00  0.00     0.000 C
ATOM    107  C5  IDS B   6      56.759  -0.875  19.3390  0.00  0.00     0.000 C
ATOM    108  O5  IDS B   6      56.787  -2.300  19.4440  0.00  0.00     0.000 O
ATOM    109   O  IDS B   6      57.188   0.071  22.2440  0.00  0.00     0.000 O
ATOM    111  HD  IDS B   6      57.864  -0.464  22.1620  0.00  0.00     0.000 HD
BRANCH 104 111
ATOM    111   O  IDS B   6      55.159  -2.859  21.8250  0.00  0.00     0.000 O
ATOM    112   S  IDS B   6      54.872  -3.917  22.9910  0.00  0.00     0.000 S
ATOM    113   O  IDS B   6      55.950  -4.887  22.8790  0.00  0.00     0.000 OA
ATOM    114   O  IDS B   6      54.825  -3.197  24.2690  0.00  0.00     0.000 OA
ATOM    115   O  IDS B   6      53.587  -4.413  22.5460  0.00  0.00     0.000 OA
ENDBRANCH 104 111
BRANCH 107 116
ATOM    116   C  IDS B   6      56.392  -0.469  17.9170  0.00  0.00     0.000 C
ATOM    117   O  IDS B   6      55.883  -1.314  17.2260  0.00  0.00     0.000 OA
ATOM    118   O  IDS B   6      56.615   0.657  17.5010  0.00  0.00     0.000 OA
ENDBRANCH 107 116
BRANCH 103 119
ATOM    119  O4  SGN B   7      58.583  -2.337  21.0610  0.00  0.00     0.000 O
BRANCH 119 123
ATOM    120  C1  SGN B   7      62.453  -3.714  20.2720  0.00  0.00     0.000 C
ATOM    121  C2  SGN B   7      61.829  -2.725  19.2690  0.00  0.00     0.000 C
ATOM    122  C3  SGN B   7      60.615  -2.022  19.8910  0.00  0.00     0.000 C
ATOM    123  C4  SGN B   7      59.639  -3.057  20.4240  0.00  0.00     0.000 C
ATOM    124  C5  SGN B   7      60.357  -3.996  21.4070  0.00  0.00     0.000 C
ATOM    125  O5  SGN B   7      61.490  -4.636  20.7800  0.00  0.00     0.000 O
ATOM    126   O  SGN B   7      60.003  -1.187  18.9010  0.00  0.00     0.000 O
ATOM    128  HD  SGN B   7      60.675  -1.682  19.1330  0.00  0.00     0.000 HD
BRANCH 121 130
ATOM    128   N  SGN B   7      63.213  -2.649  18.7950  0.00  0.00     0.000 N
ATOM    130  HD  SGN B   7      63.037  -3.221  18.1680  0.00  0.00     0.000 HD
ATOM    130   S  SGN B   7      63.613  -1.894  17.4300  0.00  0.00     0.000 S
ATOM    131   O  SGN B   7      63.000  -0.613  17.5200  0.00  0.00     0.000 OA
ATOM    132   O  SGN B   7      65.016  -2.007  17.2520  0.00  0.00     0.000 OA
ATOM    133   O  SGN B   7      63.000  -2.876  16.3750  0.00  0.00     0.000 OA
ENDBRANCH 121 130
BRANCH 124 134
ATOM    134   C  SGN B   7      59.503  -5.126  21.9010  0.00  0.00     0.000 C
ATOM    135   O  SGN B   7      59.696  -6.258  21.0360  0.00  0.00     0.000 O
ATOM    136   S  SGN B   7      59.004  -7.599  21.4720  0.00  0.00     0.000 S
ATOM    137   O  SGN B   7      59.249  -8.546  20.4110  0.00  0.00     0.000 OA
ATOM    138   O  SGN B   7      57.605  -7.270  21.6230  0.00  0.00     0.000 OA
ATOM    139   O  SGN B   7      59.687  -7.913  22.7170  0.00  0.00     0.000 OA
ENDBRANCH 124 134
BRANCH 120 140
ATOM    140  O4  IDS B   8      63.095  -3.434  21.4120  0.00  0.00     0.000 O
BRANCH 140 144
ATOM    141  C1  IDS B   8      65.442  -2.812  24.0700  0.00  0.00     0.000 C
ATOM    142  C2  IDS B   8      64.241  -3.780  24.2730  0.00  0.00     0.000 C
ATOM    143  C3  IDS B   8      62.900  -3.183  23.8100  0.00  0.00     0.000 C
ATOM    144  C4  IDS B   8      63.026  -2.466  22.4660  0.00  0.00     0.000 C
ATOM    145  C5  IDS B   8      64.281  -1.581  22.4540  0.00  0.00     0.000 C
ATOM    146  O5  IDS B   8      65.460  -2.335  22.7310  0.00  0.00     0.000 O
BRANCH 142 147
ATOM    147   O  IDS B   8      64.466  -5.021  23.4860  0.00  0.00     0.000 O
ATOM    148   S  IDS B   8      63.829  -6.436  23.9570  0.00  0.00     0.000 S
ATOM    149   O  IDS B   8      63.429  -6.299  25.3390  0.00  0.00     0.000 OA
ATOM    150   O  IDS B   8      62.706  -6.670  23.0680  0.00  0.00     0.000 OA
ATOM    151   O  IDS B   8      64.895  -7.407  23.7960  0.00  0.00     0.000 OA
ENDBRANCH 142 147
BRANCH 145 152
ATOM    152   C  IDS B   8      64.515  -0.919  21.1110  0.00  0.00     0.000 C
ATOM    153   O  IDS B   8      63.713  -0.089  20.6990  0.00  0.00     0.000 OA
ATOM    154   O  IDS B   8      65.508  -1.204  20.4650  0.00  0.00     0.000 OA
ENDBRANCH 145 152
ENDBRANCH 140 144
ENDBRANCH 120 140
ENDBRANCH 119 123
ENDBRANCH 103 119
ENDBRANCH 102 106
ENDBRANCH 82 102
ENDBRANCH 81 85
ENDBRANCH 65 81
ENDBRANCH 64 68
ENDBRANCH 41 64
ENDBRANCH 40 44
ENDBRANCH 24 40
ENDBRANCH 23 27
ENDBRANCH 1 23
TORSDOF 31
ENDMDL
MODEL 15
REMARK VINA RESULT:      -8.5      9.164     13.318
ROOT
ATOM      1  C1  SGN B   1      37.322  -0.715  15.1140  0.00  0.00     0.000 C
ATOM      2  C2  SGN B   1      36.467  -1.762  15.8480  0.00  0.00     0.000 C
ATOM      3  C3  SGN B   1      35.442  -2.389  14.8970  0.00  0.00     0.000 C
ATOM      4  C4  SGN B   1      34.586  -1.303  14.2540  0.00  0.00     0.000 C
ATOM      5  C5  SGN B   1      35.500  -0.228  13.6700  0.00  0.00     0.000 C
ATOM      6  O5  SGN B   1      36.381   0.266  14.6980  0.00  0.00     0.000 O
ATOM      7   O  SGN B   1      34.624  -3.325  15.5900  0.00  0.00     0.000 O
ATOM      9  HD  SGN B   1      34.448  -2.590  16.0120  0.00  0.00     0.000 HD
ATOM      9   O  SGN B   1      33.789  -1.874  13.2330  0.00  0.00     0.000 O
ATOM     11  HD  SGN B   1      33.613  -1.139  13.6560  0.00  0.00     0.000 HD
ENDROOT
BRANCH 2 13
ATOM     11   N  SGN B   1      37.019  -1.729  17.2160  0.00  0.00     0.000 N
ATOM     13  HD  SGN B   1      37.541  -1.836  16.5330  0.00  0.00     0.000 HD
ATOM     13   S  SGN B   1      38.369  -2.506  17.6170  0.00  0.00     0.000 S
ATOM     14   O  SGN B   1      38.921  -3.138  16.4820  0.00  0.00     0.000 OA
ATOM     15   O  SGN B   1      39.180  -1.630  18.3940  0.00  0.00     0.000 OA
ATOM     16   O  SGN B   1      37.745  -3.546  18.5980  0.00  0.00     0.000 OA
ENDBRANCH 2 13
BRANCH 5 17
ATOM     17   C  SGN B   1      34.765   0.960  13.1010  0.00  0.00     0.000 C
ATOM     18   O  SGN B   1      34.062   0.600  11.8950  0.00  0.00     0.000 O
ATOM     19   S  SGN B   1      34.202   1.620  10.6700  0.00  0.00     0.000 S
ATOM     20   O  SGN B   1      33.237   1.165   9.6910  0.00  0.00     0.000 OA
ATOM     21   O  SGN B   1      33.881   2.906  11.2440  0.00  0.00     0.000 OA
ATOM     22   O  SGN B   1      35.575   1.497  10.2320  0.00  0.00     0.000 OA
ENDBRANCH 5 17
BRANCH 1 23
ATOM     23  O4  IDS B   2      38.477  -0.614  14.3970  0.00  0.00     0.000 O
BRANCH 23 27
ATOM     24  C1  IDS B   2      42.598  -0.168  14.6200  0.00  0.00     0.000 C
ATOM     25  C2  IDS B   2      41.785   0.600  15.6850  0.00  0.00     0.000 C
ATOM     26  C3  IDS B   2      40.331   0.137  15.7010  0.00  0.00     0.000 C
ATOM     27  C4  IDS B   2      39.651   0.223  14.3410  0.00  0.00     0.000 C
ATOM     28  C5  IDS B   2      40.650  -0.154  13.2280  0.00  0.00     0.000 C
ATOM     29  O5  IDS B   2      41.731  -0.911  13.7520  0.00  0.00     0.000 O
ATOM     30   O  IDS B   2      39.590   0.951  16.6030  0.00  0.00     0.000 O
ATOM     32  HD  IDS B   2      39.373   1.720  16.2700  0.00  0.00     0.000 HD
BRANCH 25 32
ATOM     32   O  IDS B   2      42.331   0.410  17.0520  0.00  0.00     0.000 O
ATOM     33   S  IDS B   2      42.851   1.681  17.9670  0.00  0.00     0.000 S
ATOM     34   O  IDS B   2      43.514   1.102  19.1250  0.00  0.00     0.000 OA
ATOM     35   O  IDS B   2      43.765   2.500  17.1840  0.00  0.00     0.000 OA
ATOM     36   O  IDS B   2      41.658   2.400  18.3490  0.00  0.00     0.000 OA
ENDBRANCH 25 32
BRANCH 28 37
ATOM     37   C  IDS B   2      40.103  -0.886  11.9860  0.00  0.00     0.000 C
ATOM     38   O  IDS B   2      40.215  -2.087  12.0630  0.00  0.00     0.000 OA
ATOM     39   O  IDS B   2      39.528  -0.369  10.9970  0.00  0.00     0.000 OA
ENDBRANCH 28 37
BRANCH 24 40
ATOM     40  O4  SUS B   3      43.892   0.147  14.4050  0.00  0.00     0.000 O
BRANCH 40 44
ATOM     41  C1  SUS B   3      47.183  -2.408  13.9690  0.00  0.00     0.000 C
ATOM     42  C2  SUS B   3      46.494  -1.919  12.6790  0.00  0.00     0.000 C
ATOM     43  C3  SUS B   3      45.673  -0.670  12.9900  0.00  0.00     0.000 C
ATOM     44  C4  SUS B   3      44.710  -0.984  14.1240  0.00  0.00     0.000 C
ATOM     45  C5  SUS B   3      45.508  -1.361  15.3550  0.00  0.00     0.000 C
ATOM     46  O5  SUS B   3      46.261  -2.554  15.0550  0.00  0.00     0.000 O
BRANCH 42 49
ATOM     47   N  SUS B   3      46.772  -1.624  11.2630  0.00  0.00     0.000 N
ATOM     49  HD  SUS B   3      46.109  -1.322  10.7940  0.00  0.00     0.000 HD
ATOM     49   S  SUS B   3      47.406  -2.872  10.4840  0.00  0.00     0.000 S
ATOM     50   O  SUS B   3      46.544  -3.983  10.5760  0.00  0.00     0.000 OA
ATOM     51   O  SUS B   3      47.345  -2.248   9.0660  0.00  0.00     0.000 OA
ATOM     52   O  SUS B   3      48.743  -3.047  10.8940  0.00  0.00     0.000 OA
ENDBRANCH 42 49
BRANCH 43 53
ATOM     53   O  SUS B   3      44.917  -0.308  11.7750  0.00  0.00     0.000 O
ATOM     54   S  SUS B   3      45.171   1.192  11.1530  0.00  0.00     0.000 S
ATOM     55   O  SUS B   3      46.506   1.204  10.5710  0.00  0.00     0.000 OA
ATOM     56   O  SUS B   3      44.106   1.354  10.1790  0.00  0.00     0.000 OA
ATOM     57   O  SUS B   3      45.073   2.129  12.2770  0.00  0.00     0.000 OA
ENDBRANCH 43 53
BRANCH 45 58
ATOM     58   C  SUS B   3      44.619  -1.592  16.5580  0.00  0.00     0.000 C
ATOM     59   S  SUS B   3      43.245  -3.399  17.7530  0.00  0.00     0.000 S
ATOM     60   O  SUS B   3      44.336  -2.996  16.6780  0.00  0.00     0.000 O
ATOM     61   O  SUS B   3      41.970  -3.095  17.1320  0.00  0.00     0.000 OA
ATOM     62   O  SUS B   3      43.487  -4.813  17.8620  0.00  0.00     0.000 OA
ATOM     63   O  SUS B   3      43.554  -2.639  18.9120  0.00  0.00     0.000 OA
ENDBRANCH 45 58
BRANCH 41 64
ATOM     64  O4  IDS B   4      48.321  -1.709  14.2880  0.00  0.00     0.000 O
BRANCH 64 68
ATOM     65  C1  IDS B   4      51.594  -0.867  15.6500  0.00  0.00     0.000 C
ATOM     66  C2  IDS B   4      51.483  -1.672  14.3490  0.00  0.00     0.000 C
ATOM     67  C3  IDS B   4      50.486  -2.817  14.4020  0.00  0.00     0.000 C
ATOM     68  C4  IDS B   4      49.213  -2.457  15.1440  0.00  0.00     0.000 C
ATOM     69  C5  IDS B   4      49.602  -1.707  16.4250  0.00  0.00     0.000 C
ATOM     70  O5  IDS B   4      50.292  -0.505  16.0750  0.00  0.00     0.000 O
ATOM     71   O  IDS B   4      51.125  -3.899  15.0480  0.00  0.00     0.000 O
ATOM     73  HD  IDS B   4      51.090  -3.143  14.6280  0.00  0.00     0.000 HD
BRANCH 66 73
ATOM     73   O  IDS B   4      51.000  -0.783  13.2830  0.00  0.00     0.000 O
ATOM     74   S  IDS B   4      52.016  -0.423  12.0770  0.00  0.00     0.000 S
ATOM     75   O  IDS B   4      53.195   0.150  12.6920  0.00  0.00     0.000 OA
ATOM     76   O  IDS B   4      51.241   0.516  11.3060  0.00  0.00     0.000 OA
ATOM     77   O  IDS B   4      52.275  -1.674  11.4050  0.00  0.00     0.000 OA
ENDBRANCH 66 73
BRANCH 69 78
ATOM     78   C  IDS B   4      48.449  -1.469  17.3900  0.00  0.00     0.000 C
ATOM     79   O  IDS B   4      48.045  -0.318  17.5560  0.00  0.00     0.000 OA
ATOM     80   O  IDS B   4      47.883  -2.455  17.8980  0.00  0.00     0.000 OA
ENDBRANCH 69 78
BRANCH 65 81
ATOM     81  O4  SGN B   5      52.362  -1.552  16.5420  0.00  0.00     0.000 O
BRANCH 81 85
ATOM     82  C1  SGN B   5      53.982  -0.517  20.2760  0.00  0.00     0.000 C
ATOM     83  C2  SGN B   5      53.439  -1.946  20.1230  0.00  0.00     0.000 C
ATOM     84  C3  SGN B   5      53.329  -2.296  18.6320  0.00  0.00     0.000 C
ATOM     85  C4  SGN B   5      52.472  -1.253  17.9350  0.00  0.00     0.000 C
ATOM     86  C5  SGN B   5      53.121   0.113  18.1370  0.00  0.00     0.000 C
ATOM     87  O5  SGN B   5      53.179   0.394  19.5480  0.00  0.00     0.000 O
ATOM     88   O  SGN B   5      52.777  -3.586  18.4830  0.00  0.00     0.000 O
ATOM     90  HD  SGN B   5      53.617  -3.387  18.4090  0.00  0.00     0.000 HD
BRANCH 83 92
ATOM     90   N  SGN B   5      53.746  -1.911  21.5660  0.00  0.00     0.000 N
ATOM     92  HD  SGN B   5      53.303  -1.281  21.9630  0.00  0.00     0.000 HD
ATOM     92   S  SGN B   5      53.803  -3.299  22.3560  0.00  0.00     0.000 S
ATOM     93   O  SGN B   5      54.110  -2.927  23.7040  0.00  0.00     0.000 OA
ATOM     94   O  SGN B   5      52.580  -3.962  22.0600  0.00  0.00     0.000 OA
ATOM     95   O  SGN B   5      54.913  -4.078  21.6850  0.00  0.00     0.000 OA
ENDBRANCH 83 92
BRANCH 86 96
ATOM     96   C  SGN B   5      52.376   1.257  17.4800  0.00  0.00     0.000 C
ATOM     97   O  SGN B   5      52.891   2.514  17.9270  0.00  0.00     0.000 O
ATOM     98   S  SGN B   5      53.280   3.565  16.7800  0.00  0.00     0.000 S
ATOM     99   O  SGN B   5      53.560   4.766  17.5310  0.00  0.00     0.000 OA
ATOM    100   O  SGN B   5      54.391   3.035  16.0750  0.00  0.00     0.000 OA
ATOM    101   O  SGN B   5      52.105   3.663  15.9750  0.00  0.00     0.000 OA
ENDBRANCH 86 96
BRANCH 82 102
ATOM    102  O4  IDS B   6      55.286  -0.408  19.8960  0.00  0.00     0.000 O
BRANCH 102 106
ATOM    103  C1  IDS B   6      58.846  -0.042  20.5680  0.00  0.00     0.000 C
ATOM    104  C2  IDS B   6      57.963  -0.921  21.4680  0.00  0.00     0.000 C
ATOM    105  C3  IDS B   6      56.658  -0.284  21.9050  0.00  0.00     0.000 C
ATOM    106  C4  IDS B   6      55.984   0.496  20.7910  0.00  0.00     0.000 C
ATOM    107  C5  IDS B   6      57.028   1.318  20.0290  0.00  0.00     0.000 C
ATOM    108  O5  IDS B   6      58.076   0.497  19.5110  0.00  0.00     0.000 O
ATOM    109   O  IDS B   6      56.926   0.554  23.0170  0.00  0.00     0.000 O
ATOM    111  HD  IDS B   6      57.769   0.737  22.9410  0.00  0.00     0.000 HD
BRANCH 104 111
ATOM    111   O  IDS B   6      57.576  -2.130  20.7260  0.00  0.00     0.000 O
ATOM    112   S  IDS B   6      58.391  -3.479  21.0070  0.00  0.00     0.000 S
ATOM    113   O  IDS B   6      59.771  -3.146  20.6900  0.00  0.00     0.000 OA
ATOM    114   O  IDS B   6      58.162  -3.878  22.4000  0.00  0.00     0.000 OA
ATOM    115   O  IDS B   6      57.757  -4.343  20.0340  0.00  0.00     0.000 OA
ENDBRANCH 104 111
BRANCH 107 116
ATOM    116   C  IDS B   6      56.348   2.068  18.8920  0.00  0.00     0.000 C
ATOM    117   O  IDS B   6      55.836   3.123  19.1680  0.00  0.00     0.000 OA
ATOM    118   O  IDS B   6      56.319   1.614  17.7590  0.00  0.00     0.000 OA
ENDBRANCH 107 116
BRANCH 103 119
ATOM    119  O4  SGN B   7      59.501   0.760  21.4460  0.00  0.00     0.000 O
BRANCH 119 123
ATOM    120  C1  SGN B   7      63.027   3.001  21.2520  0.00  0.00     0.000 C
ATOM    121  C2  SGN B   7      61.691   3.765  21.1820  0.00  0.00     0.000 C
ATOM    122  C3  SGN B   7      60.537   2.877  21.6640  0.00  0.00     0.000 C
ATOM    123  C4  SGN B   7      60.539   1.568  20.8900  0.00  0.00     0.000 C
ATOM    124  C5  SGN B   7      61.913   0.889  21.0170  0.00  0.00     0.000 C
ATOM    125  O5  SGN B   7      62.968   1.760  20.5510  0.00  0.00     0.000 O
ATOM    126   O  SGN B   7      59.303   3.582  21.4920  0.00  0.00     0.000 O
ATOM    128  HD  SGN B   7      60.168   3.603  21.4870  0.00  0.00     0.000 HD
BRANCH 121 130
ATOM    128   N  SGN B   7      62.323   4.929  21.8080  0.00  0.00     0.000 N
ATOM    130  HD  SGN B   7      62.841   5.027  21.1200  0.00  0.00     0.000 HD
ATOM    130   S  SGN B   7      62.047   6.433  21.3030  0.00  0.00     0.000 S
ATOM    131   O  SGN B   7      60.631   6.552  21.2450  0.00  0.00     0.000 OA
ATOM    132   O  SGN B   7      62.810   7.320  22.1050  0.00  0.00     0.000 OA
ATOM    133   O  SGN B   7      62.791   6.407  19.9250  0.00  0.00     0.000 OA
ENDBRANCH 121 130
BRANCH 124 134
ATOM    134   C  SGN B   7      62.052  -0.356  20.1920  0.00  0.00     0.000 C
ATOM    135   O  SGN B   7      62.757  -0.028  18.9830  0.00  0.00     0.000 O
ATOM    136   S  SGN B   7      63.142  -1.230  18.0480  0.00  0.00     0.000 S
ATOM    137   O  SGN B   7      63.738  -0.652  16.8670  0.00  0.00     0.000 OA
ATOM    138   O  SGN B   7      61.896  -1.911  17.7750  0.00  0.00     0.000 OA
ATOM    139   O  SGN B   7      64.073  -1.983  18.8730  0.00  0.00     0.000 OA
ENDBRANCH 124 134
BRANCH 120 140
ATOM    140  O4  IDS B   8      63.686   2.595  22.3420  0.00  0.00     0.000 O
BRANCH 140 144
ATOM    141  C1  IDS B   8      65.980   2.731  25.1140  0.00  0.00     0.000 C
ATOM    142  C2  IDS B   8      66.341   3.374  23.7440  0.00  0.00     0.000 C
ATOM    143  C3  IDS B   8      66.090   2.433  22.5510  0.00  0.00     0.000 C
ATOM    144  C4  IDS B   8      64.756   1.700  22.6710  0.00  0.00     0.000 C
ATOM    145  C5  IDS B   8      64.573   1.161  24.0980  0.00  0.00     0.000 C
ATOM    146  O5  IDS B   8      64.661   2.202  25.0690  0.00  0.00     0.000 O
BRANCH 142 147
ATOM    147   O  IDS B   8      65.508   4.587  23.5310  0.00  0.00     0.000 O
ATOM    148   S  IDS B   8      66.166   5.968  22.9920  0.00  0.00     0.000 S
ATOM    149   O  IDS B   8      67.598   5.870  23.1690  0.00  0.00     0.000 OA
ATOM    150   O  IDS B   8      65.778   6.064  21.5970  0.00  0.00     0.000 OA
ATOM    151   O  IDS B   8      65.589   7.013  23.8160  0.00  0.00     0.000 OA
ENDBRANCH 142 147
BRANCH 145 152
ATOM    152   C  IDS B   8      63.222   0.508  24.3070  0.00  0.00     0.000 C
ATOM    153   O  IDS B   8      62.311   1.153  24.8140  0.00  0.00     0.000 OA
ATOM    154   O  IDS B   8      63.049  -0.644  23.9520  0.00  0.00     0.000 OA
ENDBRANCH 145 152
ENDBRANCH 140 144
ENDBRANCH 120 140
ENDBRANCH 119 123
ENDBRANCH 103 119
ENDBRANCH 102 106
ENDBRANCH 82 102
ENDBRANCH 81 85
ENDBRANCH 65 81
ENDBRANCH 64 68
ENDBRANCH 41 64
ENDBRANCH 40 44
ENDBRANCH 24 40
ENDBRANCH 23 27
ENDBRANCH 1 23
TORSDOF 31
ENDMDL
MODEL 16
REMARK VINA RESULT:      -8.5      8.180     12.736
ROOT
ATOM      1  C1  SGN B   1      34.963   2.714  11.9810  0.00  0.00     0.000 C
ATOM      2  C2  SGN B   1      33.752   3.660  12.0070  0.00  0.00     0.000 C
ATOM      3  C3  SGN B   1      32.618   3.065  12.8500  0.00  0.00     0.000 C
ATOM      4  C4  SGN B   1      32.248   1.679  12.3310  0.00  0.00     0.000 C
ATOM      5  C5  SGN B   1      33.518   0.842  12.1970  0.00  0.00     0.000 C
ATOM      6  O5  SGN B   1      34.466   1.535  11.3620  0.00  0.00     0.000 O
ATOM      7   O  SGN B   1      31.482   3.922  12.8360  0.00  0.00     0.000 O
ATOM      9  HD  SGN B   1      31.564   3.725  11.9960  0.00  0.00     0.000 HD
ATOM      9   O  SGN B   1      31.350   1.063  13.2360  0.00  0.00     0.000 O
ATOM     11  HD  SGN B   1      31.433   0.866  12.3970  0.00  0.00     0.000 HD
ENDROOT
BRANCH 2 13
ATOM     11   N  SGN B   1      34.106   4.863  11.2310  0.00  0.00     0.000 N
ATOM     13  HD  SGN B   1      34.673   4.513  11.7840  0.00  0.00     0.000 HD
ATOM     13   S  SGN B   1      35.162   5.952  11.7670  0.00  0.00     0.000 S
ATOM     14   O  SGN B   1      35.692   5.544  13.0090  0.00  0.00     0.000 OA
ATOM     15   O  SGN B   1      36.049   6.282  10.7030  0.00  0.00     0.000 OA
ATOM     16   O  SGN B   1      34.179   7.151  11.9360  0.00  0.00     0.000 OA
ENDBRANCH 2 13
BRANCH 5 17
ATOM     17   C  SGN B   1      33.294  -0.520  11.5870  0.00  0.00     0.000 C
ATOM     18   O  SGN B   1      34.080  -0.683  10.3900  0.00  0.00     0.000 O
ATOM     19   S  SGN B   1      33.322  -1.322   9.1350  0.00  0.00     0.000 S
ATOM     20   O  SGN B   1      34.362  -1.594   8.1660  0.00  0.00     0.000 OA
ATOM     21   O  SGN B   1      32.702  -2.514   9.6670  0.00  0.00     0.000 OA
ATOM     22   O  SGN B   1      32.381  -0.311   8.7070  0.00  0.00     0.000 OA
ENDBRANCH 5 17
BRANCH 1 23
ATOM     23  O4  IDS B   2      36.111   2.452  12.6690  0.00  0.00     0.000 O
BRANCH 23 27
ATOM     24  C1  IDS B   2      39.827   1.138  13.9710  0.00  0.00     0.000 C
ATOM     25  C2  IDS B   2      39.634   1.182  12.4390  0.00  0.00     0.000 C
ATOM     26  C3  IDS B   2      38.367   1.949  12.0700  0.00  0.00     0.000 C
ATOM     27  C4  IDS B   2      37.115   1.420  12.7550  0.00  0.00     0.000 C
ATOM     28  C5  IDS B   2      37.450   0.974  14.1930  0.00  0.00     0.000 C
ATOM     29  O5  IDS B   2      38.646   1.587  14.6490  0.00  0.00     0.000 O
ATOM     30   O  IDS B   2      38.158   1.861  10.6660  0.00  0.00     0.000 O
ATOM     32  HD  IDS B   2      37.810   1.108  10.4190  0.00  0.00     0.000 HD
BRANCH 25 32
ATOM     32   O  IDS B   2      40.772   1.837  11.7480  0.00  0.00     0.000 O
ATOM     33   S  IDS B   2      41.699   1.036  10.6430  0.00  0.00     0.000 S
ATOM     34   O  IDS B   2      42.830   1.905  10.3570  0.00  0.00     0.000 OA
ATOM     35   O  IDS B   2      42.134  -0.234  11.2070  0.00  0.00     0.000 OA
ATOM     36   O  IDS B   2      40.860   0.864   9.4810  0.00  0.00     0.000 OA
ENDBRANCH 25 32
BRANCH 28 37
ATOM     37   C  IDS B   2      36.366   1.161  15.2760  0.00  0.00     0.000 C
ATOM     38   O  IDS B   2      35.459   0.369  15.1710  0.00  0.00     0.000 OA
ATOM     39   O  IDS B   2      36.387   1.973  16.2320  0.00  0.00     0.000 OA
ENDBRANCH 28 37
BRANCH 24 40
ATOM     40  O4  SUS B   3      40.857   0.445  14.4990  0.00  0.00     0.000 O
BRANCH 40 44
ATOM     41  C1  SUS B   3      43.033   1.082  18.0220  0.00  0.00     0.000 C
ATOM     42  C2  SUS B   3      41.581   0.586  18.1700  0.00  0.00     0.000 C
ATOM     43  C3  SUS B   3      41.125  -0.037  16.8520  0.00  0.00     0.000 C
ATOM     44  C4  SUS B   3      41.320   0.977  15.7360  0.00  0.00     0.000 C
ATOM     45  C5  SUS B   3      42.794   1.313  15.6320  0.00  0.00     0.000 C
ATOM     46  O5  SUS B   3      43.206   1.920  16.8730  0.00  0.00     0.000 O
BRANCH 42 49
ATOM     47   N  SUS B   3      41.114   1.330  19.3530  0.00  0.00     0.000 N
ATOM     49  HD  SUS B   3      41.646   1.939  19.6610  0.00  0.00     0.000 HD
ATOM     49   S  SUS B   3      40.703   0.367  20.5660  0.00  0.00     0.000 S
ATOM     50   O  SUS B   3      41.795  -0.450  20.9210  0.00  0.00     0.000 OA
ATOM     51   O  SUS B   3      40.492   1.485  21.6180  0.00  0.00     0.000 OA
ATOM     52   O  SUS B   3      39.483  -0.269  20.2640  0.00  0.00     0.000 OA
ENDBRANCH 42 49
BRANCH 43 53
ATOM     53   O  SUS B   3      39.693  -0.373  16.9790  0.00  0.00     0.000 O
ATOM     54   S  SUS B   3      39.278  -1.956  16.8220  0.00  0.00     0.000 S
ATOM     55   O  SUS B   3      39.755  -2.653  18.0080  0.00  0.00     0.000 OA
ATOM     56   O  SUS B   3      37.832  -1.930  16.7000  0.00  0.00     0.000 OA
ATOM     57   O  SUS B   3      39.951  -2.443  15.6140  0.00  0.00     0.000 OA
ENDBRANCH 43 53
BRANCH 45 58
ATOM     58   C  SUS B   3      43.082   2.243  14.4740  0.00  0.00     0.000 C
ATOM     59   S  SUS B   3      44.112   4.524  13.9070  0.00  0.00     0.000 S
ATOM     60   O  SUS B   3      43.892   3.338  14.9330  0.00  0.00     0.000 O
ATOM     61   O  SUS B   3      42.881   5.290  13.9420  0.00  0.00     0.000 OA
ATOM     62   O  SUS B   3      45.213   5.213  14.5250  0.00  0.00     0.000 OA
ATOM     63   O  SUS B   3      44.405   3.902  12.6640  0.00  0.00     0.000 OA
ENDBRANCH 45 58
BRANCH 41 64
ATOM     64  O4  IDS B   4      43.972   0.087  18.1380  0.00  0.00     0.000 O
BRANCH 64 68
ATOM     65  C1  IDS B   4      47.104  -1.614  18.8960  0.00  0.00     0.000 C
ATOM     66  C2  IDS B   4      46.255  -1.019  20.0260  0.00  0.00     0.000 C
ATOM     67  C3  IDS B   4      45.760   0.393  19.7630  0.00  0.00     0.000 C
ATOM     68  C4  IDS B   4      45.308   0.602  18.3300  0.00  0.00     0.000 C
ATOM     69  C5  IDS B   4      46.349  -0.040  17.4030  0.00  0.00     0.000 C
ATOM     70  O5  IDS B   4      46.415  -1.443  17.6700  0.00  0.00     0.000 O
ATOM     71   O  IDS B   4      46.823   1.274  20.0620  0.00  0.00     0.000 O
ATOM     73  HD  IDS B   4      46.393   0.522  20.0830  0.00  0.00     0.000 HD
BRANCH 66 73
ATOM     73   O  IDS B   4      45.044  -1.835  20.1880  0.00  0.00     0.000 O
ATOM     74   S  IDS B   4      44.848  -2.633  21.5810  0.00  0.00     0.000 S
ATOM     75   O  IDS B   4      46.021  -3.466  21.7450  0.00  0.00     0.000 OA
ATOM     76   O  IDS B   4      43.635  -3.370  21.3320  0.00  0.00     0.000 OA
ATOM     77   O  IDS B   4      44.726  -1.614  22.5960  0.00  0.00     0.000 OA
ENDBRANCH 66 73
BRANCH 69 78
ATOM     78   C  IDS B   4      46.156   0.273  15.9260  0.00  0.00     0.000 C
ATOM     79   O  IDS B   4      46.612   1.325  15.4800  0.00  0.00     0.000 OA
ATOM     80   O  IDS B   4      45.637  -0.592  15.1960  0.00  0.00     0.000 OA
ENDBRANCH 69 78
BRANCH 65 81
ATOM     81  O4  SGN B   5      48.368  -1.110  18.9650  0.00  0.00     0.000 O
BRANCH 81 85
ATOM     82  C1  SGN B   5      52.207  -1.552  17.3210  0.00  0.00     0.000 C
ATOM     83  C2  SGN B   5      51.304  -0.474  16.7040  0.00  0.00     0.000 C
ATOM     84  C3  SGN B   5      50.171  -0.131  17.6820  0.00  0.00     0.000 C
ATOM     85  C4  SGN B   5      49.422  -1.401  18.0450  0.00  0.00     0.000 C
ATOM     86  C5  SGN B   5      50.414  -2.382  18.6670  0.00  0.00     0.000 C
ATOM     87  O5  SGN B   5      51.438  -2.679  17.6990  0.00  0.00     0.000 O
ATOM     88   O  SGN B   5      49.305   0.817  17.0990  0.00  0.00     0.000 O
ATOM     90  HD  SGN B   5      49.914   0.990  17.6900  0.00  0.00     0.000 HD
BRANCH 83 92
ATOM     90   N  SGN B   5      52.066  -0.560  15.4430  0.00  0.00     0.000 N
ATOM     92  HD  SGN B   5      51.692  -1.112  14.8910  0.00  0.00     0.000 HD
ATOM     92   S  SGN B   5      52.591   0.800  14.7880  0.00  0.00     0.000 S
ATOM     93   O  SGN B   5      53.271   0.382  13.5990  0.00  0.00     0.000 OA
ATOM     94   O  SGN B   5      51.452   1.649  14.6970  0.00  0.00     0.000 OA
ATOM     95   O  SGN B   5      53.516   1.395  15.8270  0.00  0.00     0.000 OA
ENDBRANCH 83 92
BRANCH 86 96
ATOM     96   C  SGN B   5      49.800  -3.699  19.0930  0.00  0.00     0.000 C
ATOM     97   O  SGN B   5      49.374  -4.447  17.9520  0.00  0.00     0.000 O
ATOM     98   S  SGN B   5      49.875  -5.969  17.8770  0.00  0.00     0.000 S
ATOM     99   O  SGN B   5      49.131  -6.494  16.7580  0.00  0.00     0.000 OA
ATOM    100   O  SGN B   5      51.282  -5.946  17.6960  0.00  0.00     0.000 OA
ATOM    101   O  SGN B   5      49.485  -6.532  19.1290  0.00  0.00     0.000 OA
ENDBRANCH 86 96
BRANCH 82 102
ATOM    102  O4  IDS B   6      52.926  -1.090  18.3830  0.00  0.00     0.000 O
BRANCH 102 106
ATOM    103  C1  IDS B   6      55.868  -0.294  20.3750  0.00  0.00     0.000 C
ATOM    104  C2  IDS B   6      55.669   0.327  18.9830  0.00  0.00     0.000 C
ATOM    105  C3  IDS B   6      55.270  -0.650  17.8940  0.00  0.00     0.000 C
ATOM    106  C4  IDS B   6      54.253  -1.673  18.3680  0.00  0.00     0.000 C
ATOM    107  C5  IDS B   6      54.641  -2.181  19.7600  0.00  0.00     0.000 C
ATOM    108  O5  IDS B   6      54.762  -1.114  20.7020  0.00  0.00     0.000 O
ATOM    109   O  IDS B   6      56.445  -1.289  17.4220  0.00  0.00     0.000 O
ATOM    111  HD  IDS B   6      57.004  -1.208  18.0780  0.00  0.00     0.000 HD
BRANCH 104 111
ATOM    111   O  IDS B   6      54.573   1.306  19.0470  0.00  0.00     0.000 O
ATOM    112   S  IDS B   6      54.945   2.860  18.9500  0.00  0.00     0.000 S
ATOM    113   O  IDS B   6      55.855   3.089  20.0610  0.00  0.00     0.000 OA
ATOM    114   O  IDS B   6      55.520   3.118  17.6240  0.00  0.00     0.000 OA
ATOM    115   O  IDS B   6      53.628   3.428  19.1420  0.00  0.00     0.000 OA
ENDBRANCH 104 111
BRANCH 107 116
ATOM    116   C  IDS B   6      53.595  -3.179  20.2410  0.00  0.00     0.000 C
ATOM    117   O  IDS B   6      53.562  -4.243  19.6770  0.00  0.00     0.000 OA
ATOM    118   O  IDS B   6      52.825  -2.905  21.1480  0.00  0.00     0.000 OA
ENDBRANCH 107 116
BRANCH 103 119
ATOM    119  O4  SGN B   7      57.129  -0.795  20.3260  0.00  0.00     0.000 O
BRANCH 119 123
ATOM    120  C1  SGN B   7      59.523  -2.988  22.9610  0.00  0.00     0.000 C
ATOM    121  C2  SGN B   7      58.820  -3.758  21.8280  0.00  0.00     0.000 C
ATOM    122  C3  SGN B   7      58.331  -2.790  20.7430  0.00  0.00     0.000 C
ATOM    123  C4  SGN B   7      57.475  -1.703  21.3720  0.00  0.00     0.000 C
ATOM    124  C5  SGN B   7      58.262  -1.002  22.4910  0.00  0.00     0.000 C
ATOM    125  O5  SGN B   7      58.701  -1.950  23.4900  0.00  0.00     0.000 O
ATOM    126   O  SGN B   7      57.598  -3.527  19.7570  0.00  0.00     0.000 O
ATOM    128  HD  SGN B   7      58.116  -3.540  20.4510  0.00  0.00     0.000 HD
BRANCH 121 130
ATOM    128   N  SGN B   7      59.181  -5.010  22.4970  0.00  0.00     0.000 N
ATOM    130  HD  SGN B   7      58.443  -5.376  22.2280  0.00  0.00     0.000 HD
ATOM    130   S  SGN B   7      59.649  -6.317  21.6820  0.00  0.00     0.000 S
ATOM    131   O  SGN B   7      60.669  -5.861  20.8010  0.00  0.00     0.000 OA
ATOM    132   O  SGN B   7      59.917  -7.353  22.6130  0.00  0.00     0.000 OA
ATOM    133   O  SGN B   7      58.295  -6.729  21.0100  0.00  0.00     0.000 OA
ENDBRANCH 121 130
BRANCH 124 134
ATOM    134   C  SGN B   7      57.460   0.013  23.2520  0.00  0.00     0.000 C
ATOM    135   O  SGN B   7      57.690  -0.182  24.6580  0.00  0.00     0.000 O
ATOM    136   S  SGN B   7      57.058   0.882  25.6250  0.00  0.00     0.000 S
ATOM    137   O  SGN B   7      57.331   0.424  26.9670  0.00  0.00     0.000 OA
ATOM    138   O  SGN B   7      55.648   0.891  25.3080  0.00  0.00     0.000 OA
ATOM    139   O  SGN B   7      57.766   2.098  25.2590  0.00  0.00     0.000 OA
ENDBRANCH 124 134
BRANCH 120 140
ATOM    140  O4  IDS B   8      60.686  -2.328  22.9100  0.00  0.00     0.000 O
BRANCH 140 144
ATOM    141  C1  IDS B   8      63.496  -0.087  23.1100  0.00  0.00     0.000 C
ATOM    142  C2  IDS B   8      62.908  -0.511  21.7340  0.00  0.00     0.000 C
ATOM    143  C3  IDS B   8      62.703  -2.032  21.6090  0.00  0.00     0.000 C
ATOM    144  C4  IDS B   8      62.085  -2.633  22.8710  0.00  0.00     0.000 C
ATOM    145  C5  IDS B   8      62.783  -2.073  24.1190  0.00  0.00     0.000 C
ATOM    146  O5  IDS B   8      62.723  -0.650  24.1630  0.00  0.00     0.000 O
BRANCH 142 147
ATOM    147   O  IDS B   8      61.579   0.129  21.5440  0.00  0.00     0.000 O
ATOM    148   S  IDS B   8      61.193   0.854  20.1450  0.00  0.00     0.000 S
ATOM    149   O  IDS B   8      62.420   1.076  19.4130  0.00  0.00     0.000 OA
ATOM    150   O  IDS B   8      60.294  -0.062  19.4690  0.00  0.00     0.000 OA
ATOM    151   O  IDS B   8      60.557   2.101  20.5250  0.00  0.00     0.000 OA
ENDBRANCH 142 147
BRANCH 145 152
ATOM    152   C  IDS B   8      62.149  -2.557  25.4080  0.00  0.00     0.000 C
ATOM    153   O  IDS B   8      62.505  -3.624  25.8940  0.00  0.00     0.000 OA
ATOM    154   O  IDS B   8      61.306  -1.870  25.9580  0.00  0.00     0.000 OA
ENDBRANCH 145 152
ENDBRANCH 140 144
ENDBRANCH 120 140
ENDBRANCH 119 123
ENDBRANCH 103 119
ENDBRANCH 102 106
ENDBRANCH 82 102
ENDBRANCH 81 85
ENDBRANCH 65 81
ENDBRANCH 64 68
ENDBRANCH 41 64
ENDBRANCH 40 44
ENDBRANCH 24 40
ENDBRANCH 23 27
ENDBRANCH 1 23
TORSDOF 31
ENDMDL
MODEL 17
REMARK VINA RESULT:      -8.1      8.750     11.916
ROOT
ATOM      1  C1  SGN B   1      35.738   0.827  14.0300  0.00  0.00     0.000 C
ATOM      2  C2  SGN B   1      34.606  -0.153  13.6830  0.00  0.00     0.000 C
ATOM      3  C3  SGN B   1      34.154   0.033  12.2300  0.00  0.00     0.000 C
ATOM      4  C4  SGN B   1      33.748   1.483  11.9880  0.00  0.00     0.000 C
ATOM      5  C5  SGN B   1      34.860   2.403  12.4860  0.00  0.00     0.000 C
ATOM      6  O5  SGN B   1      35.146   2.109  13.8670  0.00  0.00     0.000 O
ATOM      7   O  SGN B   1      33.076  -0.844  11.9260  0.00  0.00     0.000 O
ATOM      9  HD  SGN B   1      32.738  -0.365  12.5630  0.00  0.00     0.000 HD
ATOM      9   O  SGN B   1      33.530   1.685  10.6030  0.00  0.00     0.000 O
ATOM     11  HD  SGN B   1      33.192   2.165  11.2400  0.00  0.00     0.000 HD
ENDROOT
BRANCH 2 13
ATOM     11   N  SGN B   1      34.380  -0.953  14.9010  0.00  0.00     0.000 N
ATOM     13  HD  SGN B   1      35.183  -0.815  14.6080  0.00  0.00     0.000 HD
ATOM     13   S  SGN B   1      35.390  -2.116  15.3650  0.00  0.00     0.000 S
ATOM     14   O  SGN B   1      36.487  -2.188  14.4810  0.00  0.00     0.000 OA
ATOM     15   O  SGN B   1      35.626  -1.977  16.7630  0.00  0.00     0.000 OA
ATOM     16   O  SGN B   1      34.430  -3.332  15.1800  0.00  0.00     0.000 OA
ENDBRANCH 2 13
BRANCH 5 17
ATOM     17   C  SGN B   1      34.527   3.872  12.3990  0.00  0.00     0.000 C
ATOM     18   O  SGN B   1      33.165   4.116  12.8060  0.00  0.00     0.000 O
ATOM     19   S  SGN B   1      32.319   5.098  11.8690  0.00  0.00     0.000 S
ATOM     20   O  SGN B   1      31.100   5.360  12.6040  0.00  0.00     0.000 OA
ATOM     21   O  SGN B   1      33.165   6.259  11.7190  0.00  0.00     0.000 OA
ATOM     22   O  SGN B   1      32.109   4.361  10.6420  0.00  0.00     0.000 OA
ENDBRANCH 5 17
BRANCH 1 23
ATOM     23  O4  IDS B   2      37.099   0.916  14.0070  0.00  0.00     0.000 O
BRANCH 23 27
ATOM     24  C1  IDS B   2      40.957   0.811  15.5340  0.00  0.00     0.000 C
ATOM     25  C2  IDS B   2      39.825   0.859  16.5840  0.00  0.00     0.000 C
ATOM     26  C3  IDS B   2      38.469   0.596  15.9370  0.00  0.00     0.000 C
ATOM     27  C4  IDS B   2      38.161   1.525  14.7710  0.00  0.00     0.000 C
ATOM     28  C5  IDS B   2      39.447   1.804  13.9660  0.00  0.00     0.000 C
ATOM     29  O5  IDS B   2      40.422   0.800  14.2040  0.00  0.00     0.000 O
ATOM     30   O  IDS B   2      37.444   0.771  16.9080  0.00  0.00     0.000 O
ATOM     32  HD  IDS B   2      37.248   1.603  17.0510  0.00  0.00     0.000 HD
BRANCH 25 32
ATOM     32   O  IDS B   2      40.013  -0.147  17.6580  0.00  0.00     0.000 O
ATOM     33   S  IDS B   2      40.014   0.271  19.2540  0.00  0.00     0.000 S
ATOM     34   O  IDS B   2      40.443  -0.912  19.9830  0.00  0.00     0.000 OA
ATOM     35   O  IDS B   2      40.928   1.385  19.4620  0.00  0.00     0.000 OA
ATOM     36   O  IDS B   2      38.646   0.615  19.5680  0.00  0.00     0.000 OA
ENDBRANCH 25 32
BRANCH 28 37
ATOM     37   C  IDS B   2      39.314   1.998  12.4410  0.00  0.00     0.000 C
ATOM     38   O  IDS B   2      39.841   1.113  11.8090  0.00  0.00     0.000 OA
ATOM     39   O  IDS B   2      38.686   2.909  11.8480  0.00  0.00     0.000 OA
ENDBRANCH 28 37
BRANCH 24 40
ATOM     40  O4  SUS B   3      42.226   1.087  15.9000  0.00  0.00     0.000 O
BRANCH 40 44
ATOM     41  C1  SUS B   3      45.847  -0.567  14.5950  0.00  0.00     0.000 C
ATOM     42  C2  SUS B   3      45.017   0.220  13.5600  0.00  0.00     0.000 C
ATOM     43  C3  SUS B   3      44.029   1.126  14.2910  0.00  0.00     0.000 C
ATOM     44  C4  SUS B   3      43.194   0.279  15.2390  0.00  0.00     0.000 C
ATOM     45  C5  SUS B   3      44.110  -0.365  16.2580  0.00  0.00     0.000 C
ATOM     46  O5  SUS B   3      45.023  -1.234  15.5570  0.00  0.00     0.000 O
BRANCH 42 49
ATOM     47   N  SUS B   3      45.473  -0.611  12.4320  0.00  0.00     0.000 N
ATOM     49  HD  SUS B   3      46.095  -1.189  12.6040  0.00  0.00     0.000 HD
ATOM     49   S  SUS B   3      45.939   0.261  11.1720  0.00  0.00     0.000 S
ATOM     50   O  SUS B   3      46.967   1.146  11.5540  0.00  0.00     0.000 OA
ATOM     51   O  SUS B   3      46.513  -0.916  10.3420  0.00  0.00     0.000 OA
ATOM     52   O  SUS B   3      44.806   0.810  10.5390  0.00  0.00     0.000 OA
ENDBRANCH 42 49
BRANCH 43 53
ATOM     53   O  SUS B   3      43.158   1.757  13.2820  0.00  0.00     0.000 O
ATOM     54   S  SUS B   3      43.337   3.374  13.0420  0.00  0.00     0.000 S
ATOM     55   O  SUS B   3      44.610   3.575  12.3640  0.00  0.00     0.000 OA
ATOM     56   O  SUS B   3      42.183   3.741  12.2410  0.00  0.00     0.000 OA
ATOM     57   O  SUS B   3      43.339   3.993  14.3700  0.00  0.00     0.000 OA
ENDBRANCH 43 53
BRANCH 45 58
ATOM     58   C  SUS B   3      43.340  -1.146  17.2990  0.00  0.00     0.000 C
ATOM     59   S  SUS B   3      42.431  -3.489  17.8230  0.00  0.00     0.000 S
ATOM     60   O  SUS B   3      43.368  -2.544  16.9640  0.00  0.00     0.000 O
ATOM     61   O  SUS B   3      41.097  -3.287  17.2910  0.00  0.00     0.000 OA
ATOM     62   O  SUS B   3      42.974  -4.778  17.4900  0.00  0.00     0.000 OA
ATOM     63   O  SUS B   3      42.616  -3.082  19.1720  0.00  0.00     0.000 OA
ENDBRANCH 45 58
BRANCH 41 64
ATOM     64  O4  IDS B   4      46.877   0.156  15.1420  0.00  0.00     0.000 O
BRANCH 64 68
ATOM     65  C1  IDS B   4      50.385  -0.044  16.1090  0.00  0.00     0.000 C
ATOM     66  C2  IDS B   4      49.763  -1.136  15.2290  0.00  0.00     0.000 C
ATOM     67  C3  IDS B   4      48.415  -1.642  15.7160  0.00  0.00     0.000 C
ATOM     68  C4  IDS B   4      47.521  -0.533  16.2370  0.00  0.00     0.000 C
ATOM     69  C5  IDS B   4      48.370   0.388  17.1240  0.00  0.00     0.000 C
ATOM     70  O5  IDS B   4      49.417   0.964  16.3380  0.00  0.00     0.000 O
ATOM     71   O  IDS B   4      48.666  -2.577  16.7450  0.00  0.00     0.000 O
ATOM     73  HD  IDS B   4      48.868  -2.087  16.0600  0.00  0.00     0.000 HD
BRANCH 66 73
ATOM     73   O  IDS B   4      49.512  -0.580  13.8920  0.00  0.00     0.000 O
ATOM     74   S  IDS B   4      50.286  -1.245  12.6370  0.00  0.00     0.000 S
ATOM     75   O  IDS B   4      51.699  -1.167  12.9390  0.00  0.00     0.000 OA
ATOM     76   O  IDS B   4      49.870  -0.396  11.5490  0.00  0.00     0.000 OA
ATOM     77   O  IDS B   4      49.794  -2.600  12.5550  0.00  0.00     0.000 OA
ENDBRANCH 66 73
BRANCH 69 78
ATOM     78   C  IDS B   4      47.572   1.426  17.9000  0.00  0.00     0.000 C
ATOM     79   O  IDS B   4      47.475   1.306  19.1200  0.00  0.00     0.000 OA
ATOM     80   O  IDS B   4      47.133   2.419  17.2890  0.00  0.00     0.000 OA
ENDBRANCH 69 78
BRANCH 65 81
ATOM     81  O4  SGN B   5      50.948  -0.616  17.2100  0.00  0.00     0.000 O
BRANCH 81 85
ATOM     82  C1  SGN B   5      53.681   0.513  20.1920  0.00  0.00     0.000 C
ATOM     83  C2  SGN B   5      52.309   0.005  20.6590  0.00  0.00     0.000 C
ATOM     84  C3  SGN B   5      51.638  -0.780  19.5230  0.00  0.00     0.000 C
ATOM     85  C4  SGN B   5      51.560   0.097  18.2860  0.00  0.00     0.000 C
ATOM     86  C5  SGN B   5      52.978   0.518  17.9070  0.00  0.00     0.000 C
ATOM     87  O5  SGN B   5      53.546   1.265  19.0000  0.00  0.00     0.000 O
ATOM     88   O  SGN B   5      50.353  -1.202  19.9250  0.00  0.00     0.000 O
ATOM     90  HD  SGN B   5      51.060  -1.701  19.8990  0.00  0.00     0.000 HD
BRANCH 83 92
ATOM     90   N  SGN B   5      52.537   0.728  21.9250  0.00  0.00     0.000 N
ATOM     92  HD  SGN B   5      52.246   1.542  21.8750  0.00  0.00     0.000 HD
ATOM     92   S  SGN B   5      52.202  -0.028  23.2930  0.00  0.00     0.000 S
ATOM     93   O  SGN B   5      52.520   0.926  24.3130  0.00  0.00     0.000 OA
ATOM     94   O  SGN B   5      50.869  -0.505  23.1540  0.00  0.00     0.000 OA
ATOM     95   O  SGN B   5      53.115  -1.235  23.2990  0.00  0.00     0.000 OA
ENDBRANCH 83 92
BRANCH 86 96
ATOM     96   C  SGN B   5      53.056   1.395  16.6740  0.00  0.00     0.000 C
ATOM     97   O  SGN B   5      52.354   2.622  16.8850  0.00  0.00     0.000 O
ATOM     98   S  SGN B   5      53.160   3.965  16.5390  0.00  0.00     0.000 S
ATOM     99   O  SGN B   5      52.145   4.984  16.6540  0.00  0.00     0.000 OA
ATOM    100   O  SGN B   5      54.222   4.077  17.4740  0.00  0.00     0.000 OA
ATOM    101   O  SGN B   5      53.617   3.770  15.2010  0.00  0.00     0.000 OA
ENDBRANCH 86 96
BRANCH 82 102
ATOM    102  O4  IDS B   6      54.582  -0.494  20.0180  0.00  0.00     0.000 O
BRANCH 102 106
ATOM    103  C1  IDS B   6      57.668  -2.344  20.5750  0.00  0.00     0.000 C
ATOM    104  C2  IDS B   6      56.783  -1.919  21.7570  0.00  0.00     0.000 C
ATOM    105  C3  IDS B   6      56.318  -0.476  21.7260  0.00  0.00     0.000 C
ATOM    106  C4  IDS B   6      55.916  -0.020  20.3340  0.00  0.00     0.000 C
ATOM    107  C5  IDS B   6      56.933  -0.528  19.3090  0.00  0.00     0.000 C
ATOM    108  O5  IDS B   6      57.071  -1.949  19.3550  0.00  0.00     0.000 O
ATOM    109   O  IDS B   6      57.363   0.335  22.2390  0.00  0.00     0.000 O
ATOM    111  HD  IDS B   6      58.075  -0.143  22.1210  0.00  0.00     0.000 HD
BRANCH 104 111
ATOM    111   O  IDS B   6      55.551  -2.724  21.7470  0.00  0.00     0.000 O
ATOM    112   S  IDS B   6      55.670  -4.285  22.0770  0.00  0.00     0.000 S
ATOM    113   O  IDS B   6      56.586  -4.804  21.0740  0.00  0.00     0.000 OA
ATOM    114   O  IDS B   6      56.130  -4.433  23.4630  0.00  0.00     0.000 OA
ATOM    115   O  IDS B   6      54.291  -4.673  21.8700  0.00  0.00     0.000 OA
ENDBRANCH 104 111
BRANCH 107 116
ATOM    116   C  IDS B   6      56.500  -0.096  17.9130  0.00  0.00     0.000 C
ATOM    117   O  IDS B   6      56.041  -0.951  17.1990  0.00  0.00     0.000 OA
ATOM    118   O  IDS B   6      56.624   1.059  17.5390  0.00  0.00     0.000 OA
ENDBRANCH 107 116
BRANCH 103 119
ATOM    119  O4  SGN B   7      58.906  -1.911  20.9290  0.00  0.00     0.000 O
BRANCH 119 123
ATOM    120  C1  SGN B   7      62.844  -3.213  20.3980  0.00  0.00     0.000 C
ATOM    121  C2  SGN B   7      62.152  -2.530  19.2040  0.00  0.00     0.000 C
ATOM    122  C3  SGN B   7      60.904  -1.769  19.6690  0.00  0.00     0.000 C
ATOM    123  C4  SGN B   7      59.997  -2.701  20.4560  0.00  0.00     0.000 C
ATOM    124  C5  SGN B   7      60.780  -3.335  21.6170  0.00  0.00     0.000 C
ATOM    125  O5  SGN B   7      61.945  -4.042  21.1330  0.00  0.00     0.000 O
ATOM    126   O  SGN B   7      60.232  -1.230  18.5250  0.00  0.00     0.000 O
ATOM    128  HD  SGN B   7      60.935  -1.616  18.8510  0.00  0.00     0.000 HD
BRANCH 121 130
ATOM    128   N  SGN B   7      63.495  -2.646  18.6320  0.00  0.00     0.000 N
ATOM    130  HD  SGN B   7      63.215  -3.248  18.0760  0.00  0.00     0.000 HD
ATOM    130   S  SGN B   7      63.864  -2.061  17.1780  0.00  0.00     0.000 S
ATOM    131   O  SGN B   7      63.394  -0.718  17.1870  0.00  0.00     0.000 OA
ATOM    132   O  SGN B   7      65.230  -2.341  16.9180  0.00  0.00     0.000 OA
ATOM    133   O  SGN B   7      63.075  -3.060  16.2650  0.00  0.00     0.000 OA
ENDBRANCH 121 130
BRANCH 124 134
ATOM    134   C  SGN B   7      60.002  -4.362  22.3850  0.00  0.00     0.000 C
ATOM    135   O  SGN B   7      60.646  -5.638  22.2270  0.00  0.00     0.000 O
ATOM    136   S  SGN B   7      60.070  -6.823  23.0820  0.00  0.00     0.000 S
ATOM    137   O  SGN B   7      60.797  -8.004  22.6820  0.00  0.00     0.000 OA
ATOM    138   O  SGN B   7      58.665  -6.884  22.7460  0.00  0.00     0.000 OA
ATOM    139   O  SGN B   7      60.346  -6.390  24.4430  0.00  0.00     0.000 OA
ENDBRANCH 124 134
BRANCH 120 140
ATOM    140  O4  IDS B   8      63.479  -2.634  21.4230  0.00  0.00     0.000 O
BRANCH 140 144
ATOM    141  C1  IDS B   8      65.784  -1.220  23.8000  0.00  0.00     0.000 C
ATOM    142  C2  IDS B   8      64.739  -2.286  24.2360  0.00  0.00     0.000 C
ATOM    143  C3  IDS B   8      63.314  -1.972  23.7440  0.00  0.00     0.000 C
ATOM    144  C4  IDS B   8      63.301  -1.506  22.2890  0.00  0.00     0.000 C
ATOM    145  C5  IDS B   8      64.417  -0.477  22.0520  0.00  0.00     0.000 C
ATOM    146  O5  IDS B   8      65.697  -1.000  22.3970  0.00  0.00     0.000 O
BRANCH 142 147
ATOM    147   O  IDS B   8      65.117  -3.609  23.6740  0.00  0.00     0.000 O
ATOM    148   S  IDS B   8      64.706  -4.986  24.4270  0.00  0.00     0.000 S
ATOM    149   O  IDS B   8      64.333  -4.650  25.7820  0.00  0.00     0.000 OA
ATOM    150   O  IDS B   8      63.603  -5.532  23.6590  0.00  0.00     0.000 OA
ATOM    151   O  IDS B   8      65.896  -5.815  24.3830  0.00  0.00     0.000 OA
ENDBRANCH 142 147
BRANCH 145 152
ATOM    152   C  IDS B   8      64.518  -0.050  20.6020  0.00  0.00     0.000 C
ATOM    153   O  IDS B   8      63.699   0.740  20.1460  0.00  0.00     0.000 OA
ATOM    154   O  IDS B   8      65.424  -0.479  19.9090  0.00  0.00     0.000 OA
ENDBRANCH 145 152
ENDBRANCH 140 144
ENDBRANCH 120 140
ENDBRANCH 119 123
ENDBRANCH 103 119
ENDBRANCH 102 106
ENDBRANCH 82 102
ENDBRANCH 81 85
ENDBRANCH 65 81
ENDBRANCH 64 68
ENDBRANCH 41 64
ENDBRANCH 40 44
ENDBRANCH 24 40
ENDBRANCH 23 27
ENDBRANCH 1 23
TORSDOF 31
ENDMDL
MODEL 18
REMARK VINA RESULT:      -8.1      9.279     13.162
ROOT
ATOM      1  C1  SGN B   1      34.009   0.271  13.6810  0.00  0.00     0.000 C
ATOM      2  C2  SGN B   1      32.951  -0.618  13.0070  0.00  0.00     0.000 C
ATOM      3  C3  SGN B   1      32.756  -0.213  11.5410  0.00  0.00     0.000 C
ATOM      4  C4  SGN B   1      32.403   1.267  11.4470  0.00  0.00     0.000 C
ATOM      5  C5  SGN B   1      33.415   2.075  12.2560  0.00  0.00     0.000 C
ATOM      6  O5  SGN B   1      33.457   1.578  13.6080  0.00  0.00     0.000 O
ATOM      7   O  SGN B   1      31.745  -1.008  10.9330  0.00  0.00     0.000 O
ATOM      9  HD  SGN B   1      31.303  -0.615  11.5660  0.00  0.00     0.000 HD
ATOM      9   O  SGN B   1      32.428   1.671  10.0900  0.00  0.00     0.000 O
ATOM     11  HD  SGN B   1      31.987   2.064  10.7230  0.00  0.00     0.000 HD
ENDROOT
BRANCH 2 13
ATOM     11   N  SGN B   1      33.331  -2.041  13.0910  0.00  0.00     0.000 N
ATOM     13  HD  SGN B   1      32.816  -1.686  13.6910  0.00  0.00     0.000 HD
ATOM     13   S  SGN B   1      33.426  -2.823  14.4940  0.00  0.00     0.000 S
ATOM     14   O  SGN B   1      33.052  -1.969  15.5520  0.00  0.00     0.000 OA
ATOM     15   O  SGN B   1      32.781  -4.085  14.3510  0.00  0.00     0.000 OA
ATOM     16   O  SGN B   1      34.963  -3.089  14.4960  0.00  0.00     0.000 OA
ENDBRANCH 2 13
BRANCH 5 17
ATOM     17   C  SGN B   1      33.106   3.550  12.3290  0.00  0.00     0.000 C
ATOM     18   O  SGN B   1      33.102   4.141  11.0140  0.00  0.00     0.000 O
ATOM     19   S  SGN B   1      33.874   5.533  10.8680  0.00  0.00     0.000 S
ATOM     20   O  SGN B   1      33.527   6.019   9.5490  0.00  0.00     0.000 OA
ATOM     21   O  SGN B   1      33.345   6.344  11.9400  0.00  0.00     0.000 OA
ATOM     22   O  SGN B   1      35.275   5.205  11.0140  0.00  0.00     0.000 OA
ENDBRANCH 5 17
BRANCH 1 23
ATOM     23  O4  IDS B   2      35.353   0.324  13.9030  0.00  0.00     0.000 O
BRANCH 23 27
ATOM     24  C1  IDS B   2      39.201   0.556  15.4440  0.00  0.00     0.000 C
ATOM     25  C2  IDS B   2      38.174  -0.189  16.3240  0.00  0.00     0.000 C
ATOM     26  C3  IDS B   2      36.892  -0.474  15.5460  0.00  0.00     0.000 C
ATOM     27  C4  IDS B   2      36.269   0.769  14.9260  0.00  0.00     0.000 C
ATOM     28  C5  IDS B   2      37.375   1.718  14.4220  0.00  0.00     0.000 C
ATOM     29  O5  IDS B   2      38.595   1.018  14.2290  0.00  0.00     0.000 O
ATOM     30   O  IDS B   2      35.929  -1.046  16.4230  0.00  0.00     0.000 O
ATOM     32  HD  IDS B   2      35.531  -0.461  16.9220  0.00  0.00     0.000 HD
BRANCH 25 32
ATOM     32   O  IDS B   2      38.695  -1.487  16.8190  0.00  0.00     0.000 O
ATOM     33   S  IDS B   2      38.494  -1.967  18.3850  0.00  0.00     0.000 S
ATOM     34   O  IDS B   2      39.316  -3.155  18.5530  0.00  0.00     0.000 OA
ATOM     35   O  IDS B   2      38.916  -0.897  19.2780  0.00  0.00     0.000 OA
ATOM     36   O  IDS B   2      37.089  -2.276  18.5200  0.00  0.00     0.000 OA
ENDBRANCH 25 32
BRANCH 28 37
ATOM     37   C  IDS B   2      37.088   2.551  13.1560  0.00  0.00     0.000 C
ATOM     38   O  IDS B   2      36.386   3.510  13.3770  0.00  0.00     0.000 OA
ATOM     39   O  IDS B   2      37.550   2.359  12.0050  0.00  0.00     0.000 OA
ENDBRANCH 28 37
BRANCH 24 40
ATOM     40  O4  SUS B   3      40.375   0.958  15.9730  0.00  0.00     0.000 O
BRANCH 40 44
ATOM     41  C1  SUS B   3      44.063   1.708  14.1350  0.00  0.00     0.000 C
ATOM     42  C2  SUS B   3      42.879   2.611  13.7340  0.00  0.00     0.000 C
ATOM     43  C3  SUS B   3      41.797   2.526  14.8080  0.00  0.00     0.000 C
ATOM     44  C4  SUS B   3      41.420   1.067  15.0130  0.00  0.00     0.000 C
ATOM     45  C5  SUS B   3      42.641   0.309  15.4910  0.00  0.00     0.000 C
ATOM     46  O5  SUS B   3      43.646   0.377  14.4600  0.00  0.00     0.000 O
BRANCH 42 49
ATOM     47   N  SUS B   3      43.391   2.803  12.3660  0.00  0.00     0.000 N
ATOM     49  HD  SUS B   3      44.184   2.495  12.2030  0.00  0.00     0.000 HD
ATOM     49   S  SUS B   3      43.347   4.335  11.8990  0.00  0.00     0.000 S
ATOM     50   O  SUS B   3      44.085   5.132  12.7980  0.00  0.00     0.000 OA
ATOM     51   O  SUS B   3      44.126   4.141  10.5740  0.00  0.00     0.000 OA
ATOM     52   O  SUS B   3      42.012   4.706  11.6430  0.00  0.00     0.000 OA
ENDBRANCH 42 49
BRANCH 43 53
ATOM     53   O  SUS B   3      40.624   3.285  14.3310  0.00  0.00     0.000 O
ATOM     54   S  SUS B   3      40.313   4.723  15.0650  0.00  0.00     0.000 S
ATOM     55   O  SUS B   3      41.345   5.660  14.6420  0.00  0.00     0.000 OA
ATOM     56   O  SUS B   3      38.981   5.072  14.6050  0.00  0.00     0.000 OA
ATOM     57   O  SUS B   3      40.380   4.476  16.5080  0.00  0.00     0.000 OA
ENDBRANCH 43 53
BRANCH 45 58
ATOM     58   C  SUS B   3      42.320  -1.134  15.8140  0.00  0.00     0.000 C
ATOM     59   S  SUS B   3      42.861  -3.014  17.4760  0.00  0.00     0.000 S
ATOM     60   O  SUS B   3      42.909  -1.481  17.0790  0.00  0.00     0.000 O
ATOM     61   O  SUS B   3      43.915  -3.640  16.7020  0.00  0.00     0.000 OA
ATOM     62   O  SUS B   3      43.172  -2.937  18.8780  0.00  0.00     0.000 OA
ATOM     63   O  SUS B   3      41.543  -3.444  17.1690  0.00  0.00     0.000 OA
ENDBRANCH 45 58
BRANCH 41 64
ATOM     64  O4  IDS B   4      44.903   2.276  15.0610  0.00  0.00     0.000 O
BRANCH 64 68
ATOM     65  C1  IDS B   4      47.914   3.179  16.9040  0.00  0.00     0.000 C
ATOM     66  C2  IDS B   4      47.568   3.893  15.5920  0.00  0.00     0.000 C
ATOM     67  C3  IDS B   4      47.160   2.965  14.4600  0.00  0.00     0.000 C
ATOM     68  C4  IDS B   4      46.270   1.827  14.9230  0.00  0.00     0.000 C
ATOM     69  C5  IDS B   4      46.859   1.257  16.2200  0.00  0.00     0.000 C
ATOM     70  O5  IDS B   4      46.869   2.277  17.2210  0.00  0.00     0.000 O
ATOM     71   O  IDS B   4      48.346   2.445  13.8960  0.00  0.00     0.000 O
ATOM     73  HD  IDS B   4      47.875   2.999  14.3660  0.00  0.00     0.000 HD
BRANCH 66 73
ATOM     73   O  IDS B   4      46.408   4.766  15.8190  0.00  0.00     0.000 O
ATOM     74   S  IDS B   4      46.677   6.239  16.4330  0.00  0.00     0.000 S
ATOM     75   O  IDS B   4      47.388   6.041  17.6780  0.00  0.00     0.000 OA
ATOM     76   O  IDS B   4      45.336   6.741  16.5960  0.00  0.00     0.000 OA
ATOM     77   O  IDS B   4      47.454   6.936  15.4360  0.00  0.00     0.000 OA
ENDBRANCH 66 73
BRANCH 69 78
ATOM     78   C  IDS B   4      46.205  -0.033  16.6950  0.00  0.00     0.000 C
ATOM     79   O  IDS B   4      45.628  -0.038  17.7810  0.00  0.00     0.000 OA
ATOM     80   O  IDS B   4      46.184  -1.010  15.9230  0.00  0.00     0.000 OA
ENDBRANCH 69 78
BRANCH 65 81
ATOM     81  O4  SGN B   5      49.169   2.658  16.8190  0.00  0.00     0.000 O
BRANCH 81 85
ATOM     82  C1  SGN B   5      52.144   1.076  19.3270  0.00  0.00     0.000 C
ATOM     83  C2  SGN B   5      51.474   0.107  18.3420  0.00  0.00     0.000 C
ATOM     84  C3  SGN B   5      50.787   0.904  17.2240  0.00  0.00     0.000 C
ATOM     85  C4  SGN B   5      49.815   1.895  17.8410  0.00  0.00     0.000 C
ATOM     86  C5  SGN B   5      50.596   2.813  18.7770  0.00  0.00     0.000 C
ATOM     87  O5  SGN B   5      51.200   2.013  19.8120  0.00  0.00     0.000 O
ATOM     88   O  SGN B   5      50.121   0.023  16.3460  0.00  0.00     0.000 O
ATOM     90  HD  SGN B   5      50.885   0.402  16.1940  0.00  0.00     0.000 HD
BRANCH 83 92
ATOM     90   N  SGN B   5      51.257  -1.348  18.4630  0.00  0.00     0.000 N
ATOM     92  HD  SGN B   5      50.645  -1.618  17.9130  0.00  0.00     0.000 HD
ATOM     92   S  SGN B   5      52.542  -2.294  18.5630  0.00  0.00     0.000 S
ATOM     93   O  SGN B   5      52.001  -3.616  18.6620  0.00  0.00     0.000 OA
ATOM     94   O  SGN B   5      53.367  -1.941  17.4590  0.00  0.00     0.000 OA
ATOM     95   O  SGN B   5      53.253  -1.844  19.8210  0.00  0.00     0.000 OA
ENDBRANCH 83 92
BRANCH 86 96
ATOM     96   C  SGN B   5      49.751   3.869  19.4590  0.00  0.00     0.000 C
ATOM     97   O  SGN B   5      48.794   3.260  20.3310  0.00  0.00     0.000 O
ATOM     98   S  SGN B   5      48.743   3.828  21.8290  0.00  0.00     0.000 S
ATOM     99   O  SGN B   5      47.577   3.177  22.3760  0.00  0.00     0.000 OA
ATOM    100   O  SGN B   5      49.966   3.481  22.4590  0.00  0.00     0.000 OA
ATOM    101   O  SGN B   5      48.580   5.237  21.6690  0.00  0.00     0.000 OA
ENDBRANCH 86 96
BRANCH 82 102
ATOM    102  O4  IDS B   6      53.216   1.719  18.7840  0.00  0.00     0.000 O
BRANCH 102 106
ATOM    103  C1  IDS B   6      56.609   2.832  19.4930  0.00  0.00     0.000 C
ATOM    104  C2  IDS B   6      55.934   1.763  20.3670  0.00  0.00     0.000 C
ATOM    105  C3  IDS B   6      54.520   2.092  20.8060  0.00  0.00     0.000 C
ATOM    106  C4  IDS B   6      53.697   2.733  19.7030  0.00  0.00     0.000 C
ATOM    107  C5  IDS B   6      54.542   3.778  18.9680  0.00  0.00     0.000 C
ATOM    108  O5  IDS B   6      55.745   3.215  18.4410  0.00  0.00     0.000 O
ATOM    109   O  IDS B   6      54.596   2.944  21.9380  0.00  0.00     0.000 O
ATOM    111  HD  IDS B   6      55.380   3.307  21.8730  0.00  0.00     0.000 HD
BRANCH 104 111
ATOM    111   O  IDS B   6      55.821   0.515  19.5960  0.00  0.00     0.000 O
ATOM    112   S  IDS B   6      56.724  -0.729  20.0410  0.00  0.00     0.000 S
ATOM    113   O  IDS B   6      58.091  -0.238  19.9570  0.00  0.00     0.000 OA
ATOM    114   O  IDS B   6      56.306  -1.150  21.3840  0.00  0.00     0.000 OA
ATOM    115   O  IDS B   6      56.369  -1.662  18.9940  0.00  0.00     0.000 OA
ENDBRANCH 104 111
BRANCH 107 116
ATOM    116   C  IDS B   6      53.719   4.388  17.8410  0.00  0.00     0.000 C
ATOM    117   O  IDS B   6      53.890   3.935  16.7380  0.00  0.00     0.000 OA
ATOM    118   O  IDS B   6      52.934   5.300  18.0490  0.00  0.00     0.000 OA
ENDBRANCH 107 116
BRANCH 103 119
ATOM    119  O4  SGN B   7      57.072   3.737  20.3930  0.00  0.00     0.000 O
BRANCH 119 123
ATOM    120  C1  SGN B   7      60.318   6.359  20.6710  0.00  0.00     0.000 C
ATOM    121  C2  SGN B   7      59.172   6.741  19.7160  0.00  0.00     0.000 C
ATOM    122  C3  SGN B   7      57.916   5.917  20.0260  0.00  0.00     0.000 C
ATOM    123  C4  SGN B   7      58.258   4.436  20.0140  0.00  0.00     0.000 C
ATOM    124  C5  SGN B   7      59.413   4.159  20.9910  0.00  0.00     0.000 C
ATOM    125  O5  SGN B   7      60.573   4.955  20.6610  0.00  0.00     0.000 O
ATOM    126   O  SGN B   7      56.906   6.227  19.0590  0.00  0.00     0.000 O
ATOM    128  HD  SGN B   7      57.677   6.417  19.4030  0.00  0.00     0.000 HD
BRANCH 121 130
ATOM    128   N  SGN B   7      59.944   7.711  18.9350  0.00  0.00     0.000 N
ATOM    130  HD  SGN B   7      59.358   7.676  18.2990  0.00  0.00     0.000 HD
ATOM    130   S  SGN B   7      59.463   9.236  18.7410  0.00  0.00     0.000 S
ATOM    131   O  SGN B   7      59.173   9.705  20.0530  0.00  0.00     0.000 OA
ATOM    132   O  SGN B   7      60.419   9.906  17.9350  0.00  0.00     0.000 OA
ATOM    133   O  SGN B   7      58.230   9.023  17.7990  0.00  0.00     0.000 OA
ENDBRANCH 121 130
BRANCH 124 134
ATOM    134   C  SGN B   7      59.901   2.741  20.9660  0.00  0.00     0.000 C
ATOM    135   O  SGN B   7      61.308   2.746  20.6680  0.00  0.00     0.000 O
ATOM    136   S  SGN B   7      62.045   1.361  20.7470  0.00  0.00     0.000 S
ATOM    137   O  SGN B   7      63.401   1.598  20.3110  0.00  0.00     0.000 OA
ATOM    138   O  SGN B   7      61.310   0.490  19.8580  0.00  0.00     0.000 OA
ATOM    139   O  SGN B   7      61.927   1.024  22.1570  0.00  0.00     0.000 OA
ENDBRANCH 124 134
BRANCH 120 140
ATOM    140  O4  IDS B   8      60.400   6.576  21.9880  0.00  0.00     0.000 O
BRANCH 140 144
ATOM    141  C1  IDS B   8      59.337   6.782  25.4220  0.00  0.00     0.000 C
ATOM    142  C2  IDS B   8      58.382   7.189  24.2640  0.00  0.00     0.000 C
ATOM    143  C3  IDS B   8      59.041   8.135  23.2430  0.00  0.00     0.000 C
ATOM    144  C4  IDS B   8      60.459   7.693  22.8840  0.00  0.00     0.000 C
ATOM    145  C5  IDS B   8      61.232   7.311  24.1550  0.00  0.00     0.000 C
ATOM    146  O5  IDS B   8      60.562   6.291  24.8920  0.00  0.00     0.000 O
BRANCH 142 147
ATOM    147   O  IDS B   8      57.954   5.973  23.5240  0.00  0.00     0.000 O
ATOM    148   S  IDS B   8      56.509   5.290  23.8030  0.00  0.00     0.000 S
ATOM    149   O  IDS B   8      56.013   5.810  25.0570  0.00  0.00     0.000 OA
ATOM    150   O  IDS B   8      55.680   5.663  22.6720  0.00  0.00     0.000 OA
ATOM    151   O  IDS B   8      56.768   3.864  23.8720  0.00  0.00     0.000 OA
ENDBRANCH 142 147
BRANCH 145 152
ATOM    152   C  IDS B   8      62.615   6.769  23.8560  0.00  0.00     0.000 C
ATOM    153   O  IDS B   8      62.858   5.585  24.0620  0.00  0.00     0.000 OA
ATOM    154   O  IDS B   8      63.464   7.510  23.3940  0.00  0.00     0.000 OA
ENDBRANCH 145 152
ENDBRANCH 140 144
ENDBRANCH 120 140
ENDBRANCH 119 123
ENDBRANCH 103 119
ENDBRANCH 102 106
ENDBRANCH 82 102
ENDBRANCH 81 85
ENDBRANCH 65 81
ENDBRANCH 64 68
ENDBRANCH 41 64
ENDBRANCH 40 44
ENDBRANCH 24 40
ENDBRANCH 23 27
ENDBRANCH 1 23
TORSDOF 31
ENDMDL
MODEL 19
REMARK VINA RESULT:      -8.1      9.528     13.281
ROOT
ATOM      1  C1  SGN B   1      37.543  -0.474  15.4680  0.00  0.00     0.000 C
ATOM      2  C2  SGN B   1      36.652  -1.586  16.0460  0.00  0.00     0.000 C
ATOM      3  C3  SGN B   1      35.664  -2.094  14.9900  0.00  0.00     0.000 C
ATOM      4  C4  SGN B   1      34.842  -0.934  14.4380  0.00  0.00     0.000 C
ATOM      5  C5  SGN B   1      35.785   0.189  14.0140  0.00  0.00     0.000 C
ATOM      6  O5  SGN B   1      36.626   0.557  15.1250  0.00  0.00     0.000 O
ATOM      7   O  SGN B   1      34.812  -3.092  15.5410  0.00  0.00     0.000 O
ATOM      9  HD  SGN B   1      34.623  -2.406  16.0350  0.00  0.00     0.000 HD
ATOM      9   O  SGN B   1      34.085  -1.380  13.3280  0.00  0.00     0.000 O
ATOM     11  HD  SGN B   1      33.896  -0.695  13.8220  0.00  0.00     0.000 HD
ENDROOT
BRANCH 2 13
ATOM     11   N  SGN B   1      37.123  -1.747  17.4350  0.00  0.00     0.000 N
ATOM     13  HD  SGN B   1      37.687  -1.736  16.7770  0.00  0.00     0.000 HD
ATOM     13   S  SGN B   1      38.474  -2.542  17.7970  0.00  0.00     0.000 S
ATOM     14   O  SGN B   1      39.111  -2.980  16.6170  0.00  0.00     0.000 OA
ATOM     15   O  SGN B   1      39.209  -1.773  18.7450  0.00  0.00     0.000 OA
ATOM     16   O  SGN B   1      37.831  -3.733  18.5710  0.00  0.00     0.000 OA
ENDBRANCH 2 13
BRANCH 5 17
ATOM     17   C  SGN B   1      35.081   1.441  13.5510  0.00  0.00     0.000 C
ATOM     18   O  SGN B   1      36.032   2.452  13.1600  0.00  0.00     0.000 O
ATOM     19   S  SGN B   1      35.743   3.930  13.6960  0.00  0.00     0.000 S
ATOM     20   O  SGN B   1      36.680   4.776  12.9870  0.00  0.00     0.000 OA
ATOM     21   O  SGN B   1      34.364   4.171  13.3410  0.00  0.00     0.000 OA
ATOM     22   O  SGN B   1      35.981   3.869  15.1210  0.00  0.00     0.000 OA
ENDBRANCH 5 17
BRANCH 1 23
ATOM     23  O4  IDS B   2      38.727  -0.306  14.8140  0.00  0.00     0.000 O
BRANCH 23 27
ATOM     24  C1  IDS B   2      42.798  -0.064  15.5910  0.00  0.00     0.000 C
ATOM     25  C2  IDS B   2      41.886   0.718  16.5610  0.00  0.00     0.000 C
ATOM     26  C3  IDS B   2      40.423   0.326  16.3720  0.00  0.00     0.000 C
ATOM     27  C4  IDS B   2      39.935   0.474  14.9370  0.00  0.00     0.000 C
ATOM     28  C5  IDS B   2      41.055   0.074  13.9560  0.00  0.00     0.000 C
ATOM     29  O5  IDS B   2      42.022  -0.746  14.5960  0.00  0.00     0.000 O
ATOM     30   O  IDS B   2      39.607   1.154  17.1910  0.00  0.00     0.000 O
ATOM     32  HD  IDS B   2      39.471   1.940  16.8540  0.00  0.00     0.000 HD
BRANCH 25 32
ATOM     32   O  IDS B   2      42.236   0.472  17.9820  0.00  0.00     0.000 O
ATOM     33   S  IDS B   2      42.712   1.692  18.9860  0.00  0.00     0.000 S
ATOM     34   O  IDS B   2      43.181   1.053  20.2050  0.00  0.00     0.000 OA
ATOM     35   O  IDS B   2      43.771   2.460  18.3470  0.00  0.00     0.000 OA
ATOM     36   O  IDS B   2      41.527   2.482  19.2280  0.00  0.00     0.000 OA
ENDBRANCH 25 32
BRANCH 28 37
ATOM     37   C  IDS B   2      40.645  -0.603  12.6320  0.00  0.00     0.000 C
ATOM     38   O  IDS B   2      40.874  -1.790  12.6230  0.00  0.00     0.000 OA
ATOM     39   O  IDS B   2      40.071  -0.064  11.6540  0.00  0.00     0.000 OA
ENDBRANCH 28 37
BRANCH 24 40
ATOM     40  O4  SUS B   3      44.122   0.192  15.5570  0.00  0.00     0.000 O
BRANCH 40 44
ATOM     41  C1  SUS B   3      47.372  -2.414  15.1120  0.00  0.00     0.000 C
ATOM     42  C2  SUS B   3      46.578  -2.053  13.8410  0.00  0.00     0.000 C
ATOM     43  C3  SUS B   3      45.782  -0.774  14.0900  0.00  0.00     0.000 C
ATOM     44  C4  SUS B   3      44.916  -0.966  15.3250  0.00  0.00     0.000 C
ATOM     45  C5  SUS B   3      45.814  -1.222  16.5180  0.00  0.00     0.000 C
ATOM     46  O5  SUS B   3      46.543  -2.444  16.2800  0.00  0.00     0.000 O
BRANCH 42 49
ATOM     47   N  SUS B   3      47.346  -3.182  13.2860  0.00  0.00     0.000 N
ATOM     49  HD  SUS B   3      48.171  -3.249  13.5380  0.00  0.00     0.000 HD
ATOM     49   S  SUS B   3      47.308  -3.227  11.6850  0.00  0.00     0.000 S
ATOM     50   O  SUS B   3      47.800  -2.016  11.1590  0.00  0.00     0.000 OA
ATOM     51   O  SUS B   3      48.351  -4.361  11.5140  0.00  0.00     0.000 OA
ATOM     52   O  SUS B   3      46.034  -3.654  11.2600  0.00  0.00     0.000 OA
ENDBRANCH 42 49
BRANCH 43 53
ATOM     53   O  SUS B   3      44.928  -0.532  12.9110  0.00  0.00     0.000 O
ATOM     54   S  SUS B   3      45.122   0.898  12.1250  0.00  0.00     0.000 S
ATOM     55   O  SUS B   3      46.405   0.848  11.4380  0.00  0.00     0.000 OA
ATOM     56   O  SUS B   3      43.981   0.966  11.2310  0.00  0.00     0.000 OA
ATOM     57   O  SUS B   3      45.113   1.942  13.1540  0.00  0.00     0.000 OA
ENDBRANCH 43 53
BRANCH 45 58
ATOM     58   C  SUS B   3      45.029  -1.325  17.8070  0.00  0.00     0.000 C
ATOM     59   S  SUS B   3      43.730  -2.987  19.2690  0.00  0.00     0.000 S
ATOM     60   O  SUS B   3      44.732  -2.706  18.0750  0.00  0.00     0.000 O
ATOM     61   O  SUS B   3      42.412  -2.706  18.7330  0.00  0.00     0.000 OA
ATOM     62   O  SUS B   3      43.955  -4.392  19.4820  0.00  0.00     0.000 OA
ATOM     63   O  SUS B   3      44.151  -2.138  20.3260  0.00  0.00     0.000 OA
ENDBRANCH 45 58
BRANCH 41 64
ATOM     64  O4  IDS B   4      48.531  -1.693  15.2640  0.00  0.00     0.000 O
BRANCH 64 68
ATOM     65  C1  IDS B   4      51.785  -0.648  16.5250  0.00  0.00     0.000 C
ATOM     66  C2  IDS B   4      51.666  -1.300  15.1420  0.00  0.00     0.000 C
ATOM     67  C3  IDS B   4      50.804  -2.551  15.1100  0.00  0.00     0.000 C
ATOM     68  C4  IDS B   4      49.557  -2.430  15.9650  0.00  0.00     0.000 C
ATOM     69  C5  IDS B   4      49.956  -1.797  17.3050  0.00  0.00     0.000 C
ATOM     70  O5  IDS B   4      50.487  -0.490  17.0690  0.00  0.00     0.000 O
ATOM     71   O  IDS B   4      51.600  -3.621  15.5760  0.00  0.00     0.000 O
ATOM     73  HD  IDS B   4      51.454  -2.829  15.2570  0.00  0.00     0.000 HD
BRANCH 66 73
ATOM     73   O  IDS B   4      51.015  -0.353  14.2270  0.00  0.00     0.000 O
ATOM     74   S  IDS B   4      51.959   0.556  13.2790  0.00  0.00     0.000 S
ATOM     75   O  IDS B   4      52.857   1.272  14.1610  0.00  0.00     0.000 OA
ATOM     76   O  IDS B   4      50.993   1.397  12.6180  0.00  0.00     0.000 OA
ATOM     77   O  IDS B   4      52.636  -0.372  12.4050  0.00  0.00     0.000 OA
ENDBRANCH 66 73
BRANCH 69 78
ATOM     78   C  IDS B   4      48.858  -1.808  18.3590  0.00  0.00     0.000 C
ATOM     79   O  IDS B   4      48.480  -2.889  18.8080  0.00  0.00     0.000 OA
ATOM     80   O  IDS B   4      48.452  -0.720  18.8090  0.00  0.00     0.000 OA
ENDBRANCH 69 78
BRANCH 65 81
ATOM     81  O4  SGN B   5      52.685  -1.341  17.2770  0.00  0.00     0.000 O
BRANCH 81 85
ATOM     82  C1  SGN B   5      54.633  -0.680  20.9380  0.00  0.00     0.000 C
ATOM     83  C2  SGN B   5      53.978  -2.055  20.7340  0.00  0.00     0.000 C
ATOM     84  C3  SGN B   5      53.739  -2.292  19.2370  0.00  0.00     0.000 C
ATOM     85  C4  SGN B   5      52.914  -1.148  18.6750  0.00  0.00     0.000 C
ATOM     86  C5  SGN B   5      53.673   0.154  18.9140  0.00  0.00     0.000 C
ATOM     87  O5  SGN B   5      53.850   0.331  20.3330  0.00  0.00     0.000 O
ATOM     88   O  SGN B   5      53.085  -3.528  19.0460  0.00  0.00     0.000 O
ATOM     90  HD  SGN B   5      53.930  -3.382  18.9230  0.00  0.00     0.000 HD
BRANCH 83 92
ATOM     90   N  SGN B   5      54.289  -2.133  22.1750  0.00  0.00     0.000 N
ATOM     92  HD  SGN B   5      53.826  -1.556  22.6250  0.00  0.00     0.000 HD
ATOM     92   S  SGN B   5      54.398  -3.581  22.8420  0.00  0.00     0.000 S
ATOM     93   O  SGN B   5      54.696  -3.316  24.2180  0.00  0.00     0.000 OA
ATOM     94   O  SGN B   5      53.197  -4.259  22.4910  0.00  0.00     0.000 OA
ATOM     95   O  SGN B   5      55.532  -4.260  22.1060  0.00  0.00     0.000 OA
ENDBRANCH 83 92
BRANCH 86 96
ATOM     96   C  SGN B   5      52.969   1.389  18.3900  0.00  0.00     0.000 C
ATOM     97   O  SGN B   5      53.768   2.554  18.6120  0.00  0.00     0.000 O
ATOM     98   S  SGN B   5      54.007   3.499  17.3390  0.00  0.00     0.000 S
ATOM     99   O  SGN B   5      54.650   4.655  17.9170  0.00  0.00     0.000 OA
ATOM    100   O  SGN B   5      54.807   2.777  16.4160  0.00  0.00     0.000 OA
ATOM    101   O  SGN B   5      52.696   3.769  16.8460  0.00  0.00     0.000 OA
ENDBRANCH 86 96
BRANCH 82 102
ATOM    102  O4  IDS B   6      55.912  -0.634  20.4700  0.00  0.00     0.000 O
BRANCH 102 106
ATOM    103  C1  IDS B   6      59.530  -0.489  20.8590  0.00  0.00     0.000 C
ATOM    104  C2  IDS B   6      58.676  -1.376  21.7790  0.00  0.00     0.000 C
ATOM    105  C3  IDS B   6      57.447  -0.703  22.3600  0.00  0.00     0.000 C
ATOM    106  C4  IDS B   6      56.729   0.177  21.3530  0.00  0.00     0.000 C
ATOM    107  C5  IDS B   6      57.752   0.991  20.5540  0.00  0.00     0.000 C
ATOM    108  O5  IDS B   6      58.707   0.152  19.9030  0.00  0.00     0.000 O
ATOM    109   O  IDS B   6      57.851   0.051  23.4910  0.00  0.00     0.000 O
ATOM    111  HD  IDS B   6      58.693   0.196  23.3550  0.00  0.00     0.000 HD
BRANCH 104 111
ATOM    111   O  IDS B   6      58.164  -2.517  21.0040  0.00  0.00     0.000 O
ATOM    112   S  IDS B   6      58.955  -3.905  21.0960  0.00  0.00     0.000 S
ATOM    113   O  IDS B   6      60.302  -3.589  20.6470  0.00  0.00     0.000 OA
ATOM    114   O  IDS B   6      58.870  -4.398  22.4760  0.00  0.00     0.000 OA
ATOM    115   O  IDS B   6      58.185  -4.677  20.1450  0.00  0.00     0.000 OA
ENDBRANCH 104 111
BRANCH 107 116
ATOM    116   C  IDS B   6      57.023   1.843  19.5230  0.00  0.00     0.000 C
ATOM    117   O  IDS B   6      56.846   1.348  18.4380  0.00  0.00     0.000 OA
ATOM    118   O  IDS B   6      56.649   2.975  19.7840  0.00  0.00     0.000 OA
ENDBRANCH 107 116
BRANCH 103 119
ATOM    119  O4  SGN B   7      60.297   0.224  21.7230  0.00  0.00     0.000 O
BRANCH 119 123
ATOM    120  C1  SGN B   7      63.896   2.317  21.3220  0.00  0.00     0.000 C
ATOM    121  C2  SGN B   7      62.605   3.142  21.4850  0.00  0.00     0.000 C
ATOM    122  C3  SGN B   7      61.467   2.261  22.0150  0.00  0.00     0.000 C
ATOM    123  C4  SGN B   7      61.308   1.038  21.1260  0.00  0.00     0.000 C
ATOM    124  C5  SGN B   7      62.647   0.290  21.0220  0.00  0.00     0.000 C
ATOM    125  O5  SGN B   7      63.688   1.157  20.5190  0.00  0.00     0.000 O
ATOM    126   O  SGN B   7      60.262   3.033  22.0600  0.00  0.00     0.000 O
ATOM    128  HD  SGN B   7      61.121   3.016  21.9540  0.00  0.00     0.000 HD
BRANCH 121 130
ATOM    128   N  SGN B   7      63.043   4.424  20.9280  0.00  0.00     0.000 N
ATOM    130  HD  SGN B   7      62.230   4.720  20.9490  0.00  0.00     0.000 HD
ATOM    130   S  SGN B   7      63.120   5.766  21.8160  0.00  0.00     0.000 S
ATOM    131   O  SGN B   7      63.854   5.401  22.9790  0.00  0.00     0.000 OA
ATOM    132   O  SGN B   7      63.570   6.825  20.9860  0.00  0.00     0.000 OA
ATOM    133   O  SGN B   7      61.594   6.050  22.0280  0.00  0.00     0.000 OA
ENDBRANCH 121 130
BRANCH 124 134
ATOM    134   C  SGN B   7      62.621  -0.870  20.0710  0.00  0.00     0.000 C
ATOM    135   O  SGN B   7      63.367  -0.515  18.8950  0.00  0.00     0.000 O
ATOM    136   S  SGN B   7      63.590  -1.654  17.8360  0.00  0.00     0.000 S
ATOM    137   O  SGN B   7      64.260  -1.040  16.7150  0.00  0.00     0.000 OA
ATOM    138   O  SGN B   7      62.266  -2.132  17.5100  0.00  0.00     0.000 OA
ATOM    139   O  SGN B   7      64.411  -2.605  18.5690  0.00  0.00     0.000 OA
ENDBRANCH 124 134
BRANCH 120 140
ATOM    140  O4  IDS B   8      64.652   1.774  22.2820  0.00  0.00     0.000 O
BRANCH 140 144
ATOM    141  C1  IDS B   8      66.719  -0.154  24.5120  0.00  0.00     0.000 C
ATOM    142  C2  IDS B   8      65.173  -0.321  24.5090  0.00  0.00     0.000 C
ATOM    143  C3  IDS B   8      64.420   1.021  24.5690  0.00  0.00     0.000 C
ATOM    144  C4  IDS B   8      65.032   2.063  23.6330  0.00  0.00     0.000 C
ATOM    145  C5  IDS B   8      66.562   2.058  23.7640  0.00  0.00     0.000 C
ATOM    146  O5  IDS B   8      67.110   0.768  23.5020  0.00  0.00     0.000 O
BRANCH 142 147
ATOM    147   O  IDS B   8      64.751  -1.007  23.2600  0.00  0.00     0.000 O
ATOM    148   S  IDS B   8      64.315  -2.570  23.2700  0.00  0.00     0.000 S
ATOM    149   O  IDS B   8      64.789  -3.149  24.5070  0.00  0.00     0.000 OA
ATOM    150   O  IDS B   8      62.868  -2.569  23.1680  0.00  0.00     0.000 OA
ATOM    151   O  IDS B   8      64.967  -3.155  22.1140  0.00  0.00     0.000 OA
ENDBRANCH 142 147
BRANCH 145 152
ATOM    152   C  IDS B   8      67.234   3.002  22.7880  0.00  0.00     0.000 C
ATOM    153   O  IDS B   8      67.995   2.553  21.9390  0.00  0.00     0.000 OA
ATOM    154   O  IDS B   8      66.995   4.195  22.8440  0.00  0.00     0.000 OA
ENDBRANCH 145 152
ENDBRANCH 140 144
ENDBRANCH 120 140
ENDBRANCH 119 123
ENDBRANCH 103 119
ENDBRANCH 102 106
ENDBRANCH 82 102
ENDBRANCH 81 85
ENDBRANCH 65 81
ENDBRANCH 64 68
ENDBRANCH 41 64
ENDBRANCH 40 44
ENDBRANCH 24 40
ENDBRANCH 23 27
ENDBRANCH 1 23
TORSDOF 31
ENDMDL
MODEL 20
REMARK VINA RESULT:      -8.0      6.574     12.356
ROOT
ATOM      1  C1  SGN B   1      32.134   3.628  11.3110  0.00  0.00     0.000 C
ATOM      2  C2  SGN B   1      30.791   3.996  11.9630  0.00  0.00     0.000 C
ATOM      3  C3  SGN B   1      30.292   2.855  12.8570  0.00  0.00     0.000 C
ATOM      4  C4  SGN B   1      30.202   1.560  12.0570  0.00  0.00     0.000 C
ATOM      5  C5  SGN B   1      31.522   1.333  11.3240  0.00  0.00     0.000 C
ATOM      6  O5  SGN B   1      31.831   2.487  10.5190  0.00  0.00     0.000 O
ATOM      7   O  SGN B   1      29.029   3.181  13.4240  0.00  0.00     0.000 O
ATOM      9  HD  SGN B   1      28.850   3.194  12.5770  0.00  0.00     0.000 HD
ATOM      9   O  SGN B   1      29.940   0.482  12.9360  0.00  0.00     0.000 O
ATOM     11  HD  SGN B   1      29.761   0.494  12.0890  0.00  0.00     0.000 HD
ENDROOT
BRANCH 2 13
ATOM     11   N  SGN B   1      30.471   5.360  11.5030  0.00  0.00     0.000 N
ATOM     13  HD  SGN B   1      31.267   5.166  11.7850  0.00  0.00     0.000 HD
ATOM     13   S  SGN B   1      31.235   6.659  12.0680  0.00  0.00     0.000 S
ATOM     14   O  SGN B   1      32.238   6.273  12.9810  0.00  0.00     0.000 OA
ATOM     15   O  SGN B   1      31.575   7.495  10.9660  0.00  0.00     0.000 OA
ATOM     16   O  SGN B   1      30.029   7.327  12.7970  0.00  0.00     0.000 OA
ENDBRANCH 2 13
BRANCH 5 17
ATOM     17   C  SGN B   1      31.518   0.134  10.4090  0.00  0.00     0.000 C
ATOM     18   O  SGN B   1      32.828  -0.464  10.3380  0.00  0.00     0.000 O
ATOM     19   S  SGN B   1      33.343  -0.854   8.8750  0.00  0.00     0.000 S
ATOM     20   O  SGN B   1      34.543  -1.633   9.0950  0.00  0.00     0.000 OA
ATOM     21   O  SGN B   1      32.254  -1.617   8.3100  0.00  0.00     0.000 OA
ATOM     22   O  SGN B   1      33.584   0.408   8.2110  0.00  0.00     0.000 OA
ENDBRANCH 5 17
BRANCH 1 23
ATOM     23  O4  IDS B   2      33.475   3.716  11.5390  0.00  0.00     0.000 O
BRANCH 23 27
ATOM     24  C1  IDS B   2      37.199   2.559  12.9630  0.00  0.00     0.000 C
ATOM     25  C2  IDS B   2      35.994   1.777  13.5330  0.00  0.00     0.000 C
ATOM     26  C3  IDS B   2      34.727   2.071  12.7350  0.00  0.00     0.000 C
ATOM     27  C4  IDS B   2      34.405   3.555  12.6320  0.00  0.00     0.000 C
ATOM     28  C5  IDS B   2      35.707   4.368  12.4860  0.00  0.00     0.000 C
ATOM     29  O5  IDS B   2      36.767   3.548  12.0190  0.00  0.00     0.000 O
ATOM     30   O  IDS B   2      33.620   1.434  13.3630  0.00  0.00     0.000 O
ATOM     32  HD  IDS B   2      33.323   1.867  14.0520  0.00  0.00     0.000 HD
BRANCH 25 32
ATOM     32   O  IDS B   2      36.213   0.310  13.5030  0.00  0.00     0.000 O
ATOM     33   S  IDS B   2      36.147  -0.609  14.8720  0.00  0.00     0.000 S
ATOM     34   O  IDS B   2      36.626  -1.930  14.4970  0.00  0.00     0.000 OA
ATOM     35   O  IDS B   2      36.988  -0.010  15.8980  0.00  0.00     0.000 OA
ATOM     36   O  IDS B   2      34.754  -0.643  15.2520  0.00  0.00     0.000 OA
ENDBRANCH 25 32
BRANCH 28 37
ATOM     37   C  IDS B   2      35.666   5.646  11.6220  0.00  0.00     0.000 C
ATOM     38   O  IDS B   2      36.055   5.460  10.4930  0.00  0.00     0.000 OA
ATOM     39   O  IDS B   2      35.227   6.772  11.9610  0.00  0.00     0.000 OA
ENDBRANCH 28 37
BRANCH 24 40
ATOM     40  O4  SUS B   3      38.399   2.484  13.5750  0.00  0.00     0.000 O
BRANCH 40 44
ATOM     41  C1  SUS B   3      42.194   2.440  11.8010  0.00  0.00     0.000 C
ATOM     42  C2  SUS B   3      41.734   3.761  12.4500  0.00  0.00     0.000 C
ATOM     43  C3  SUS B   3      40.600   3.472  13.4310  0.00  0.00     0.000 C
ATOM     44  C4  SUS B   3      39.495   2.725  12.7000  0.00  0.00     0.000 C
ATOM     45  C5  SUS B   3      40.047   1.409  12.1910  0.00  0.00     0.000 C
ATOM     46  O5  SUS B   3      41.101   1.696  11.2500  0.00  0.00     0.000 O
BRANCH 42 49
ATOM     47   N  SUS B   3      42.619   4.689  13.1750  0.00  0.00     0.000 N
ATOM     49  HD  SUS B   3      42.267   5.122  13.8370  0.00  0.00     0.000 HD
ATOM     49   S  SUS B   3      43.327   5.750  12.2060  0.00  0.00     0.000 S
ATOM     50   O  SUS B   3      42.351   6.482  11.5000  0.00  0.00     0.000 OA
ATOM     51   O  SUS B   3      43.959   6.619  13.3240  0.00  0.00     0.000 OA
ATOM     52   O  SUS B   3      44.328   5.102  11.4550  0.00  0.00     0.000 OA
ENDBRANCH 42 49
BRANCH 43 53
ATOM     53   O  SUS B   3      40.088   4.764  13.9280  0.00  0.00     0.000 O
ATOM     54   S  SUS B   3      40.236   5.059  15.5380  0.00  0.00     0.000 S
ATOM     55   O  SUS B   3      41.649   5.283  15.8130  0.00  0.00     0.000 OA
ATOM     56   O  SUS B   3      39.404   6.229  15.7590  0.00  0.00     0.000 OA
ATOM     57   O  SUS B   3      39.744   3.862  16.2260  0.00  0.00     0.000 OA
ENDBRANCH 43 53
BRANCH 45 58
ATOM     58   C  SUS B   3      38.978   0.561  11.5370  0.00  0.00     0.000 C
ATOM     59   S  SUS B   3      37.714   0.232   9.3280  0.00  0.00     0.000 S
ATOM     60   O  SUS B   3      38.921   0.866  10.1340  0.00  0.00     0.000 O
ATOM     61   O  SUS B   3      36.566   1.056   9.6550  0.00  0.00     0.000 OA
ATOM     62   O  SUS B   3      38.167   0.419   7.9760  0.00  0.00     0.000 OA
ATOM     63   O  SUS B   3      37.636  -1.119   9.7620  0.00  0.00     0.000 OA
ENDBRANCH 45 58
BRANCH 41 64
ATOM     64  O4  IDS B   4      43.035   1.698  12.5940  0.00  0.00     0.000 O
BRANCH 64 68
ATOM     65  C1  IDS B   4      46.386   0.487  13.3570  0.00  0.00     0.000 C
ATOM     66  C2  IDS B   4      46.196   1.778  12.5510  0.00  0.00     0.000 C
ATOM     67  C3  IDS B   4      45.174   1.674  11.4310  0.00  0.00     0.000 C
ATOM     68  C4  IDS B   4      43.945   0.878  11.8270  0.00  0.00     0.000 C
ATOM     69  C5  IDS B   4      44.409  -0.380  12.5710  0.00  0.00     0.000 C
ATOM     70  O5  IDS B   4      45.114   0.006  13.7540  0.00  0.00     0.000 O
ATOM     71   O  IDS B   4      45.814   1.052  10.3360  0.00  0.00     0.000 O
ATOM     73  HD  IDS B   4      45.779   1.474  11.0910  0.00  0.00     0.000 HD
BRANCH 66 73
ATOM     73   O  IDS B   4      45.689   2.825  13.4470  0.00  0.00     0.000 O
ATOM     74   S  IDS B   4      46.747   3.901  14.0310  0.00  0.00     0.000 S
ATOM     75   O  IDS B   4      47.776   3.139  14.7060  0.00  0.00     0.000 OA
ATOM     76   O  IDS B   4      45.919   4.681  14.9150  0.00  0.00     0.000 OA
ATOM     77   O  IDS B   4      47.235   4.625  12.8810  0.00  0.00     0.000 OA
ENDBRANCH 66 73
BRANCH 69 78
ATOM     78   C  IDS B   4      43.307  -1.394  12.8430  0.00  0.00     0.000 C
ATOM     79   O  IDS B   4      43.089  -2.270  12.0060  0.00  0.00     0.000 OA
ATOM     80   O  IDS B   4      42.734  -1.369  13.9480  0.00  0.00     0.000 OA
ENDBRANCH 69 78
BRANCH 65 81
ATOM     81  O4  SGN B   5      47.175  -0.374  12.6560  0.00  0.00     0.000 O
BRANCH 81 85
ATOM     82  C1  SGN B   5      48.773  -3.201  15.3190  0.00  0.00     0.000 C
ATOM     83  C2  SGN B   5      49.565  -1.898  15.1260  0.00  0.00     0.000 C
ATOM     84  C3  SGN B   5      48.649  -0.825  14.5220  0.00  0.00     0.000 C
ATOM     85  C4  SGN B   5      48.042  -1.353  13.2330  0.00  0.00     0.000 C
ATOM     86  C5  SGN B   5      47.266  -2.627  13.5550  0.00  0.00     0.000 C
ATOM     87  O5  SGN B   5      48.179  -3.599  14.0980  0.00  0.00     0.000 O
ATOM     88   O  SGN B   5      49.383   0.356  14.2880  0.00  0.00     0.000 O
ATOM     90  HD  SGN B   5      48.845   0.222  14.9540  0.00  0.00     0.000 HD
BRANCH 83 92
ATOM     90   N  SGN B   5      50.699  -2.661  15.6830  0.00  0.00     0.000 N
ATOM     92  HD  SGN B   5      51.077  -3.146  15.0720  0.00  0.00     0.000 HD
ATOM     92   S  SGN B   5      51.706  -1.902  16.6640  0.00  0.00     0.000 S
ATOM     93   O  SGN B   5      52.676  -2.895  17.0160  0.00  0.00     0.000 OA
ATOM     94   O  SGN B   5      52.109  -0.727  15.9700  0.00  0.00     0.000 OA
ATOM     95   O  SGN B   5      50.849  -1.465  17.8320  0.00  0.00     0.000 OA
ENDBRANCH 83 92
BRANCH 86 96
ATOM     96   C  SGN B   5      46.592  -3.262  12.3560  0.00  0.00     0.000 C
ATOM     97   O  SGN B   5      47.415  -3.140  11.1940  0.00  0.00     0.000 O
ATOM     98   S  SGN B   5      47.680  -4.490  10.3700  0.00  0.00     0.000 S
ATOM     99   O  SGN B   5      48.346  -4.013   9.1830  0.00  0.00     0.000 OA
ATOM    100   O  SGN B   5      48.466  -5.341  11.1890  0.00  0.00     0.000 OA
ATOM    101   O  SGN B   5      46.376  -5.012  10.1170  0.00  0.00     0.000 OA
ENDBRANCH 86 96
BRANCH 82 102
ATOM    102  O4  IDS B   6      47.829  -3.100  16.2960  0.00  0.00     0.000 O
BRANCH 102 106
ATOM    103  C1  IDS B   6      46.204  -3.942  19.4450  0.00  0.00     0.000 C
ATOM    104  C2  IDS B   6      47.720  -3.697  19.3830  0.00  0.00     0.000 C
ATOM    105  C3  IDS B   6      48.441  -4.410  18.2560  0.00  0.00     0.000 C
ATOM    106  C4  IDS B   6      47.663  -4.383  16.9520  0.00  0.00     0.000 C
ATOM    107  C5  IDS B   6      46.183  -4.667  17.2270  0.00  0.00     0.000 C
ATOM    108  O5  IDS B   6      45.629  -3.745  18.1670  0.00  0.00     0.000 O
ATOM    109   O  IDS B   6      48.691  -5.745  18.6660  0.00  0.00     0.000 O
ATOM    111  HD  IDS B   6      48.096  -5.889  19.2790  0.00  0.00     0.000 HD
BRANCH 104 111
ATOM    111   O  IDS B   6      47.966  -2.265  19.1560  0.00  0.00     0.000 O
ATOM    112   S  IDS B   6      48.393  -1.366  20.4110  0.00  0.00     0.000 S
ATOM    113   O  IDS B   6      47.300  -1.519  21.3590  0.00  0.00     0.000 OA
ATOM    114   O  IDS B   6      49.695  -1.836  20.8960  0.00  0.00     0.000 OA
ATOM    115   O  IDS B   6      48.435  -0.071  19.7670  0.00  0.00     0.000 OA
ENDBRANCH 104 111
BRANCH 107 116
ATOM    116   C  IDS B   6      45.406  -4.602  15.9190  0.00  0.00     0.000 C
ATOM    117   O  IDS B   6      44.630  -3.688  15.7940  0.00  0.00     0.000 OA
ATOM    118   O  IDS B   6      45.558  -5.442  15.0460  0.00  0.00     0.000 OA
ENDBRANCH 107 116
BRANCH 103 119
ATOM    119  O4  SGN B   7      46.097  -5.130  20.0920  0.00  0.00     0.000 O
BRANCH 119 123
ATOM    120  C1  SGN B   7      42.953  -7.674  21.1580  0.00  0.00     0.000 C
ATOM    121  C2  SGN B   7      43.664  -7.941  19.8180  0.00  0.00     0.000 C
ATOM    122  C3  SGN B   7      45.010  -7.207  19.7670  0.00  0.00     0.000 C
ATOM    123  C4  SGN B   7      44.802  -5.732  20.0710  0.00  0.00     0.000 C
ATOM    124  C5  SGN B   7      44.082  -5.573  21.4200  0.00  0.00     0.000 C
ATOM    125  O5  SGN B   7      42.821  -6.278  21.4220  0.00  0.00     0.000 O
ATOM    126   O  SGN B   7      45.595  -7.396  18.4740  0.00  0.00     0.000 O
ATOM    128  HD  SGN B   7      44.978  -7.614  19.0410  0.00  0.00     0.000 HD
BRANCH 121 130
ATOM    128   N  SGN B   7      42.602  -8.751  19.2150  0.00  0.00     0.000 N
ATOM    130  HD  SGN B   7      42.961  -8.652  18.4330  0.00  0.00     0.000 HD
ATOM    130   S  SGN B   7      42.858 -10.252  18.6920  0.00  0.00     0.000 S
ATOM    131   O  SGN B   7      43.500 -10.918  19.7740  0.00  0.00     0.000 OA
ATOM    132   O  SGN B   7      41.643 -10.754  18.1610  0.00  0.00     0.000 OA
ATOM    133   O  SGN B   7      43.750  -9.965  17.4370  0.00  0.00     0.000 OA
ENDBRANCH 121 130
BRANCH 124 134
ATOM    134   C  SGN B   7      43.728  -4.154  21.7550  0.00  0.00     0.000 C
ATOM    135   O  SGN B   7      42.555  -4.159  22.5860  0.00  0.00     0.000 O
ATOM    136   S  SGN B   7      42.108  -2.772  23.1740  0.00  0.00     0.000 S
ATOM    137   O  SGN B   7      40.868  -3.009  23.8750  0.00  0.00     0.000 OA
ATOM    138   O  SGN B   7      41.951  -1.907  22.0270  0.00  0.00     0.000 OA
ATOM    139   O  SGN B   7      43.223  -2.427  24.0420  0.00  0.00     0.000 OA
ENDBRANCH 124 134
BRANCH 120 140
ATOM    140  O4  IDS B   8      43.316  -8.084  22.3780  0.00  0.00     0.000 O
BRANCH 140 144
ATOM    141  C1  IDS B   8      45.118  -9.977  24.8540  0.00  0.00     0.000 C
ATOM    142  C2  IDS B   8      44.692 -10.625  23.5060  0.00  0.00     0.000 C
ATOM    143  C3  IDS B   8      43.214 -10.372  23.1560  0.00  0.00     0.000 C
ATOM    144  C4  IDS B   8      42.802  -8.924  23.4190  0.00  0.00     0.000 C
ATOM    145  C5  IDS B   8      43.336  -8.462  24.7830  0.00  0.00     0.000 C
ATOM    146  O5  IDS B   8      44.752  -8.602  24.8700  0.00  0.00     0.000 O
BRANCH 142 147
ATOM    147   O  IDS B   8      45.509 -10.057  22.4030  0.00  0.00     0.000 O
ATOM    148   S  IDS B   8      46.886 -10.772  21.9280  0.00  0.00     0.000 S
ATOM    149   O  IDS B   8      47.282 -11.694  22.9680  0.00  0.00     0.000 OA
ATOM    150   O  IDS B   8      46.565 -11.438  20.6790  0.00  0.00     0.000 OA
ATOM    151   O  IDS B   8      47.841  -9.692  21.7680  0.00  0.00     0.000 OA
ENDBRANCH 142 147
BRANCH 145 152
ATOM    152   C  IDS B   8      43.045  -7.000  25.0580  0.00  0.00     0.000 C
ATOM    153   O  IDS B   8      41.890  -6.593  24.9990  0.00  0.00     0.000 OA
ATOM    154   O  IDS B   8      43.957  -6.250  25.3560  0.00  0.00     0.000 OA
ENDBRANCH 145 152
ENDBRANCH 140 144
ENDBRANCH 120 140
ENDBRANCH 119 123
ENDBRANCH 103 119
ENDBRANCH 102 106
ENDBRANCH 82 102
ENDBRANCH 81 85
ENDBRANCH 65 81
ENDBRANCH 64 68
ENDBRANCH 41 64
ENDBRANCH 40 44
ENDBRANCH 24 40
ENDBRANCH 23 27
ENDBRANCH 1 23
TORSDOF 31
ENDMDL
MODEL 21
REMARK VINA RESULT:      -7.8      3.802      7.325
ROOT
ATOM      1  C1  SGN B   1      34.407   1.705  10.7840  0.00  0.00     0.000 C
ATOM      2  C2  SGN B   1      32.953   2.172  10.9590  0.00  0.00     0.000 C
ATOM      3  C3  SGN B   1      31.989   0.983  10.8840  0.00  0.00     0.000 C
ATOM      4  C4  SGN B   1      32.191   0.222   9.5780  0.00  0.00     0.000 C
ATOM      5  C5  SGN B   1      33.677  -0.083   9.4030  0.00  0.00     0.000 C
ATOM      6  O5  SGN B   1      34.433   1.141   9.4800  0.00  0.00     0.000 O
ATOM      7   O  SGN B   1      30.641   1.423  11.0020  0.00  0.00     0.000 O
ATOM      9  HD  SGN B   1      30.899   1.834  10.2850  0.00  0.00     0.000 HD
ATOM      9   O  SGN B   1      31.446  -0.981   9.6130  0.00  0.00     0.000 O
ATOM     11  HD  SGN B   1      31.703  -0.570   8.8960  0.00  0.00     0.000 HD
ENDROOT
BRANCH 2 13
ATOM     11   N  SGN B   1      33.001   3.631  11.1720  0.00  0.00     0.000 N
ATOM     13  HD  SGN B   1      33.550   3.107  11.5900  0.00  0.00     0.000 HD
ATOM     13   S  SGN B   1      33.510   4.281  12.5530  0.00  0.00     0.000 S
ATOM     14   O  SGN B   1      33.925   3.268  13.4430  0.00  0.00     0.000 OA
ATOM     15   O  SGN B   1      34.399   5.351  12.2460  0.00  0.00     0.000 OA
ATOM     16   O  SGN B   1      32.162   4.919  13.0090  0.00  0.00     0.000 OA
ENDBRANCH 2 13
BRANCH 5 17
ATOM     17   C  SGN B   1      34.018  -0.740   8.0880  0.00  0.00     0.000 C
ATOM     18   O  SGN B   1      35.302  -1.392   8.1560  0.00  0.00     0.000 O
ATOM     19   S  SGN B   1      36.280  -1.147   6.9150  0.00  0.00     0.000 S
ATOM     20   O  SGN B   1      37.373  -2.076   7.1090  0.00  0.00     0.000 OA
ATOM     21   O  SGN B   1      35.465  -1.446   5.7600  0.00  0.00     0.000 OA
ATOM     22   O  SGN B   1      36.674   0.241   7.0130  0.00  0.00     0.000 OA
ENDBRANCH 5 17
BRANCH 1 23
ATOM     23  O4  IDS B   2      35.471   1.273  11.5200  0.00  0.00     0.000 O
BRANCH 23 27
ATOM     24  C1  IDS B   2      38.902  -0.555  12.9750  0.00  0.00     0.000 C
ATOM     25  C2  IDS B   2      38.828  -0.401  11.4400  0.00  0.00     0.000 C
ATOM     26  C3  IDS B   2      37.690   0.535  11.0390  0.00  0.00     0.000 C
ATOM     27  C4  IDS B   2      36.338   0.123  11.6040  0.00  0.00     0.000 C
ATOM     28  C5  IDS B   2      36.512  -0.441  13.0290  0.00  0.00     0.000 C
ATOM     29  O5  IDS B   2      37.735  -0.005  13.6020  0.00  0.00     0.000 O
ATOM     30   O  IDS B   2      37.576   0.552   9.6210  0.00  0.00     0.000 O
ATOM     32  HD  IDS B   2      37.160  -0.138   9.3030  0.00  0.00     0.000 HD
BRANCH 25 32
ATOM     32   O  IDS B   2      40.082   0.150  10.8700  0.00  0.00     0.000 O
ATOM     33   S  IDS B   2      40.433   1.761  10.9300  0.00  0.00     0.000 S
ATOM     34   O  IDS B   2      41.606   1.952  10.0910  0.00  0.00     0.000 OA
ATOM     35   O  IDS B   2      39.296   2.523  10.4360  0.00  0.00     0.000 OA
ATOM     36   O  IDS B   2      40.726   2.045  12.3160  0.00  0.00     0.000 OA
ENDBRANCH 25 32
BRANCH 28 37
ATOM     37   C  IDS B   2      35.382  -0.187  14.0480  0.00  0.00     0.000 C
ATOM     38   O  IDS B   2      34.363  -0.776  13.7730  0.00  0.00     0.000 OA
ATOM     39   O  IDS B   2      35.455   0.488  15.1040  0.00  0.00     0.000 OA
ENDBRANCH 28 37
BRANCH 24 40
ATOM     40  O4  SUS B   3      39.802  -1.397  13.5240  0.00  0.00     0.000 O
BRANCH 40 44
ATOM     41  C1  SUS B   3      41.992  -1.077  17.0800  0.00  0.00     0.000 C
ATOM     42  C2  SUS B   3      40.456  -1.120  17.2000  0.00  0.00     0.000 C
ATOM     43  C3  SUS B   3      39.867  -1.708  15.9190  0.00  0.00     0.000 C
ATOM     44  C4  SUS B   3      40.373  -0.905  14.7310  0.00  0.00     0.000 C
ATOM     45  C5  SUS B   3      41.882  -1.017  14.6700  0.00  0.00     0.000 C
ATOM     46  O5  SUS B   3      42.426  -0.438  15.8740  0.00  0.00     0.000 O
BRANCH 42 49
ATOM     47   N  SUS B   3      40.229  -1.792  18.4910  0.00  0.00     0.000 N
ATOM     49  HD  SUS B   3      39.804  -2.547  18.4650  0.00  0.00     0.000 HD
ATOM     49   S  SUS B   3      39.501  -0.848  19.5600  0.00  0.00     0.000 S
ATOM     50   O  SUS B   3      38.272  -0.393  19.0400  0.00  0.00     0.000 OA
ATOM     51   O  SUS B   3      39.269  -1.939  20.6360  0.00  0.00     0.000 OA
ATOM     52   O  SUS B   3      40.412   0.122  20.0230  0.00  0.00     0.000 OA
ENDBRANCH 42 49
BRANCH 43 53
ATOM     53   O  SUS B   3      38.398  -1.607  16.0050  0.00  0.00     0.000 O
ATOM     54   S  SUS B   3      37.559  -3.008  16.1910  0.00  0.00     0.000 S
ATOM     55   O  SUS B   3      37.807  -3.489  17.5430  0.00  0.00     0.000 OA
ATOM     56   O  SUS B   3      36.179  -2.626  15.9490  0.00  0.00     0.000 OA
ATOM     57   O  SUS B   3      38.084  -3.942  15.1910  0.00  0.00     0.000 OA
ENDBRANCH 43 53
BRANCH 45 58
ATOM     58   C  SUS B   3      42.453  -0.324  13.4530  0.00  0.00     0.000 C
ATOM     59   S  SUS B   3      44.478   1.033  12.6480  0.00  0.00     0.000 S
ATOM     60   O  SUS B   3      43.798   0.099  13.7320  0.00  0.00     0.000 O
ATOM     61   O  SUS B   3      43.912   2.349  12.8730  0.00  0.00     0.000 OA
ATOM     62   O  SUS B   3      45.857   0.945  13.0460  0.00  0.00     0.000 OA
ATOM     63   O  SUS B   3      44.169   0.445  11.3930  0.00  0.00     0.000 OA
ENDBRANCH 45 58
BRANCH 41 64
ATOM     64  O4  IDS B   4      42.600  -2.284  17.3260  0.00  0.00     0.000 O
BRANCH 64 68
ATOM     65  C1  IDS B   4      44.898  -4.787  18.6410  0.00  0.00     0.000 C
ATOM     66  C2  IDS B   4      43.829  -4.166  19.5500  0.00  0.00     0.000 C
ATOM     67  C3  IDS B   4      43.725  -2.654  19.4540  0.00  0.00     0.000 C
ATOM     68  C4  IDS B   4      43.853  -2.143  18.0310  0.00  0.00     0.000 C
ATOM     69  C5  IDS B   4      45.018  -2.884  17.3610  0.00  0.00     0.000 C
ATOM     70  O5  IDS B   4      44.728  -4.284  17.3280  0.00  0.00     0.000 O
ATOM     71   O  IDS B   4      44.757  -2.110  20.2510  0.00  0.00     0.000 O
ATOM     73  HD  IDS B   4      44.217  -2.730  19.9760  0.00  0.00     0.000 HD
BRANCH 66 73
ATOM     73   O  IDS B   4      42.512  -4.676  19.1460  0.00  0.00     0.000 O
ATOM     74   S  IDS B   4      41.634  -5.467  20.2510  0.00  0.00     0.000 S
ATOM     75   O  IDS B   4      42.456  -6.562  20.7210  0.00  0.00     0.000 OA
ATOM     76   O  IDS B   4      40.489  -5.881  19.4800  0.00  0.00     0.000 OA
ATOM     77   O  IDS B   4      41.338  -4.495  21.2770  0.00  0.00     0.000 OA
ENDBRANCH 66 73
BRANCH 69 78
ATOM     78   C  IDS B   4      45.417  -2.330  16.0000  0.00  0.00     0.000 C
ATOM     79   O  IDS B   4      46.393  -1.584  15.9290  0.00  0.00     0.000 OA
ATOM     80   O  IDS B   4      44.810  -2.733  14.9910  0.00  0.00     0.000 OA
ENDBRANCH 69 78
BRANCH 65 81
ATOM     81  O4  SGN B   5      46.126  -4.622  19.2070  0.00  0.00     0.000 O
BRANCH 81 85
ATOM     82  C1  SGN B   5      48.862  -7.311  17.5000  0.00  0.00     0.000 C
ATOM     83  C2  SGN B   5      47.941  -7.858  18.6020  0.00  0.00     0.000 C
ATOM     84  C3  SGN B   5      46.736  -6.923  18.7740  0.00  0.00     0.000 C
ATOM     85  C4  SGN B   5      47.231  -5.514  19.0530  0.00  0.00     0.000 C
ATOM     86  C5  SGN B   5      48.111  -5.075  17.8850  0.00  0.00     0.000 C
ATOM     87  O5  SGN B   5      49.231  -5.976  17.7860  0.00  0.00     0.000 O
ATOM     88   O  SGN B   5      45.915  -7.387  19.8230  0.00  0.00     0.000 O
ATOM     90  HD  SGN B   5      45.757  -7.492  18.9780  0.00  0.00     0.000 HD
BRANCH 83 92
ATOM     90   N  SGN B   5      48.872  -8.993  18.4480  0.00  0.00     0.000 N
ATOM     92  HD  SGN B   5      49.679  -8.764  18.6650  0.00  0.00     0.000 HD
ATOM     92   S  SGN B   5      48.407 -10.425  18.9830  0.00  0.00     0.000 S
ATOM     93   O  SGN B   5      49.513 -11.287  18.6960  0.00  0.00     0.000 OA
ATOM     94   O  SGN B   5      47.993 -10.218  20.3280  0.00  0.00     0.000 OA
ATOM     95   O  SGN B   5      47.169 -10.753  18.1760  0.00  0.00     0.000 OA
ENDBRANCH 83 92
BRANCH 86 96
ATOM     96   C  SGN B   5      48.669  -3.674  18.0220  0.00  0.00     0.000 C
ATOM     97   O  SGN B   5      49.960  -3.705  18.6360  0.00  0.00     0.000 O
ATOM     98   S  SGN B   5      51.124  -2.906  17.8740  0.00  0.00     0.000 S
ATOM     99   O  SGN B   5      52.213  -2.954  18.8200  0.00  0.00     0.000 OA
ATOM    100   O  SGN B   5      51.372  -3.579  16.6500  0.00  0.00     0.000 OA
ATOM    101   O  SGN B   5      50.592  -1.595  17.6900  0.00  0.00     0.000 OA
ENDBRANCH 86 96
BRANCH 82 102
ATOM    102  O4  IDS B   6      48.302  -7.394  16.2600  0.00  0.00     0.000 O
BRANCH 102 106
ATOM    103  C1  IDS B   6      48.953  -8.353  12.8080  0.00  0.00     0.000 C
ATOM    104  C2  IDS B   6      49.854  -8.857  13.9470  0.00  0.00     0.000 C
ATOM    105  C3  IDS B   6      50.303  -7.792  14.9300  0.00  0.00     0.000 C
ATOM    106  C4  IDS B   6      49.197  -6.812  15.2780  0.00  0.00     0.000 C
ATOM    107  C5  IDS B   6      48.433  -6.421  14.0090  0.00  0.00     0.000 C
ATOM    108  O5  IDS B   6      47.904  -7.563  13.3340  0.00  0.00     0.000 O
ATOM    109   O  IDS B   6      51.417  -7.117  14.3700  0.00  0.00     0.000 O
ATOM    111  HD  IDS B   6      51.337  -7.252  13.5190  0.00  0.00     0.000 HD
BRANCH 104 111
ATOM    111   O  IDS B   6      49.108  -9.837  14.7500  0.00  0.00     0.000 O
ATOM    112   S  IDS B   6      49.192 -11.379  14.3260  0.00  0.00     0.000 S
ATOM    113   O  IDS B   6      48.699 -11.409  12.9570  0.00  0.00     0.000 OA
ATOM    114   O  IDS B   6      50.579 -11.830  14.4870  0.00  0.00     0.000 OA
ATOM    115   O  IDS B   6      48.274 -11.938  15.2940  0.00  0.00     0.000 OA
ENDBRANCH 104 111
BRANCH 107 116
ATOM    116   C  IDS B   6      47.304  -5.467  14.3740  0.00  0.00     0.000 C
ATOM    117   O  IDS B   6      47.622  -4.354  14.7100  0.00  0.00     0.000 OA
ATOM    118   O  IDS B   6      46.136  -5.820  14.3360  0.00  0.00     0.000 OA
ENDBRANCH 107 116
BRANCH 103 119
ATOM    119  O4  SGN B   7      49.831  -7.850  11.9030  0.00  0.00     0.000 O
BRANCH 119 123
ATOM    120  C1  SGN B   7      49.725  -6.733   7.8740  0.00  0.00     0.000 C
ATOM    121  C2  SGN B   7      48.839  -5.944   8.8570  0.00  0.00     0.000 C
ATOM    122  C3  SGN B   7      49.286  -6.194  10.3030  0.00  0.00     0.000 C
ATOM    123  C4  SGN B   7      49.328  -7.688  10.5760  0.00  0.00     0.000 C
ATOM    124  C5  SGN B   7      50.228  -8.383   9.5420  0.00  0.00     0.000 C
ATOM    125  O5  SGN B   7      49.771  -8.122   8.1960  0.00  0.00     0.000 O
ATOM    126   O  SGN B   7      48.382  -5.526  11.1910  0.00  0.00     0.000 O
ATOM    128  HD  SGN B   7      48.657  -5.653  10.3800  0.00  0.00     0.000 HD
BRANCH 121 130
ATOM    128   N  SGN B   7      48.804  -4.495   8.6460  0.00  0.00     0.000 N
ATOM    130  HD  SGN B   7      49.116  -4.596   7.8440  0.00  0.00     0.000 HD
ATOM    130   S  SGN B   7      47.713  -3.791   7.6930  0.00  0.00     0.000 S
ATOM    131   O  SGN B   7      46.458  -4.306   8.1210  0.00  0.00     0.000 OA
ATOM    132   O  SGN B   7      47.953  -2.393   7.6970  0.00  0.00     0.000 OA
ATOM    133   O  SGN B   7      48.212  -4.274   6.2890  0.00  0.00     0.000 OA
ENDBRANCH 121 130
BRANCH 124 134
ATOM    134   C  SGN B   7      50.243  -9.879   9.6580  0.00  0.00     0.000 C
ATOM    135   O  SGN B   7      51.274 -10.395   8.7990  0.00  0.00     0.000 O
ATOM    136   S  SGN B   7      51.555 -11.938   8.8910  0.00  0.00     0.000 S
ATOM    137   O  SGN B   7      52.540 -12.232   7.8770  0.00  0.00     0.000 OA
ATOM    138   O  SGN B   7      50.280 -12.570   8.6400  0.00  0.00     0.000 OA
ATOM    139   O  SGN B   7      52.045 -12.086  10.2520  0.00  0.00     0.000 OA
ENDBRANCH 124 134
BRANCH 120 140
ATOM    140  O4  IDS B   8      51.019  -6.540   7.5950  0.00  0.00     0.000 O
BRANCH 140 144
ATOM    141  C1  IDS B   8      54.202  -4.872   7.8140  0.00  0.00     0.000 C
ATOM    142  C2  IDS B   8      52.872  -4.066   7.8560  0.00  0.00     0.000 C
ATOM    143  C3  IDS B   8      51.894  -4.457   6.7320  0.00  0.00     0.000 C
ATOM    144  C4  IDS B   8      51.811  -5.971   6.5460  0.00  0.00     0.000 C
ATOM    145  C5  IDS B   8      53.220  -6.584   6.5570  0.00  0.00     0.000 C
ATOM    146  O5  IDS B   8      53.924  -6.266   7.7550  0.00  0.00     0.000 O
BRANCH 142 147
ATOM    147   O  IDS B   8      52.181  -4.317   9.1480  0.00  0.00     0.000 O
ATOM    148   S  IDS B   8      51.934  -3.117  10.2110  0.00  0.00     0.000 S
ATOM    149   O  IDS B   8      52.805  -2.022   9.8460  0.00  0.00     0.000 OA
ATOM    150   O  IDS B   8      50.528  -2.779  10.0950  0.00  0.00     0.000 OA
ATOM    151   O  IDS B   8      52.281  -3.676  11.5040  0.00  0.00     0.000 OA
ENDBRANCH 142 147
BRANCH 145 152
ATOM    152   C  IDS B   8      53.199  -8.097   6.4750  0.00  0.00     0.000 C
ATOM    153   O  IDS B   8      52.638  -8.643   5.5310  0.00  0.00     0.000 OA
ATOM    154   O  IDS B   8      53.756  -8.754   7.3350  0.00  0.00     0.000 OA
ENDBRANCH 145 152
ENDBRANCH 140 144
ENDBRANCH 120 140
ENDBRANCH 119 123
ENDBRANCH 103 119
ENDBRANCH 102 106
ENDBRANCH 82 102
ENDBRANCH 81 85
ENDBRANCH 65 81
ENDBRANCH 64 68
ENDBRANCH 41 64
ENDBRANCH 40 44
ENDBRANCH 24 40
ENDBRANCH 23 27
ENDBRANCH 1 23
TORSDOF 31
ENDMDL
MODEL 22
REMARK VINA RESULT:      -7.7     11.610     16.766
ROOT
ATOM      1  C1  SGN B   1      49.664  -2.357  33.6490  0.00  0.00     0.000 C
ATOM      2  C2  SGN B   1      50.350  -1.039  33.2540  0.00  0.00     0.000 C
ATOM      3  C3  SGN B   1      50.378  -0.877  31.7310  0.00  0.00     0.000 C
ATOM      4  C4  SGN B   1      51.048  -2.085  31.0850  0.00  0.00     0.000 C
ATOM      5  C5  SGN B   1      50.411  -3.360  31.6300  0.00  0.00     0.000 C
ATOM      6  O5  SGN B   1      50.487  -3.360  33.0690  0.00  0.00     0.000 O
ATOM      7   O  SGN B   1      51.053   0.322  31.3670  0.00  0.00     0.000 O
ATOM      9  HD  SGN B   1      51.677  -0.113  31.7800  0.00  0.00     0.000 HD
ATOM      9   O  SGN B   1      50.884  -2.019  29.6800  0.00  0.00     0.000 O
ATOM     11  HD  SGN B   1      51.509  -2.454  30.0930  0.00  0.00     0.000 HD
ENDROOT
BRANCH 2 13
ATOM     11   N  SGN B   1      50.710  -0.429  34.5490  0.00  0.00     0.000 N
ATOM     13  HD  SGN B   1      49.905  -0.715  34.4050  0.00  0.00     0.000 HD
ATOM     13   S  SGN B   1      49.634   0.340  35.4650  0.00  0.00     0.000 S
ATOM     14   O  SGN B   1      48.357   0.280  34.8680  0.00  0.00     0.000 OA
ATOM     15   O  SGN B   1      49.798  -0.093  36.8120  0.00  0.00     0.000 OA
ATOM     16   O  SGN B   1      50.240   1.774  35.3650  0.00  0.00     0.000 OA
ENDBRANCH 2 13
BRANCH 5 17
ATOM     17   C  SGN B   1      51.066  -4.630  31.1460  0.00  0.00     0.000 C
ATOM     18   O  SGN B   1      50.666  -4.932  29.7940  0.00  0.00     0.000 O
ATOM     19   S  SGN B   1      50.262  -6.452  29.5060  0.00  0.00     0.000 S
ATOM     20   O  SGN B   1      50.136  -6.540  28.0660  0.00  0.00     0.000 OA
ATOM     21   O  SGN B   1      51.365  -7.218  30.0380  0.00  0.00     0.000 OA
ATOM     22   O  SGN B   1      49.014  -6.651  30.2100  0.00  0.00     0.000 OA
ENDBRANCH 5 17
BRANCH 1 23
ATOM     23  O4  IDS B   2      48.430  -2.854  33.9450  0.00  0.00     0.000 O
BRANCH 23 27
ATOM     24  C1  IDS B   2      46.196  -3.965  30.6280  0.00  0.00     0.000 C
ATOM     25  C2  IDS B   2      46.042  -2.494  31.0740  0.00  0.00     0.000 C
ATOM     26  C3  IDS B   2      47.112  -2.118  32.0950  0.00  0.00     0.000 C
ATOM     27  C4  IDS B   2      47.153  -3.046  33.3020  0.00  0.00     0.000 C
ATOM     28  C5  IDS B   2      46.872  -4.497  32.8610  0.00  0.00     0.000 C
ATOM     29  O5  IDS B   2      47.121  -4.663  31.4730  0.00  0.00     0.000 O
ATOM     30   O  IDS B   2      46.861  -0.802  32.5730  0.00  0.00     0.000 O
ATOM     32  HD  IDS B   2      46.236  -0.769  33.1710  0.00  0.00     0.000 HD
BRANCH 25 32
ATOM     32   O  IDS B   2      46.155  -1.548  29.9370  0.00  0.00     0.000 O
ATOM     33   S  IDS B   2      44.953  -0.478  29.5710  0.00  0.00     0.000 S
ATOM     34   O  IDS B   2      45.311   0.110  28.2900  0.00  0.00     0.000 OA
ATOM     35   O  IDS B   2      43.682  -1.184  29.4960  0.00  0.00     0.000 OA
ATOM     36   O  IDS B   2      44.974   0.508  30.6270  0.00  0.00     0.000 OA
ENDBRANCH 25 32
BRANCH 28 37
ATOM     37   C  IDS B   2      47.588  -5.632  33.6210  0.00  0.00     0.000 C
ATOM     38   O  IDS B   2      46.889  -6.606  33.7750  0.00  0.00     0.000 OA
ATOM     39   O  IDS B   2      48.782  -5.646  34.0090  0.00  0.00     0.000 OA
ENDBRANCH 28 37
BRANCH 24 40
ATOM     40  O4  SUS B   3      45.301  -4.508  29.7760  0.00  0.00     0.000 O
BRANCH 40 44
ATOM     41  C1  SUS B   3      46.036  -7.279  26.7230  0.00  0.00     0.000 C
ATOM     42  C2  SUS B   3      45.349  -7.803  28.0000  0.00  0.00     0.000 C
ATOM     43  C3  SUS B   3      44.740  -6.628  28.7610  0.00  0.00     0.000 C
ATOM     44  C4  SUS B   3      45.825  -5.595  29.0220  0.00  0.00     0.000 C
ATOM     45  C5  SUS B   3      46.355  -5.094  27.6950  0.00  0.00     0.000 C
ATOM     46  O5  SUS B   3      46.946  -6.208  26.9960  0.00  0.00     0.000 O
BRANCH 42 49
ATOM     47   N  SUS B   3      45.137  -8.957  28.8890  0.00  0.00     0.000 N
ATOM     49  HD  SUS B   3      45.745  -9.101  29.4880  0.00  0.00     0.000 HD
ATOM     49   S  SUS B   3      44.898 -10.322  28.0850  0.00  0.00     0.000 S
ATOM     50   O  SUS B   3      45.992 -10.575  27.2330  0.00  0.00     0.000 OA
ATOM     51   O  SUS B   3      44.933 -11.264  29.3150  0.00  0.00     0.000 OA
ATOM     52   O  SUS B   3      43.612 -10.305  27.5080  0.00  0.00     0.000 OA
ENDBRANCH 42 49
BRANCH 43 53
ATOM     53   O  SUS B   3      44.214  -7.139  30.0420  0.00  0.00     0.000 O
ATOM     54   S  SUS B   3      42.583  -7.131  30.2400  0.00  0.00     0.000 S
ATOM     55   O  SUS B   3      42.032  -8.161  29.3710  0.00  0.00     0.000 OA
ATOM     56   O  SUS B   3      42.399  -7.398  31.6550  0.00  0.00     0.000 OA
ATOM     57   O  SUS B   3      42.123  -5.797  29.8400  0.00  0.00     0.000 OA
ENDBRANCH 43 53
BRANCH 45 58
ATOM     58   C  SUS B   3      47.371  -3.988  27.8710  0.00  0.00     0.000 C
ATOM     59   S  SUS B   3      49.066  -2.559  26.5780  0.00  0.00     0.000 S
ATOM     60   O  SUS B   3      47.839  -3.560  26.5810  0.00  0.00     0.000 O
ATOM     61   O  SUS B   3      50.230  -3.385  26.8360  0.00  0.00     0.000 OA
ATOM     62   O  SUS B   3      49.015  -2.077  25.2240  0.00  0.00     0.000 OA
ATOM     63   O  SUS B   3      48.772  -1.594  27.5780  0.00  0.00     0.000 OA
ENDBRANCH 45 58
BRANCH 41 64
ATOM     64  O4  IDS B   4      45.167  -7.028  25.6890  0.00  0.00     0.000 O
BRANCH 64 68
ATOM     65  C1  IDS B   4      44.698  -7.744  22.1480  0.00  0.00     0.000 C
ATOM     66  C2  IDS B   4      45.778  -8.482  22.9490  0.00  0.00     0.000 C
ATOM     67  C3  IDS B   4      46.633  -7.584  23.8270  0.00  0.00     0.000 C
ATOM     68  C4  IDS B   4      45.830  -6.499  24.5200  0.00  0.00     0.000 C
ATOM     69  C5  IDS B   4      44.865  -5.890  23.4940  0.00  0.00     0.000 C
ATOM     70  O5  IDS B   4      43.972  -6.905  23.0280  0.00  0.00     0.000 O
ATOM     71   O  IDS B   4      47.613  -6.995  22.9960  0.00  0.00     0.000 O
ATOM     73  HD  IDS B   4      47.006  -7.575  23.2090  0.00  0.00     0.000 HD
BRANCH 66 73
ATOM     73   O  IDS B   4      45.124  -9.422  23.8700  0.00  0.00     0.000 O
ATOM     74   S  IDS B   4      44.798 -10.911  23.3280  0.00  0.00     0.000 S
ATOM     75   O  IDS B   4      43.984 -10.747  22.1420  0.00  0.00     0.000 OA
ATOM     76   O  IDS B   4      44.096 -11.486  24.4470  0.00  0.00     0.000 OA
ATOM     77   O  IDS B   4      46.082 -11.514  23.0600  0.00  0.00     0.000 OA
ENDBRANCH 66 73
BRANCH 69 78
ATOM     78   C  IDS B   4      44.141  -4.640  23.9750  0.00  0.00     0.000 C
ATOM     79   O  IDS B   4      44.682  -3.935  24.8250  0.00  0.00     0.000 OA
ATOM     80   O  IDS B   4      43.078  -4.315  23.4160  0.00  0.00     0.000 OA
ENDBRANCH 69 78
BRANCH 65 81
ATOM     81  O4  SGN B   5      45.266  -7.149  21.0620  0.00  0.00     0.000 O
BRANCH 81 85
ATOM     82  C1  SGN B   5      44.518  -5.884  17.1280  0.00  0.00     0.000 C
ATOM     83  C2  SGN B   5      44.012  -4.978  18.2600  0.00  0.00     0.000 C
ATOM     84  C3  SGN B   5      44.750  -5.322  19.5620  0.00  0.00     0.000 C
ATOM     85  C4  SGN B   5      44.578  -6.801  19.8590  0.00  0.00     0.000 C
ATOM     86  C5  SGN B   5      45.135  -7.595  18.6800  0.00  0.00     0.000 C
ATOM     87  O5  SGN B   5      44.393  -7.245  17.4960  0.00  0.00     0.000 O
ATOM     88   O  SGN B   5      44.250  -4.533  20.6190  0.00  0.00     0.000 O
ATOM     90  HD  SGN B   5      44.992  -4.392  20.1950  0.00  0.00     0.000 HD
BRANCH 83 92
ATOM     90   N  SGN B   5      43.951  -3.993  17.1630  0.00  0.00     0.000 N
ATOM     92  HD  SGN B   5      44.006  -4.383  16.3920  0.00  0.00     0.000 HD
ATOM     92   S  SGN B   5      42.859  -2.830  17.2570  0.00  0.00     0.000 S
ATOM     93   O  SGN B   5      43.053  -2.064  16.0630  0.00  0.00     0.000 OA
ATOM     94   O  SGN B   5      41.617  -3.484  17.4910  0.00  0.00     0.000 OA
ATOM     95   O  SGN B   5      43.213  -2.070  18.5170  0.00  0.00     0.000 OA
ENDBRANCH 83 92
BRANCH 86 96
ATOM     96   C  SGN B   5      45.042  -9.098  18.8430  0.00  0.00     0.000 C
ATOM     97   O  SGN B   5      46.205  -9.734  18.3080  0.00  0.00     0.000 O
ATOM     98   S  SGN B   5      46.941 -10.784  19.2720  0.00  0.00     0.000 S
ATOM     99   O  SGN B   5      47.919 -11.386  18.3970  0.00  0.00     0.000 OA
ATOM    100   O  SGN B   5      47.489 -10.053  20.3580  0.00  0.00     0.000 OA
ATOM    101   O  SGN B   5      45.909 -11.684  19.6710  0.00  0.00     0.000 OA
ENDBRANCH 86 96
BRANCH 82 102
ATOM    102  O4  IDS B   6      45.802  -5.606  16.7680  0.00  0.00     0.000 O
BRANCH 102 106
ATOM    103  C1  IDS B   6      48.102  -4.446  14.1940  0.00  0.00     0.000 C
ATOM    104  C2  IDS B   6      46.629  -4.008  14.1870  0.00  0.00     0.000 C
ATOM    105  C3  IDS B   6      45.624  -5.126  14.3870  0.00  0.00     0.000 C
ATOM    106  C4  IDS B   6      46.063  -6.128  15.4400  0.00  0.00     0.000 C
ATOM    107  C5  IDS B   6      47.551  -6.446  15.2630  0.00  0.00     0.000 C
ATOM    108  O5  IDS B   6      48.358  -5.268  15.3170  0.00  0.00     0.000 O
ATOM    109   O  IDS B   6      45.421  -5.765  13.1370  0.00  0.00     0.000 O
ATOM    111  HD  IDS B   6      46.140  -5.581  12.6900  0.00  0.00     0.000 HD
BRANCH 104 111
ATOM    111   O  IDS B   6      46.402  -3.077  15.3030  0.00  0.00     0.000 O
ATOM    112   S  IDS B   6      46.493  -1.507  15.0050  0.00  0.00     0.000 S
ATOM    113   O  IDS B   6      47.838  -1.310  14.4870  0.00  0.00     0.000 OA
ATOM    114   O  IDS B   6      45.419  -1.148  14.0720  0.00  0.00     0.000 OA
ATOM    115   O  IDS B   6      46.301  -1.002  16.3480  0.00  0.00     0.000 OA
ENDBRANCH 104 111
BRANCH 107 116
ATOM    116   C  IDS B   6      47.990  -7.423  16.3460  0.00  0.00     0.000 C
ATOM    117   O  IDS B   6      47.859  -8.596  16.1030  0.00  0.00     0.000 OA
ATOM    118   O  IDS B   6      48.442  -7.031  17.4100  0.00  0.00     0.000 OA
ENDBRANCH 107 116
BRANCH 103 119
ATOM    119  O4  SGN B   7      48.309  -4.894  12.9290  0.00  0.00     0.000 O
BRANCH 119 123
ATOM    120  C1  SGN B   7      51.502  -6.596  10.8310  0.00  0.00     0.000 C
ATOM    121  C2  SGN B   7      50.553  -7.549  11.5810  0.00  0.00     0.000 C
ATOM    122  C3  SGN B   7      49.246  -6.831  11.9440  0.00  0.00     0.000 C
ATOM    123  C4  SGN B   7      49.557  -5.550  12.7010  0.00  0.00     0.000 C
ATOM    124  C5  SGN B   7      50.513  -4.674  11.8750  0.00  0.00     0.000 C
ATOM    125  O5  SGN B   7      51.729  -5.389  11.5580  0.00  0.00     0.000 O
ATOM    126   O  SGN B   7      48.431  -7.713  12.7230  0.00  0.00     0.000 O
ATOM    128  HD  SGN B   7      49.132  -7.606  12.2270  0.00  0.00     0.000 HD
BRANCH 121 130
ATOM    128   N  SGN B   7      51.261  -8.795  11.8840  0.00  0.00     0.000 N
ATOM    130  HD  SGN B   7      50.530  -9.146  12.1870  0.00  0.00     0.000 HD
ATOM    130   S  SGN B   7      51.060 -10.133  11.0110  0.00  0.00     0.000 S
ATOM    131   O  SGN B   7      51.235  -9.724   9.6590  0.00  0.00     0.000 OA
ATOM    132   O  SGN B   7      51.874 -11.154  11.5640  0.00  0.00     0.000 OA
ATOM    133   O  SGN B   7      49.601 -10.522  11.4270  0.00  0.00     0.000 OA
ENDBRANCH 121 130
BRANCH 124 134
ATOM    134   C  SGN B   7      50.972  -3.437  12.5890  0.00  0.00     0.000 C
ATOM    135   O  SGN B   7      51.813  -2.681  11.7010  0.00  0.00     0.000 O
ATOM    136   S  SGN B   7      52.274  -1.268  12.2070  0.00  0.00     0.000 S
ATOM    137   O  SGN B   7      53.180  -0.754  11.2080  0.00  0.00     0.000 OA
ATOM    138   O  SGN B   7      52.917  -1.513  13.4780  0.00  0.00     0.000 OA
ATOM    139   O  SGN B   7      51.017  -0.542  12.2980  0.00  0.00     0.000 OA
ENDBRANCH 124 134
BRANCH 120 140
ATOM    140  O4  IDS B   8      51.351  -6.078   9.6080  0.00  0.00     0.000 O
BRANCH 140 144
ATOM    141  C1  IDS B   8      49.641  -4.606   6.8020  0.00  0.00     0.000 C
ATOM    142  C2  IDS B   8      48.951  -5.687   7.6820  0.00  0.00     0.000 C
ATOM    143  C3  IDS B   8      49.836  -6.924   7.9230  0.00  0.00     0.000 C
ATOM    144  C4  IDS B   8      51.277  -6.541   8.2540  0.00  0.00     0.000 C
ATOM    145  C5  IDS B   8      51.768  -5.447   7.2940  0.00  0.00     0.000 C
ATOM    146  O5  IDS B   8      50.925  -4.298   7.3290  0.00  0.00     0.000 O
BRANCH 142 147
ATOM    147   O  IDS B   8      48.628  -5.111   9.0140  0.00  0.00     0.000 O
ATOM    148   S  IDS B   8      47.143  -4.548   9.3440  0.00  0.00     0.000 S
ATOM    149   O  IDS B   8      46.453  -4.369   8.0860  0.00  0.00     0.000 OA
ATOM    150   O  IDS B   8      46.525  -5.557  10.1840  0.00  0.00     0.000 OA
ATOM    151   O  IDS B   8      47.355  -3.288  10.0290  0.00  0.00     0.000 OA
ENDBRANCH 142 147
BRANCH 145 152
ATOM    152   C  IDS B   8      53.160  -4.954   7.6340  0.00  0.00     0.000 C
ATOM    153   O  IDS B   8      53.340  -3.763   7.8630  0.00  0.00     0.000 OA
ATOM    154   O  IDS B   8      54.081  -5.748   7.6960  0.00  0.00     0.000 OA
ENDBRANCH 145 152
ENDBRANCH 140 144
ENDBRANCH 120 140
ENDBRANCH 119 123
ENDBRANCH 103 119
ENDBRANCH 102 106
ENDBRANCH 82 102
ENDBRANCH 81 85
ENDBRANCH 65 81
ENDBRANCH 64 68
ENDBRANCH 41 64
ENDBRANCH 40 44
ENDBRANCH 24 40
ENDBRANCH 23 27
ENDBRANCH 1 23
TORSDOF 31
ENDMDL
MODEL 23
REMARK VINA RESULT:      -7.7     11.018     21.526
ROOT
ATOM      1  C1  SGN B   1      66.405   1.271  24.9770  0.00  0.00     0.000 C
ATOM      2  C2  SGN B   1      67.873   0.919  25.2680  0.00  0.00     0.000 C
ATOM      3  C3  SGN B   1      67.966  -0.221  26.2880  0.00  0.00     0.000 C
ATOM      4  C4  SGN B   1      67.205   0.145  27.5580  0.00  0.00     0.000 C
ATOM      5  C5  SGN B   1      65.803   0.619  27.1800  0.00  0.00     0.000 C
ATOM      6  O5  SGN B   1      65.899   1.701  26.2340  0.00  0.00     0.000 O
ATOM      7   O  SGN B   1      69.325  -0.514  26.5880  0.00  0.00     0.000 O
ATOM      9  HD  SGN B   1      69.262   0.310  26.8460  0.00  0.00     0.000 HD
ATOM      9   O  SGN B   1      67.126  -0.988  28.4030  0.00  0.00     0.000 O
ATOM     11  HD  SGN B   1      67.063  -0.164  28.6600  0.00  0.00     0.000 HD
ENDROOT
BRANCH 2 13
ATOM     11   N  SGN B   1      68.578   1.876  24.3950  0.00  0.00     0.000 N
ATOM     13  HD  SGN B   1      67.980   1.341  24.0690  0.00  0.00     0.000 HD
ATOM     13   S  SGN B   1      68.825   1.592  22.8310  0.00  0.00     0.000 S
ATOM     14   O  SGN B   1      68.234   0.365  22.4610  0.00  0.00     0.000 OA
ATOM     15   O  SGN B   1      68.502   2.772  22.1020  0.00  0.00     0.000 OA
ATOM     16   O  SGN B   1      70.380   1.484  22.8660  0.00  0.00     0.000 OA
ENDBRANCH 2 13
BRANCH 5 17
ATOM     17   C  SGN B   1      64.987   1.115  28.3490  0.00  0.00     0.000 C
ATOM     18   O  SGN B   1      64.033   0.119  28.7700  0.00  0.00     0.000 O
ATOM     19   S  SGN B   1      62.551   0.645  29.0560  0.00  0.00     0.000 S
ATOM     20   O  SGN B   1      61.870  -0.471  29.6770  0.00  0.00     0.000 OA
ATOM     21   O  SGN B   1      62.741   1.771  29.9410  0.00  0.00     0.000 OA
ATOM     22   O  SGN B   1      62.019   1.000  27.7590  0.00  0.00     0.000 OA
ENDBRANCH 5 17
BRANCH 1 23
ATOM     23  O4  IDS B   2      65.387   0.932  24.1360  0.00  0.00     0.000 O
BRANCH 23 27
ATOM     24  C1  IDS B   2      62.228   1.093  21.4480  0.00  0.00     0.000 C
ATOM     25  C2  IDS B   2      63.484   0.341  20.9570  0.00  0.00     0.000 C
ATOM     26  C3  IDS B   2      64.452   0.085  22.1080  0.00  0.00     0.000 C
ATOM     27  C4  IDS B   2      64.842   1.347  22.8660  0.00  0.00     0.000 C
ATOM     28  C5  IDS B   2      63.630   2.294  22.9710  0.00  0.00     0.000 C
ATOM     29  O5  IDS B   2      62.415   1.586  22.7820  0.00  0.00     0.000 O
ATOM     30   O  IDS B   2      65.646  -0.495  21.5960  0.00  0.00     0.000 O
ATOM     32  HD  IDS B   2      66.180   0.084  21.2360  0.00  0.00     0.000 HD
BRANCH 25 32
ATOM     32   O  IDS B   2      63.151  -0.972  20.3510  0.00  0.00     0.000 O
ATOM     33   S  IDS B   2      63.516  -1.324  18.7800  0.00  0.00     0.000 S
ATOM     34   O  IDS B   2      62.850  -2.582  18.4830  0.00  0.00     0.000 OA
ATOM     35   O  IDS B   2      63.038  -0.252  17.9190  0.00  0.00     0.000 OA
ATOM     36   O  IDS B   2      64.953  -1.466  18.7360  0.00  0.00     0.000 OA
ENDBRANCH 25 32
BRANCH 28 37
ATOM     37   C  IDS B   2      63.497   3.156  24.2430  0.00  0.00     0.000 C
ATOM     38   O  IDS B   2      62.632   2.758  24.9880  0.00  0.00     0.000 OA
ATOM     39   O  IDS B   2      64.213   4.133  24.5720  0.00  0.00     0.000 OA
ENDBRANCH 28 37
BRANCH 24 40
ATOM     40  O4  SUS B   3      61.281   1.472  20.5640  0.00  0.00     0.000 O
BRANCH 40 44
ATOM     41  C1  SUS B   3      57.111   1.600  20.9400  0.00  0.00     0.000 C
ATOM     42  C2  SUS B   3      57.922   2.655  21.7190  0.00  0.00     0.000 C
ATOM     43  C3  SUS B   3      59.317   2.770  21.1070  0.00  0.00     0.000 C
ATOM     44  C4  SUS B   3      59.958   1.392  21.0830  0.00  0.00     0.000 C
ATOM     45  C5  SUS B   3      59.120   0.476  20.2150  0.00  0.00     0.000 C
ATOM     46  O5  SUS B   3      57.814   0.359  20.8160  0.00  0.00     0.000 O
BRANCH 42 49
ATOM     47   N  SUS B   3      56.619   2.872  22.3710  0.00  0.00     0.000 N
ATOM     49  HD  SUS B   3      55.922   2.855  21.8580  0.00  0.00     0.000 HD
ATOM     49   S  SUS B   3      56.574   4.227  23.2260  0.00  0.00     0.000 S
ATOM     50   O  SUS B   3      56.879   5.327  22.3980  0.00  0.00     0.000 OA
ATOM     51   O  SUS B   3      55.058   4.187  23.5450  0.00  0.00     0.000 OA
ATOM     52   O  SUS B   3      57.335   4.063  24.4000  0.00  0.00     0.000 OA
ENDBRANCH 42 49
BRANCH 43 53
ATOM     53   O  SUS B   3      60.112   3.679  21.9560  0.00  0.00     0.000 O
ATOM     54   S  SUS B   3      60.816   4.968  21.2180  0.00  0.00     0.000 S
ATOM     55   O  SUS B   3      59.756   5.901  20.8630  0.00  0.00     0.000 OA
ATOM     56   O  SUS B   3      61.739   5.483  22.2150  0.00  0.00     0.000 OA
ATOM     57   O  SUS B   3      61.488   4.447  20.0240  0.00  0.00     0.000 OA
ENDBRANCH 43 53
BRANCH 45 58
ATOM     58   C  SUS B   3      59.749  -0.891  20.0600  0.00  0.00     0.000 C
ATOM     59   S  SUS B   3      59.917  -3.191  21.1860  0.00  0.00     0.000 S
ATOM     60   O  SUS B   3      59.215  -1.777  21.0580  0.00  0.00     0.000 O
ATOM     61   O  SUS B   3      61.141  -2.942  21.9220  0.00  0.00     0.000 OA
ATOM     62   O  SUS B   3      58.939  -3.906  21.9610  0.00  0.00     0.000 OA
ATOM     63   O  SUS B   3      60.091  -3.651  19.8540  0.00  0.00     0.000 OA
ENDBRANCH 45 58
BRANCH 41 64
ATOM     64  O4  IDS B   4      56.583   2.068  19.7620  0.00  0.00     0.000 O
BRANCH 64 68
ATOM     65  C1  IDS B   4      54.319   2.594  16.9560  0.00  0.00     0.000 C
ATOM     66  C2  IDS B   4      54.087   3.326  18.2840  0.00  0.00     0.000 C
ATOM     67  C3  IDS B   4      54.190   2.442  19.5150  0.00  0.00     0.000 C
ATOM     68  C4  IDS B   4      55.326   1.440  19.4280  0.00  0.00     0.000 C
ATOM     69  C5  IDS B   4      55.307   0.818  18.0250  0.00  0.00     0.000 C
ATOM     70  O5  IDS B   4      55.517   1.844  17.0520  0.00  0.00     0.000 O
ATOM     71   O  IDS B   4      52.960   1.759  19.6440  0.00  0.00     0.000 O
ATOM     73  HD  IDS B   4      53.489   2.379  19.3520  0.00  0.00     0.000 HD
BRANCH 66 73
ATOM     73   O  IDS B   4      55.129   4.349  18.4490  0.00  0.00     0.000 O
ATOM     74   S  IDS B   4      54.699   5.773  19.0850  0.00  0.00     0.000 S
ATOM     75   O  IDS B   4      53.637   6.291  18.2490  0.00  0.00     0.000 OA
ATOM     76   O  IDS B   4      55.930   6.519  19.0000  0.00  0.00     0.000 OA
ATOM     77   O  IDS B   4      54.274   5.480  20.4330  0.00  0.00     0.000 OA
ENDBRANCH 66 73
BRANCH 69 78
ATOM     78   C  IDS B   4      56.248  -0.366  17.8490  0.00  0.00     0.000 C
ATOM     79   O  IDS B   4      55.818  -1.499  18.0600  0.00  0.00     0.000 OA
ATOM     80   O  IDS B   4      57.389  -0.159  17.3950  0.00  0.00     0.000 OA
ENDBRANCH 69 78
BRANCH 65 81
ATOM     81  O4  SGN B   5      53.193   1.910  16.6130  0.00  0.00     0.000 O
BRANCH 81 85
ATOM     82  C1  SGN B   5      50.646   1.188  13.3520  0.00  0.00     0.000 C
ATOM     83  C2  SGN B   5      51.692   0.110  13.6720  0.00  0.00     0.000 C
ATOM     84  C3  SGN B   5      52.197   0.295  15.1100  0.00  0.00     0.000 C
ATOM     85  C4  SGN B   5      52.726   1.709  15.2770  0.00  0.00     0.000 C
ATOM     86  C5  SGN B   5      51.596   2.684  14.9560  0.00  0.00     0.000 C
ATOM     87  O5  SGN B   5      51.179   2.476  13.5930  0.00  0.00     0.000 O
ATOM     88   O  SGN B   5      53.200  -0.656  15.3930  0.00  0.00     0.000 O
ATOM     90  HD  SGN B   5      52.375  -0.704  15.6520  0.00  0.00     0.000 HD
BRANCH 83 92
ATOM     90   N  SGN B   5      50.818  -0.656  12.7620  0.00  0.00     0.000 N
ATOM     92  HD  SGN B   5      50.349  -0.126  12.2630  0.00  0.00     0.000 HD
ATOM     92   S  SGN B   5      51.442  -1.919  12.0080  0.00  0.00     0.000 S
ATOM     93   O  SGN B   5      50.363  -2.427  11.2150  0.00  0.00     0.000 OA
ATOM     94   O  SGN B   5      52.629  -1.448  11.3810  0.00  0.00     0.000 OA
ATOM     95   O  SGN B   5      51.861  -2.860  13.1170  0.00  0.00     0.000 OA
ENDBRANCH 83 92
BRANCH 86 96
ATOM     96   C  SGN B   5      51.979   4.144  15.0930  0.00  0.00     0.000 C
ATOM     97   O  SGN B   5      52.136   4.745  13.8060  0.00  0.00     0.000 O
ATOM     98   S  SGN B   5      51.342   6.117  13.5650  0.00  0.00     0.000 S
ATOM     99   O  SGN B   5      51.855   6.562  12.2920  0.00  0.00     0.000 OA
ATOM    100   O  SGN B   5      49.956   5.814  13.5720  0.00  0.00     0.000 OA
ATOM    101   O  SGN B   5      51.735   6.950  14.6550  0.00  0.00     0.000 OA
ENDBRANCH 86 96
BRANCH 82 102
ATOM    102  O4  IDS B   6      49.486   1.017  14.0480  0.00  0.00     0.000 O
BRANCH 102 106
ATOM    103  C1  IDS B   6      45.853   0.784  14.0220  0.00  0.00     0.000 C
ATOM    104  C2  IDS B   6      46.674   0.397  12.7820  0.00  0.00     0.000 C
ATOM    105  C3  IDS B   6      47.747   1.392  12.3850  0.00  0.00     0.000 C
ATOM    106  C4  IDS B   6      48.490   1.961  13.5810  0.00  0.00     0.000 C
ATOM    107  C5  IDS B   6      47.495   2.299  14.6950  0.00  0.00     0.000 C
ATOM    108  O5  IDS B   6      46.717   1.163  15.0770  0.00  0.00     0.000 O
ATOM    109   O  IDS B   6      47.133   2.426  11.6340  0.00  0.00     0.000 O
ATOM    111  HD  IDS B   6      46.303   2.397  11.8790  0.00  0.00     0.000 HD
BRANCH 104 111
ATOM    111   O  IDS B   6      47.390  -0.859  13.0550  0.00  0.00     0.000 O
ATOM    112   S  IDS B   6      46.833  -2.204  12.3890  0.00  0.00     0.000 S
ATOM    113   O  IDS B   6      45.468  -2.317  12.8800  0.00  0.00     0.000 OA
ATOM    114   O  IDS B   6      46.952  -2.084  10.9320  0.00  0.00     0.000 OA
ATOM    115   O  IDS B   6      47.750  -3.154  12.9800  0.00  0.00     0.000 OA
ENDBRANCH 104 111
BRANCH 107 116
ATOM    116   C  IDS B   6      48.253   2.835  15.9030  0.00  0.00     0.000 C
ATOM    117   O  IDS B   6      48.452   4.023  15.9340  0.00  0.00     0.000 OA
ATOM    118   O  IDS B   6      48.646   2.092  16.7870  0.00  0.00     0.000 OA
ENDBRANCH 107 116
BRANCH 103 119
ATOM    119  O4  SGN B   7      44.917   1.638  13.5340  0.00  0.00     0.000 O
BRANCH 119 123
ATOM    120  C1  SGN B   7      41.229   3.043  14.9190  0.00  0.00     0.000 C
ATOM    121  C2  SGN B   7      42.446   3.978  15.0550  0.00  0.00     0.000 C
ATOM    122  C3  SGN B   7      43.595   3.499  14.1590  0.00  0.00     0.000 C
ATOM    123  C4  SGN B   7      43.904   2.040  14.4560  0.00  0.00     0.000 C
ATOM    124  C5  SGN B   7      42.630   1.194  14.3000  0.00  0.00     0.000 C
ATOM    125  O5  SGN B   7      41.575   1.680  15.1610  0.00  0.00     0.000 O
ATOM    126   O  SGN B   7      44.739   4.330  14.3850  0.00  0.00     0.000 O
ATOM    128  HD  SGN B   7      43.894   4.192  14.5120  0.00  0.00     0.000 HD
BRANCH 121 130
ATOM    128   N  SGN B   7      41.608   4.843  15.8890  0.00  0.00     0.000 N
ATOM    130  HD  SGN B   7      42.285   5.018  16.4000  0.00  0.00     0.000 HD
ATOM    130   S  SGN B   7      41.733   6.448  15.8600  0.00  0.00     0.000 S
ATOM    131   O  SGN B   7      41.673   6.801  14.4830  0.00  0.00     0.000 OA
ATOM    132   O  SGN B   7      40.797   6.985  16.7800  0.00  0.00     0.000 OA
ATOM    133   O  SGN B   7      43.124   6.634  16.5570  0.00  0.00     0.000 OA
ENDBRANCH 121 130
BRANCH 124 134
ATOM    134   C  SGN B   7      42.806  -0.245  14.6840  0.00  0.00     0.000 C
ATOM    135   O  SGN B   7      42.959  -0.323  16.1110  0.00  0.00     0.000 O
ATOM    136   S  SGN B   7      43.004  -1.764  16.7330  0.00  0.00     0.000 S
ATOM    137   O  SGN B   7      43.265  -1.591  18.1420  0.00  0.00     0.000 OA
ATOM    138   O  SGN B   7      44.075  -2.443  16.0400  0.00  0.00     0.000 OA
ATOM    139   O  SGN B   7      41.675  -2.275  16.4360  0.00  0.00     0.000 OA
ENDBRANCH 124 134
BRANCH 120 140
ATOM    140  O4  IDS B   8      40.438   2.871  13.8540  0.00  0.00     0.000 O
BRANCH 140 144
ATOM    141  C1  IDS B   8      37.486   2.055  11.9610  0.00  0.00     0.000 C
ATOM    142  C2  IDS B   8      38.905   1.842  11.3610  0.00  0.00     0.000 C
ATOM    143  C3  IDS B   8      39.820   3.070  11.5240  0.00  0.00     0.000 C
ATOM    144  C4  IDS B   8      39.715   3.682  12.9200  0.00  0.00     0.000 C
ATOM    145  C5  IDS B   8      38.241   3.786  13.3420  0.00  0.00     0.000 C
ATOM    146  O5  IDS B   8      37.590   2.519  13.3020  0.00  0.00     0.000 O
BRANCH 142 147
ATOM    147   O  IDS B   8      39.569   0.704  12.0500  0.00  0.00     0.000 O
ATOM    148   S  IDS B   8      40.149  -0.557  11.2120  0.00  0.00     0.000 S
ATOM    149   O  IDS B   8      39.559  -0.515   9.8920  0.00  0.00     0.000 OA
ATOM    150   O  IDS B   8      41.589  -0.379  11.1890  0.00  0.00     0.000 OA
ATOM    151   O  IDS B   8      39.733  -1.732  11.9530  0.00  0.00     0.000 OA
ENDBRANCH 142 147
BRANCH 145 152
ATOM    152   C  IDS B   8      38.076   4.295  14.7600  0.00  0.00     0.000 C
ATOM    153   O  IDS B   8      37.515   3.592  15.5930  0.00  0.00     0.000 OA
ATOM    154   O  IDS B   8      38.519   5.388  15.0630  0.00  0.00     0.000 OA
ENDBRANCH 145 152
ENDBRANCH 140 144
ENDBRANCH 120 140
ENDBRANCH 119 123
ENDBRANCH 103 119
ENDBRANCH 102 106
ENDBRANCH 82 102
ENDBRANCH 81 85
ENDBRANCH 65 81
ENDBRANCH 64 68
ENDBRANCH 41 64
ENDBRANCH 40 44
ENDBRANCH 24 40
ENDBRANCH 23 27
ENDBRANCH 1 23
TORSDOF 31
ENDMDL
MODEL 24
REMARK VINA RESULT:      -7.6      8.331     12.101
ROOT
ATOM      1  C1  SGN B   1      35.113   1.883  12.7190  0.00  0.00     0.000 C
ATOM      2  C2  SGN B   1      34.222   3.127  12.5670  0.00  0.00     0.000 C
ATOM      3  C3  SGN B   1      32.787   2.824  13.0120  0.00  0.00     0.000 C
ATOM      4  C4  SGN B   1      32.237   1.630  12.2390  0.00  0.00     0.000 C
ATOM      5  C5  SGN B   1      33.239   0.480  12.3160  0.00  0.00     0.000 C
ATOM      6  O5  SGN B   1      34.524   0.930  11.8450  0.00  0.00     0.000 O
ATOM      7   O  SGN B   1      31.956   3.963  12.8290  0.00  0.00     0.000 O
ATOM      9  HD  SGN B   1      32.214   3.802  12.0180  0.00  0.00     0.000 HD
ATOM      9   O  SGN B   1      30.998   1.236  12.8000  0.00  0.00     0.000 O
ATOM     11  HD  SGN B   1      31.257   1.075  11.9900  0.00  0.00     0.000 HD
ENDROOT
BRANCH 2 13
ATOM     11   N  SGN B   1      35.228   4.066  12.0350  0.00  0.00     0.000 N
ATOM     13  HD  SGN B   1      35.344   3.686  12.8050  0.00  0.00     0.000 HD
ATOM     13   S  SGN B   1      36.177   4.943  12.9940  0.00  0.00     0.000 S
ATOM     14   O  SGN B   1      35.924   4.629  14.3460  0.00  0.00     0.000 OA
ATOM     15   O  SGN B   1      37.509   4.872  12.4960  0.00  0.00     0.000 OA
ATOM     16   O  SGN B   1      35.622   6.354  12.6260  0.00  0.00     0.000 OA
ENDBRANCH 2 13
BRANCH 5 17
ATOM     17   C  SGN B   1      32.855  -0.725  11.4950  0.00  0.00     0.000 C
ATOM     18   O  SGN B   1      33.779  -0.922  10.4060  0.00  0.00     0.000 O
ATOM     19   S  SGN B   1      33.127  -1.240   8.9810  0.00  0.00     0.000 S
ATOM     20   O  SGN B   1      34.239  -1.622   8.1360  0.00  0.00     0.000 OA
ATOM     21   O  SGN B   1      32.207  -2.321   9.2480  0.00  0.00     0.000 OA
ATOM     22   O  SGN B   1      32.486  -0.008   8.5750  0.00  0.00     0.000 OA
ENDBRANCH 5 17
BRANCH 1 23
ATOM     23  O4  IDS B   2      35.920   1.270  13.6320  0.00  0.00     0.000 O
BRANCH 23 27
ATOM     24  C1  IDS B   2      39.921   0.748  14.6080  0.00  0.00     0.000 C
ATOM     25  C2  IDS B   2      39.586   0.674  13.1020  0.00  0.00     0.000 C
ATOM     26  C3  IDS B   2      38.168   1.169  12.8320  0.00  0.00     0.000 C
ATOM     27  C4  IDS B   2      37.107   0.450  13.6550  0.00  0.00     0.000 C
ATOM     28  C5  IDS B   2      37.649   0.153  15.0680  0.00  0.00     0.000 C
ATOM     29  O5  IDS B   2      38.741   1.003  15.3820  0.00  0.00     0.000 O
ATOM     30   O  IDS B   2      37.855   0.968  11.4590  0.00  0.00     0.000 O
ATOM     32  HD  IDS B   2      37.637   0.151  11.2740  0.00  0.00     0.000 HD
BRANCH 25 32
ATOM     32   O  IDS B   2      40.511   1.494  12.2810  0.00  0.00     0.000 O
ATOM     33   S  IDS B   2      41.406   0.838  11.0590  0.00  0.00     0.000 S
ATOM     34   O  IDS B   2      42.340   1.872  10.6420  0.00  0.00     0.000 OA
ATOM     35   O  IDS B   2      42.103  -0.342  11.5500  0.00  0.00     0.000 OA
ATOM     36   O  IDS B   2      40.464   0.525  10.0100  0.00  0.00     0.000 OA
ENDBRANCH 25 32
BRANCH 28 37
ATOM     37   C  IDS B   2      36.651   0.189  16.2450  0.00  0.00     0.000 C
ATOM     38   O  IDS B   2      35.793  -0.657  16.1560  0.00  0.00     0.000 OA
ATOM     39   O  IDS B   2      36.699   0.937  17.2520  0.00  0.00     0.000 OA
ENDBRANCH 28 37
BRANCH 24 40
ATOM     40  O4  SUS B   3      41.108   0.290  15.0570  0.00  0.00     0.000 O
BRANCH 40 44
ATOM     41  C1  SUS B   3      43.253   1.260  18.5210  0.00  0.00     0.000 C
ATOM     42  C2  SUS B   3      41.878   0.589  18.7090  0.00  0.00     0.000 C
ATOM     43  C3  SUS B   3      41.479  -0.110  17.4110  0.00  0.00     0.000 C
ATOM     44  C4  SUS B   3      41.524   0.899  16.2740  0.00  0.00     0.000 C
ATOM     45  C5  SUS B   3      42.942   1.415  16.1340  0.00  0.00     0.000 C
ATOM     46  O5  SUS B   3      43.298   2.091  17.3560  0.00  0.00     0.000 O
BRANCH 42 49
ATOM     47   N  SUS B   3      41.351   1.292  19.8910  0.00  0.00     0.000 N
ATOM     49  HD  SUS B   3      41.814   1.965  20.1800  0.00  0.00     0.000 HD
ATOM     49   S  SUS B   3      41.081   0.308  21.1250  0.00  0.00     0.000 S
ATOM     50   O  SUS B   3      42.268  -0.370  21.4680  0.00  0.00     0.000 OA
ATOM     51   O  SUS B   3      40.761   1.410  22.1680  0.00  0.00     0.000 OA
ATOM     52   O  SUS B   3      39.938  -0.472  20.8590  0.00  0.00     0.000 OA
ENDBRANCH 42 49
BRANCH 43 53
ATOM     53   O  SUS B   3      40.104  -0.621  17.5740  0.00  0.00     0.000 O
ATOM     54   S  SUS B   3      39.904  -2.252  17.5720  0.00  0.00     0.000 S
ATOM     55   O  SUS B   3      40.457  -2.761  18.8200  0.00  0.00     0.000 OA
ATOM     56   O  SUS B   3      38.468  -2.431  17.4520  0.00  0.00     0.000 OA
ATOM     57   O  SUS B   3      40.649  -2.760  16.4160  0.00  0.00     0.000 OA
ENDBRANCH 43 53
BRANCH 45 58
ATOM     58   C  SUS B   3      43.089   2.352  14.9550  0.00  0.00     0.000 C
ATOM     59   S  SUS B   3      42.520   4.725  14.1610  0.00  0.00     0.000 S
ATOM     60   O  SUS B   3      42.641   3.665  15.3310  0.00  0.00     0.000 O
ATOM     61   O  SUS B   3      41.286   4.393  13.4740  0.00  0.00     0.000 OA
ATOM     62   O  SUS B   3      42.425   5.946  14.9140  0.00  0.00     0.000 OA
ATOM     63   O  SUS B   3      43.703   4.576  13.3900  0.00  0.00     0.000 OA
ENDBRANCH 45 58
BRANCH 41 64
ATOM     64  O4  IDS B   4      44.312   0.393  18.6340  0.00  0.00     0.000 O
BRANCH 64 68
ATOM     65  C1  IDS B   4      47.623  -0.922  19.3960  0.00  0.00     0.000 C
ATOM     66  C2  IDS B   4      46.662  -0.546  20.5300  0.00  0.00     0.000 C
ATOM     67  C3  IDS B   4      45.983   0.802  20.3570  0.00  0.00     0.000 C
ATOM     68  C4  IDS B   4      45.556   1.068  18.9250  0.00  0.00     0.000 C
ATOM     69  C5  IDS B   4      46.707   0.653  17.9990  0.00  0.00     0.000 C
ATOM     70  O5  IDS B   4      46.959  -0.745  18.1570  0.00  0.00     0.000 O
ATOM     71   O  IDS B   4      46.903   1.791  20.7710  0.00  0.00     0.000 O
ATOM     73  HD  IDS B   4      46.582   0.989  20.7150  0.00  0.00     0.000 HD
BRANCH 66 73
ATOM     73   O  IDS B   4      45.572  -1.530  20.5720  0.00  0.00     0.000 O
ATOM     74   S  IDS B   4      45.439  -2.458  21.8910  0.00  0.00     0.000 S
ATOM     75   O  IDS B   4      46.710  -3.133  22.0470  0.00  0.00     0.000 OA
ATOM     76   O  IDS B   4      44.351  -3.331  21.5300  0.00  0.00     0.000 OA
ATOM     77   O  IDS B   4      45.138  -1.550  22.9720  0.00  0.00     0.000 OA
ENDBRANCH 66 73
BRANCH 69 78
ATOM     78   C  IDS B   4      46.521   1.061  16.5440  0.00  0.00     0.000 C
ATOM     79   O  IDS B   4      46.190   0.202  15.7270  0.00  0.00     0.000 OA
ATOM     80   O  IDS B   4      46.607   2.266  16.2470  0.00  0.00     0.000 OA
ENDBRANCH 69 78
BRANCH 65 81
ATOM     81  O4  SGN B   5      48.801  -0.258  19.5610  0.00  0.00     0.000 O
BRANCH 81 85
ATOM     82  C1  SGN B   5      52.576  -0.320  17.7220  0.00  0.00     0.000 C
ATOM     83  C2  SGN B   5      51.899   1.050  17.8800  0.00  0.00     0.000 C
ATOM     84  C3  SGN B   5      50.801   0.959  18.9480  0.00  0.00     0.000 C
ATOM     85  C4  SGN B   5      49.830  -0.147  18.5750  0.00  0.00     0.000 C
ATOM     86  C5  SGN B   5      50.610  -1.455  18.4700  0.00  0.00     0.000 C
ATOM     87  O5  SGN B   5      51.610  -1.315  17.4430  0.00  0.00     0.000 O
ATOM     88   O  SGN B   5      50.136   2.199  19.0580  0.00  0.00     0.000 O
ATOM     90  HD  SGN B   5      50.739   1.902  19.6040  0.00  0.00     0.000 HD
BRANCH 83 92
ATOM     90   N  SGN B   5      52.602   1.628  16.7180  0.00  0.00     0.000 N
ATOM     92  HD  SGN B   5      52.090   1.640  16.0190  0.00  0.00     0.000 HD
ATOM     92   S  SGN B   5      53.469   2.951  16.9450  0.00  0.00     0.000 S
ATOM     93   O  SGN B   5      54.004   3.251  15.6510  0.00  0.00     0.000 OA
ATOM     94   O  SGN B   5      52.600   3.875  17.5900  0.00  0.00     0.000 OA
ATOM     95   O  SGN B   5      54.527   2.550  17.9500  0.00  0.00     0.000 OA
ENDBRANCH 83 92
BRANCH 86 96
ATOM     96   C  SGN B   5      49.761  -2.658  18.1130  0.00  0.00     0.000 C
ATOM     97   O  SGN B   5      49.408  -2.630  16.7290  0.00  0.00     0.000 O
ATOM     98   S  SGN B   5      49.696  -3.972  15.8990  0.00  0.00     0.000 S
ATOM     99   O  SGN B   5      49.059  -3.704  14.6320  0.00  0.00     0.000 OA
ATOM    100   O  SGN B   5      51.103  -4.137  15.8320  0.00  0.00     0.000 OA
ATOM    101   O  SGN B   5      49.050  -4.998  16.6510  0.00  0.00     0.000 OA
ENDBRANCH 86 96
BRANCH 82 102
ATOM    102  O4  IDS B   6      53.316  -0.668  18.8120  0.00  0.00     0.000 O
BRANCH 102 106
ATOM    103  C1  IDS B   6      56.313  -1.672  20.6200  0.00  0.00     0.000 C
ATOM    104  C2  IDS B   6      56.342  -0.479  19.6520  0.00  0.00     0.000 C
ATOM    105  C3  IDS B   6      55.697  -0.730  18.3030  0.00  0.00     0.000 C
ATOM    106  C4  IDS B   6      54.410  -1.530  18.4080  0.00  0.00     0.000 C
ATOM    107  C5  IDS B   6      54.596  -2.679  19.4030  0.00  0.00     0.000 C
ATOM    108  O5  IDS B   6      55.006  -2.209  20.6880  0.00  0.00     0.000 O
ATOM    109   O  IDS B   6      56.639  -1.397  17.4800  0.00  0.00     0.000 O
ATOM    111  HD  IDS B   6      57.181  -1.769  18.0440  0.00  0.00     0.000 HD
BRANCH 104 111
ATOM    111   O  IDS B   6      55.585   0.636  20.2420  0.00  0.00     0.000 O
ATOM    112   S  IDS B   6      56.399   1.757  21.0450  0.00  0.00     0.000 S
ATOM    113   O  IDS B   6      57.079   1.027  22.1040  0.00  0.00     0.000 OA
ATOM    114   O  IDS B   6      57.292   2.445  20.1050  0.00  0.00     0.000 OA
ATOM    115   O  IDS B   6      55.291   2.565  21.5060  0.00  0.00     0.000 OA
ENDBRANCH 104 111
BRANCH 107 116
ATOM    116   C  IDS B   6      53.290  -3.453  19.5280  0.00  0.00     0.000 C
ATOM    117   O  IDS B   6      52.963  -4.122  18.5810  0.00  0.00     0.000 OA
ATOM    118   O  IDS B   6      52.606  -3.387  20.5380  0.00  0.00     0.000 OA
ENDBRANCH 107 116
BRANCH 103 119
ATOM    119  O4  SGN B   7      57.369  -2.430  20.2270  0.00  0.00     0.000 O
BRANCH 119 123
ATOM    120  C1  SGN B   7      59.645  -5.473  21.9730  0.00  0.00     0.000 C
ATOM    121  C2  SGN B   7      58.112  -5.571  22.0910  0.00  0.00     0.000 C
ATOM    122  C3  SGN B   7      57.434  -4.635  21.0820  0.00  0.00     0.000 C
ATOM    123  C4  SGN B   7      57.975  -3.224  21.2470  0.00  0.00     0.000 C
ATOM    124  C5  SGN B   7      59.507  -3.234  21.1200  0.00  0.00     0.000 C
ATOM    125  O5  SGN B   7      60.102  -4.126  22.0880  0.00  0.00     0.000 O
ATOM    126   O  SGN B   7      56.017  -4.679  21.2860  0.00  0.00     0.000 O
ATOM    128  HD  SGN B   7      56.797  -5.013  21.4630  0.00  0.00     0.000 HD
BRANCH 121 130
ATOM    128   N  SGN B   7      58.427  -6.788  22.8440  0.00  0.00     0.000 N
ATOM    130  HD  SGN B   7      57.974  -6.494  23.5210  0.00  0.00     0.000 HD
ATOM    130   S  SGN B   7      57.330  -7.932  23.1260  0.00  0.00     0.000 S
ATOM    131   O  SGN B   7      56.753  -8.215  21.8560  0.00  0.00     0.000 OA
ATOM    132   O  SGN B   7      57.945  -8.964  23.8800  0.00  0.00     0.000 OA
ATOM    133   O  SGN B   7      56.407  -7.190  24.1500  0.00  0.00     0.000 OA
ENDBRANCH 121 130
BRANCH 124 134
ATOM    134   C  SGN B   7      60.146  -1.902  21.3830  0.00  0.00     0.000 C
ATOM    135   O  SGN B   7      59.774  -1.468  22.7030  0.00  0.00     0.000 O
ATOM    136   S  SGN B   7      60.466  -0.161  23.2310  0.00  0.00     0.000 S
ATOM    137   O  SGN B   7      59.865   0.128  24.5110  0.00  0.00     0.000 OA
ATOM    138   O  SGN B   7      60.183   0.847  22.2340  0.00  0.00     0.000 OA
ATOM    139   O  SGN B   7      61.864  -0.556  23.3090  0.00  0.00     0.000 OA
ENDBRANCH 124 134
BRANCH 120 140
ATOM    140  O4  IDS B   8      60.420  -5.870  20.9580  0.00  0.00     0.000 O
BRANCH 140 144
ATOM    141  C1  IDS B   8      63.109  -6.752  18.7330  0.00  0.00     0.000 C
ATOM    142  C2  IDS B   8      61.910  -5.894  18.2370  0.00  0.00     0.000 C
ATOM    143  C3  IDS B   8      60.543  -6.489  18.6230  0.00  0.00     0.000 C
ATOM    144  C4  IDS B   8      60.522  -6.988  20.0670  0.00  0.00     0.000 C
ATOM    145  C5  IDS B   8      61.797  -7.789  20.3690  0.00  0.00     0.000 C
ATOM    146  O5  IDS B   8      62.973  -7.022  20.1220  0.00  0.00     0.000 O
BRANCH 142 147
ATOM    147   O  IDS B   8      61.987  -4.539  18.8430  0.00  0.00     0.000 O
ATOM    148   S  IDS B   8      62.733  -3.321  18.0740  0.00  0.00     0.000 S
ATOM    149   O  IDS B   8      63.553  -3.897  17.0320  0.00  0.00     0.000 OA
ATOM    150   O  IDS B   8      61.669  -2.484  17.5520  0.00  0.00     0.000 OA
ATOM    151   O  IDS B   8      63.531  -2.660  19.0880  0.00  0.00     0.000 OA
ENDBRANCH 142 147
BRANCH 145 152
ATOM    152   C  IDS B   8      61.881  -8.228  21.8170  0.00  0.00     0.000 C
ATOM    153   O  IDS B   8      61.811  -7.389  22.7070  0.00  0.00     0.000 OA
ATOM    154   O  IDS B   8      61.996  -9.411  22.0810  0.00  0.00     0.000 OA
ENDBRANCH 145 152
ENDBRANCH 140 144
ENDBRANCH 120 140
ENDBRANCH 119 123
ENDBRANCH 103 119
ENDBRANCH 102 106
ENDBRANCH 82 102
ENDBRANCH 81 85
ENDBRANCH 65 81
ENDBRANCH 64 68
ENDBRANCH 41 64
ENDBRANCH 40 44
ENDBRANCH 24 40
ENDBRANCH 23 27
ENDBRANCH 1 23
TORSDOF 31
ENDMDL
MODEL 25
REMARK VINA RESULT:      -7.4     39.961     45.521
ROOT
ATOM      1  C1  SGN B   1       5.597  -9.419   7.2730  0.00  0.00     0.000 C
ATOM      2  C2  SGN B   1       6.630  -8.304   7.5030  0.00  0.00     0.000 C
ATOM      3  C3  SGN B   1       6.652  -7.331   6.3180  0.00  0.00     0.000 C
ATOM      4  C4  SGN B   1       6.910  -8.089   5.0200  0.00  0.00     0.000 C
ATOM      5  C5  SGN B   1       5.940  -9.266   4.9280  0.00  0.00     0.000 C
ATOM      6  O5  SGN B   1       6.063 -10.084   6.1070  0.00  0.00     0.000 O
ATOM      7   O  SGN B   1       7.640  -6.327   6.5140  0.00  0.00     0.000 O
ATOM      9  HD  SGN B   1       8.121  -7.047   6.5080  0.00  0.00     0.000 HD
ATOM      9   O  SGN B   1       6.724  -7.216   3.9210  0.00  0.00     0.000 O
ATOM     11  HD  SGN B   1       7.205  -7.937   3.9150  0.00  0.00     0.000 HD
ENDROOT
BRANCH 2 13
ATOM     11   N  SGN B   1       7.136  -8.725   8.8230  0.00  0.00     0.000 N
ATOM     13  HD  SGN B   1       6.296  -8.548   8.7100  0.00  0.00     0.000 HD
ATOM     13   S  SGN B   1       6.433  -8.271  10.1970  0.00  0.00     0.000 S
ATOM     14   O  SGN B   1       5.289  -7.493   9.9240  0.00  0.00     0.000 OA
ATOM     15   O  SGN B   1       6.318  -9.412  11.0430  0.00  0.00     0.000 OA
ATOM     16   O  SGN B   1       7.594  -7.395  10.7620  0.00  0.00     0.000 OA
ENDBRANCH 2 13
BRANCH 5 17
ATOM     17   C  SGN B   1       6.171 -10.159   3.7340  0.00  0.00     0.000 C
ATOM     18   O  SGN B   1       7.573 -10.451   3.5730  0.00  0.00     0.000 O
ATOM     19   S  SGN B   1       8.147 -10.335   2.0850  0.00  0.00     0.000 S
ATOM     20   O  SGN B   1       9.480 -10.895   2.1520  0.00  0.00     0.000 OA
ATOM     21   O  SGN B   1       7.229 -11.119   1.2910  0.00  0.00     0.000 OA
ATOM     22   O  SGN B   1       8.126  -8.921   1.7810  0.00  0.00     0.000 OA
ENDBRANCH 5 17
BRANCH 1 23
ATOM     23  O4  IDS B   2       4.281  -9.698   7.4970  0.00  0.00     0.000 O
BRANCH 23 27
ATOM     24  C1  IDS B   2       3.152 -11.237  11.1830  0.00  0.00     0.000 C
ATOM     25  C2  IDS B   2       3.803 -12.245  10.2110  0.00  0.00     0.000 C
ATOM     26  C3  IDS B   2       4.442 -11.526   9.0260  0.00  0.00     0.000 C
ATOM     27  C4  IDS B   2       3.482 -10.605   8.2840  0.00  0.00     0.000 C
ATOM     28  C5  IDS B   2       2.534  -9.915   9.2860  0.00  0.00     0.000 C
ATOM     29  O5  IDS B   2       3.082  -9.931  10.5960  0.00  0.00     0.000 O
ATOM     30   O  IDS B   2       4.919 -12.490   8.0940  0.00  0.00     0.000 O
ATOM     32  HD  IDS B   2       4.293 -12.820   7.5950  0.00  0.00     0.000 HD
BRANCH 25 32
ATOM     32   O  IDS B   2       4.860 -13.055  10.8660  0.00  0.00     0.000 O
ATOM     33   S  IDS B   2       4.797 -14.703  10.9040  0.00  0.00     0.000 S
ATOM     34   O  IDS B   2       5.855 -15.128  11.8060  0.00  0.00     0.000 OA
ATOM     35   O  IDS B   2       3.488 -15.127  11.3810  0.00  0.00     0.000 OA
ATOM     36   O  IDS B   2       5.055 -15.135   9.5490  0.00  0.00     0.000 OA
ENDBRANCH 25 32
BRANCH 28 37
ATOM     37   C  IDS B   2       2.074  -8.477   8.9700  0.00  0.00     0.000 C
ATOM     38   O  IDS B   2       1.943  -7.799   9.9610  0.00  0.00     0.000 OA
ATOM     39   O  IDS B   2       1.901  -7.972   7.8330  0.00  0.00     0.000 OA
ENDBRANCH 28 37
BRANCH 24 40
ATOM     40  O4  SUS B   3       2.476 -11.683  12.2620  0.00  0.00     0.000 O
BRANCH 40 44
ATOM     41  C1  SUS B   3       2.431 -10.073  16.1280  0.00  0.00     0.000 C
ATOM     42  C2  SUS B   3       1.212  -9.784  15.2300  0.00  0.00     0.000 C
ATOM     43  C3  SUS B   3       1.169 -10.805  14.0950  0.00  0.00     0.000 C
ATOM     44  C4  SUS B   3       2.500 -10.778  13.3590  0.00  0.00     0.000 C
ATOM     45  C5  SUS B   3       3.602 -11.167  14.3240  0.00  0.00     0.000 C
ATOM     46  O5  SUS B   3       3.645 -10.183  15.3770  0.00  0.00     0.000 O
BRANCH 42 49
ATOM     47   N  SUS B   3       0.078  -9.704  16.1670  0.00  0.00     0.000 N
ATOM     49  HD  SUS B   3      -0.559 -10.280  16.0530  0.00  0.00     0.000 HD
ATOM     49   S  SUS B   3      -0.577  -8.243  16.2200  0.00  0.00     0.000 S
ATOM     50   O  SUS B   3      -1.000  -7.859  14.9310  0.00  0.00     0.000 OA
ATOM     51   O  SUS B   3      -1.794  -8.624  17.1030  0.00  0.00     0.000 OA
ATOM     52   O  SUS B   3       0.285  -7.370  16.9120  0.00  0.00     0.000 OA
ENDBRANCH 42 49
BRANCH 43 53
ATOM     53   O  SUS B   3       0.080 -10.419  13.1770  0.00  0.00     0.000 O
ATOM     54   S  SUS B   3      -1.259 -11.372  13.1610  0.00  0.00     0.000 S
ATOM     55   O  SUS B   3      -1.966 -11.152  14.4160  0.00  0.00     0.000 OA
ATOM     56   O  SUS B   3      -1.993 -10.927  11.9900  0.00  0.00     0.000 OA
ATOM     57   O  SUS B   3      -0.784 -12.754  13.0550  0.00  0.00     0.000 OA
ENDBRANCH 43 53
BRANCH 45 58
ATOM     58   C  SUS B   3       4.947 -11.260  13.6390  0.00  0.00     0.000 C
ATOM     59   S  SUS B   3       7.467 -11.371  14.1140  0.00  0.00     0.000 S
ATOM     60   O  SUS B   3       5.971 -11.466  14.6270  0.00  0.00     0.000 O
ATOM     61   O  SUS B   3       7.736  -9.951  13.9880  0.00  0.00     0.000 OA
ATOM     62   O  SUS B   3       8.166 -11.974  15.2170  0.00  0.00     0.000 OA
ATOM     63   O  SUS B   3       7.499 -12.106  12.9000  0.00  0.00     0.000 OA
ENDBRANCH 45 58
BRANCH 41 64
ATOM     64  O4  IDS B   4       2.229 -11.096  17.0230  0.00  0.00     0.000 O
BRANCH 64 68
ATOM     65  C1  IDS B   4       2.213 -12.909  20.1830  0.00  0.00     0.000 C
ATOM     66  C2  IDS B   4       1.542 -11.534  20.0780  0.00  0.00     0.000 C
ATOM     67  C3  IDS B   4       2.378 -10.479  19.3730  0.00  0.00     0.000 C
ATOM     68  C4  IDS B   4       3.114 -11.022  18.1630  0.00  0.00     0.000 C
ATOM     69  C5  IDS B   4       3.731 -12.374  18.5450  0.00  0.00     0.000 C
ATOM     70  O5  IDS B   4       2.688 -13.283  18.9020  0.00  0.00     0.000 O
ATOM     71   O  IDS B   4       3.308  -9.984  20.3140  0.00  0.00     0.000 O
ATOM     73  HD  IDS B   4       2.591 -10.395  20.0580  0.00  0.00     0.000 HD
BRANCH 66 73
ATOM     73   O  IDS B   4       0.319 -11.664  19.2750  0.00  0.00     0.000 O
ATOM     74   S  IDS B   4      -1.064 -11.105  19.9020  0.00  0.00     0.000 S
ATOM     75   O  IDS B   4      -1.241 -11.779  21.1700  0.00  0.00     0.000 OA
ATOM     76   O  IDS B   4      -2.022 -11.487  18.8950  0.00  0.00     0.000 OA
ATOM     77   O  IDS B   4      -0.878  -9.679  20.0340  0.00  0.00     0.000 OA
ENDBRANCH 66 73
BRANCH 69 78
ATOM     78   C  IDS B   4       4.687 -12.946  17.5070  0.00  0.00     0.000 C
ATOM     79   O  IDS B   4       4.227 -13.633  16.5960  0.00  0.00     0.000 OA
ATOM     80   O  IDS B   4       5.885 -12.613  17.5520  0.00  0.00     0.000 OA
ENDBRANCH 69 78
BRANCH 65 81
ATOM     81  O4  SGN B   5       3.125 -12.892  21.1950  0.00  0.00     0.000 O
BRANCH 81 85
ATOM     82  C1  SGN B   5       4.887 -15.231  24.2050  0.00  0.00     0.000 C
ATOM     83  C2  SGN B   5       5.135 -15.662  22.7520  0.00  0.00     0.000 C
ATOM     84  C3  SGN B   5       4.838 -14.487  21.8100  0.00  0.00     0.000 C
ATOM     85  C4  SGN B   5       3.422 -13.995  22.0540  0.00  0.00     0.000 C
ATOM     86  C5  SGN B   5       3.305 -13.576  23.5170  0.00  0.00     0.000 C
ATOM     87  O5  SGN B   5       3.575 -14.721  24.3490  0.00  0.00     0.000 O
ATOM     88   O  SGN B   5       5.009 -14.892  20.4700  0.00  0.00     0.000 O
ATOM     90  HD  SGN B   5       5.575 -14.425  20.9290  0.00  0.00     0.000 HD
BRANCH 83 92
ATOM     90   N  SGN B   5       5.480 -16.976  23.3280  0.00  0.00     0.000 N
ATOM     92  HD  SGN B   5       4.768 -17.448  23.4730  0.00  0.00     0.000 HD
ATOM     92   S  SGN B   5       6.705 -17.779  22.6890  0.00  0.00     0.000 S
ATOM     93   O  SGN B   5       6.773 -18.989  23.4520  0.00  0.00     0.000 OA
ATOM     94   O  SGN B   5       6.444 -17.831  21.2910  0.00  0.00     0.000 OA
ATOM     95   O  SGN B   5       7.903 -16.877  22.8920  0.00  0.00     0.000 OA
ENDBRANCH 83 92
BRANCH 86 96
ATOM     96   C  SGN B   5       1.939 -13.049  23.9040  0.00  0.00     0.000 C
ATOM     97   O  SGN B   5       0.911 -13.767  23.2190  0.00  0.00     0.000 O
ATOM     98   S  SGN B   5      -0.274 -14.347  24.1310  0.00  0.00     0.000 S
ATOM     99   O  SGN B   5      -1.225 -14.820  23.1540  0.00  0.00     0.000 OA
ATOM    100   O  SGN B   5       0.280 -15.359  24.9560  0.00  0.00     0.000 OA
ATOM    101   O  SGN B   5      -0.737 -13.219  24.8710  0.00  0.00     0.000 OA
ENDBRANCH 86 96
BRANCH 82 102
ATOM    102  O4  IDS B   6       5.801 -14.321  24.6460  0.00  0.00     0.000 O
BRANCH 102 106
ATOM    103  C1  IDS B   6       8.516 -13.059  26.7180  0.00  0.00     0.000 C
ATOM    104  C2  IDS B   6       8.633 -14.420  26.0130  0.00  0.00     0.000 C
ATOM    105  C3  IDS B   6       7.424 -15.325  26.1580  0.00  0.00     0.000 C
ATOM    106  C4  IDS B   6       6.111 -14.572  26.0400  0.00  0.00     0.000 C
ATOM    107  C5  IDS B   6       6.194 -13.260  26.8250  0.00  0.00     0.000 C
ATOM    108  O5  IDS B   6       7.284 -12.446  26.3890  0.00  0.00     0.000 O
ATOM    109   O  IDS B   6       7.516 -15.985  27.4100  0.00  0.00     0.000 O
ATOM    111  HD  IDS B   6       8.028 -15.469  27.8810  0.00  0.00     0.000 HD
BRANCH 104 111
ATOM    111   O  IDS B   6       8.780 -14.198  24.5660  0.00  0.00     0.000 O
ATOM    112   S  IDS B   6      10.253 -14.254  23.9420  0.00  0.00     0.000 S
ATOM    113   O  IDS B   6      10.994 -13.228  24.6600  0.00  0.00     0.000 OA
ATOM    114   O  IDS B   6      10.777 -15.615  24.1070  0.00  0.00     0.000 OA
ATOM    115   O  IDS B   6       9.941 -13.904  22.5730  0.00  0.00     0.000 OA
ENDBRANCH 104 111
BRANCH 107 116
ATOM    116   C  IDS B   6       4.885 -12.496  26.6700  0.00  0.00     0.000 C
ATOM    117   O  IDS B   6       3.930 -12.932  27.2620  0.00  0.00     0.000 OA
ATOM    118   O  IDS B   6       4.811 -11.497  25.9720  0.00  0.00     0.000 OA
ENDBRANCH 107 116
BRANCH 103 119
ATOM    119  O4  SGN B   7       8.846 -13.336  28.0060  0.00  0.00     0.000 O
BRANCH 119 123
ATOM    120  C1  SGN B   7       9.289 -10.873  31.3570  0.00  0.00     0.000 C
ATOM    121  C2  SGN B   7       8.172 -11.933  31.3930  0.00  0.00     0.000 C
ATOM    122  C3  SGN B   7       8.397 -12.989  30.3030  0.00  0.00     0.000 C
ATOM    123  C4  SGN B   7       8.555 -12.308  28.9540  0.00  0.00     0.000 C
ATOM    124  C5  SGN B   7       9.685 -11.268  29.0230  0.00  0.00     0.000 C
ATOM    125  O5  SGN B   7       9.432 -10.294  30.0600  0.00  0.00     0.000 O
ATOM    126   O  SGN B   7       7.291 -13.900  30.3020  0.00  0.00     0.000 O
ATOM    128  HD  SGN B   7       7.709 -13.250  30.6940  0.00  0.00     0.000 HD
BRANCH 121 130
ATOM    128   N  SGN B   7       7.341 -11.342  32.4450  0.00  0.00     0.000 N
ATOM    130  HD  SGN B   7       6.696 -11.886  32.2510  0.00  0.00     0.000 HD
ATOM    130   S  SGN B   7       7.027 -12.109  33.8260  0.00  0.00     0.000 S
ATOM    131   O  SGN B   7       8.296 -12.533  34.3120  0.00  0.00     0.000 OA
ATOM    132   O  SGN B   7       6.197 -11.277  34.6190  0.00  0.00     0.000 OA
ATOM    133   O  SGN B   7       6.076 -13.240  33.3090  0.00  0.00     0.000 OA
ENDBRANCH 121 130
BRANCH 124 134
ATOM    134   C  SGN B   7       9.843 -10.459  27.7690  0.00  0.00     0.000 C
ATOM    135   O  SGN B   7       8.637  -9.705  27.5560  0.00  0.00     0.000 O
ATOM    136   S  SGN B   7       8.658  -8.672  26.3720  0.00  0.00     0.000 S
ATOM    137   O  SGN B   7       7.326  -8.122  26.2900  0.00  0.00     0.000 OA
ATOM    138   O  SGN B   7       9.024  -9.442  25.2050  0.00  0.00     0.000 OA
ATOM    139   O  SGN B   7       9.667  -7.718  26.8060  0.00  0.00     0.000 OA
ENDBRANCH 124 134
BRANCH 120 140
ATOM    140  O4  IDS B   8      10.583 -11.030  31.6590  0.00  0.00     0.000 O
BRANCH 140 144
ATOM    141  C1  IDS B   8      12.862 -10.207  34.3210  0.00  0.00     0.000 C
ATOM    142  C2  IDS B   8      11.705  -9.243  33.9330  0.00  0.00     0.000 C
ATOM    143  C3  IDS B   8      11.620  -8.981  32.4180  0.00  0.00     0.000 C
ATOM    144  C4  IDS B   8      11.792 -10.263  31.6040  0.00  0.00     0.000 C
ATOM    145  C5  IDS B   8      12.965 -11.087  32.1560  0.00  0.00     0.000 C
ATOM    146  O5  IDS B   8      12.791 -11.392  33.5380  0.00  0.00     0.000 O
BRANCH 142 147
ATOM    147   O  IDS B   8      10.406  -9.834  34.3500  0.00  0.00     0.000 O
ATOM    148   S  IDS B   8       9.255  -8.922  35.0380  0.00  0.00     0.000 S
ATOM    149   O  IDS B   8       9.875  -7.692  35.4770  0.00  0.00     0.000 OA
ATOM    150   O  IDS B   8       8.259  -8.710  34.0040  0.00  0.00     0.000 OA
ATOM    151   O  IDS B   8       8.761  -9.707  36.1530  0.00  0.00     0.000 OA
ENDBRANCH 142 147
BRANCH 145 152
ATOM    152   C  IDS B   8      13.123 -12.420  31.4520  0.00  0.00     0.000 C
ATOM    153   O  IDS B   8      12.720 -12.547  30.3020  0.00  0.00     0.000 OA
ATOM    154   O  IDS B   8      13.668 -13.344  32.0290  0.00  0.00     0.000 OA
ENDBRANCH 145 152
ENDBRANCH 140 144
ENDBRANCH 120 140
ENDBRANCH 119 123
ENDBRANCH 103 119
ENDBRANCH 102 106
ENDBRANCH 82 102
ENDBRANCH 81 85
ENDBRANCH 65 81
ENDBRANCH 64 68
ENDBRANCH 41 64
ENDBRANCH 40 44
ENDBRANCH 24 40
ENDBRANCH 23 27
ENDBRANCH 1 23
TORSDOF 31
ENDMDL
MODEL 26
REMARK VINA RESULT:      -7.3      9.032     13.632
ROOT
ATOM      1  C1  SGN B   1      36.535   0.999  13.1970  0.00  0.00     0.000 C
ATOM      2  C2  SGN B   1      36.262   2.492  12.9480  0.00  0.00     0.000 C
ATOM      3  C3  SGN B   1      34.771   2.805  13.1130  0.00  0.00     0.000 C
ATOM      4  C4  SGN B   1      33.941   1.912  12.1970  0.00  0.00     0.000 C
ATOM      5  C5  SGN B   1      34.365   0.459  12.3980  0.00  0.00     0.000 C
ATOM      6  O5  SGN B   1      35.785   0.339  12.1870  0.00  0.00     0.000 O
ATOM      7   O  SGN B   1      34.515   4.177  12.8380  0.00  0.00     0.000 O
ATOM      9  HD  SGN B   1      34.831   3.902  12.0800  0.00  0.00     0.000 HD
ATOM      9   O  SGN B   1      32.568   2.067  12.5070  0.00  0.00     0.000 O
ATOM     11  HD  SGN B   1      32.884   1.791  11.7490  0.00  0.00     0.000 HD
ENDROOT
BRANCH 2 13
ATOM     11   N  SGN B   1      37.583   3.078  12.6530  0.00  0.00     0.000 N
ATOM     13  HD  SGN B   1      37.475   2.558  13.3370  0.00  0.00     0.000 HD
ATOM     13   S  SGN B   1      38.666   3.378  13.8050  0.00  0.00     0.000 S
ATOM     14   O  SGN B   1      38.174   2.954  15.0570  0.00  0.00     0.000 OA
ATOM     15   O  SGN B   1      39.937   2.915  13.3590  0.00  0.00     0.000 OA
ATOM     16   O  SGN B   1      38.680   4.934  13.6980  0.00  0.00     0.000 OA
ENDBRANCH 2 13
BRANCH 5 17
ATOM     17   C  SGN B   1      33.688  -0.513  11.4640  0.00  0.00     0.000 C
ATOM     18   O  SGN B   1      33.289   0.139  10.2420  0.00  0.00     0.000 O
ATOM     19   S  SGN B   1      31.813  -0.189   9.7210  0.00  0.00     0.000 S
ATOM     20   O  SGN B   1      31.748   0.384   8.3930  0.00  0.00     0.000 OA
ATOM     21   O  SGN B   1      31.748  -1.632   9.7330  0.00  0.00     0.000 OA
ATOM     22   O  SGN B   1      30.928   0.447  10.6710  0.00  0.00     0.000 OA
ENDBRANCH 5 17
BRANCH 1 23
ATOM     23  O4  IDS B   2      36.846   0.140  14.2100  0.00  0.00     0.000 O
BRANCH 23 27
ATOM     24  C1  IDS B   2      40.588  -0.238  15.9680  0.00  0.00     0.000 C
ATOM     25  C2  IDS B   2      40.499  -0.673  14.4880  0.00  0.00     0.000 C
ATOM     26  C3  IDS B   2      39.182  -0.220  13.8640  0.00  0.00     0.000 C
ATOM     27  C4  IDS B   2      37.953  -0.682  14.6360  0.00  0.00     0.000 C
ATOM     28  C5  IDS B   2      38.235  -0.636  16.1510  0.00  0.00     0.000 C
ATOM     29  O5  IDS B   2      39.319   0.234  16.4400  0.00  0.00     0.000 O
ATOM     30   O  IDS B   2      39.083  -0.745  12.5460  0.00  0.00     0.000 O
ATOM     32  HD  IDS B   2      38.841  -1.576  12.5260  0.00  0.00     0.000 HD
BRANCH 25 32
ATOM     32   O  IDS B   2      41.600  -0.108  13.6700  0.00  0.00     0.000 O
ATOM     33   S  IDS B   2      42.871  -1.031  13.1640  0.00  0.00     0.000 S
ATOM     34   O  IDS B   2      43.841  -0.107  12.5970  0.00  0.00     0.000 OA
ATOM     35   O  IDS B   2      43.426  -1.755  14.2980  0.00  0.00     0.000 OA
ATOM     36   O  IDS B   2      42.334  -1.915  12.1550  0.00  0.00     0.000 OA
ENDBRANCH 25 32
BRANCH 28 37
ATOM     37   C  IDS B   2      37.064  -0.281  17.0910  0.00  0.00     0.000 C
ATOM     38   O  IDS B   2      36.015  -0.764  16.7350  0.00  0.00     0.000 OA
ATOM     39   O  IDS B   2      37.126   0.372  18.1620  0.00  0.00     0.000 OA
ENDBRANCH 28 37
BRANCH 24 40
ATOM     40  O4  SUS B   3      41.650  -0.604  16.7140  0.00  0.00     0.000 O
BRANCH 40 44
ATOM     41  C1  SUS B   3      43.511   1.338  19.9260  0.00  0.00     0.000 C
ATOM     42  C2  SUS B   3      42.106   0.752  20.1740  0.00  0.00     0.000 C
ATOM     43  C3  SUS B   3      41.803  -0.297  19.1060  0.00  0.00     0.000 C
ATOM     44  C4  SUS B   3      41.975   0.334  17.7340  0.00  0.00     0.000 C
ATOM     45  C5  SUS B   3      43.413   0.786  17.5790  0.00  0.00     0.000 C
ATOM     46  O5  SUS B   3      43.679   1.791  18.5780  0.00  0.00     0.000 O
BRANCH 42 49
ATOM     47   N  SUS B   3      41.996   0.249  21.5540  0.00  0.00     0.000 N
ATOM     49  HD  SUS B   3      41.720  -0.566  21.6490  0.00  0.00     0.000 HD
ATOM     49   S  SUS B   3      41.094   1.191  22.4840  0.00  0.00     0.000 S
ATOM     50   O  SUS B   3      39.807   1.326  21.9250  0.00  0.00     0.000 OA
ATOM     51   O  SUS B   3      41.059   0.249  23.7140  0.00  0.00     0.000 OA
ATOM     52   O  SUS B   3      41.803   2.372  22.7820  0.00  0.00     0.000 OA
ENDBRANCH 42 49
BRANCH 43 53
ATOM     53   O  SUS B   3      40.406  -0.737  19.2850  0.00  0.00     0.000 O
ATOM     54   S  SUS B   3      40.164  -2.293  19.7560  0.00  0.00     0.000 S
ATOM     55   O  SUS B   3      40.588  -2.399  21.1450  0.00  0.00     0.000 OA
ATOM     56   O  SUS B   3      38.741  -2.503  19.5600  0.00  0.00     0.000 OA
ATOM     57   O  SUS B   3      40.996  -3.125  18.8820  0.00  0.00     0.000 OA
ENDBRANCH 43 53
BRANCH 45 58
ATOM     58   C  SUS B   3      43.688   1.337  16.1960  0.00  0.00     0.000 C
ATOM     59   S  SUS B   3      44.246   3.507  14.9470  0.00  0.00     0.000 S
ATOM     60   O  SUS B   3      44.120   2.703  16.3050  0.00  0.00     0.000 O
ATOM     61   O  SUS B   3      42.886   3.863  14.5890  0.00  0.00     0.000 OA
ATOM     62   O  SUS B   3      45.021   4.640  15.3770  0.00  0.00     0.000 OA
ATOM     63   O  SUS B   3      44.902   2.629  14.0440  0.00  0.00     0.000 OA
ENDBRANCH 45 58
BRANCH 41 64
ATOM     64  O4  IDS B   4      44.532   0.542  20.3830  0.00  0.00     0.000 O
BRANCH 64 68
ATOM     65  C1  IDS B   4      47.852  -0.257  21.6530  0.00  0.00     0.000 C
ATOM     66  C2  IDS B   4      47.084   0.951  22.2040  0.00  0.00     0.000 C
ATOM     67  C3  IDS B   4      46.453   1.832  21.1400  0.00  0.00     0.000 C
ATOM     68  C4  IDS B   4      45.836   1.037  20.0050  0.00  0.00     0.000 C
ATOM     69  C5  IDS B   4      46.819  -0.073  19.6100  0.00  0.00     0.000 C
ATOM     70  O5  IDS B   4      47.025  -0.940  20.7280  0.00  0.00     0.000 O
ATOM     71   O  IDS B   4      47.469   2.674  20.6350  0.00  0.00     0.000 O
ATOM     73  HD  IDS B   4      47.105   2.135  21.2060  0.00  0.00     0.000 HD
BRANCH 66 73
ATOM     73   O  IDS B   4      45.966   0.467  23.0250  0.00  0.00     0.000 O
ATOM     74   S  IDS B   4      45.910   0.924  24.5760  0.00  0.00     0.000 S
ATOM     75   O  IDS B   4      47.163   0.511  25.1700  0.00  0.00     0.000 OA
ATOM     76   O  IDS B   4      44.764   0.195  25.0580  0.00  0.00     0.000 OA
ATOM     77   O  IDS B   4      45.735   2.357  24.5490  0.00  0.00     0.000 OA
ENDBRANCH 66 73
BRANCH 69 78
ATOM     78   C  IDS B   4      46.444  -0.824  18.3400  0.00  0.00     0.000 C
ATOM     79   O  IDS B   4      46.924  -0.451  17.2700  0.00  0.00     0.000 OA
ATOM     80   O  IDS B   4      45.751  -1.853  18.4380  0.00  0.00     0.000 OA
ENDBRANCH 69 78
BRANCH 65 81
ATOM     81  O4  SGN B   5      49.071   0.148  21.2020  0.00  0.00     0.000 O
BRANCH 81 85
ATOM     82  C1  SGN B   5      52.613  -1.333  19.5000  0.00  0.00     0.000 C
ATOM     83  C2  SGN B   5      51.590  -0.704  18.5430  0.00  0.00     0.000 C
ATOM     84  C3  SGN B   5      50.616   0.176  19.3400  0.00  0.00     0.000 C
ATOM     85  C4  SGN B   5      49.976  -0.653  20.4390  0.00  0.00     0.000 C
ATOM     86  C5  SGN B   5      51.084  -1.203  21.3330  0.00  0.00     0.000 C
ATOM     87  O5  SGN B   5      51.951  -2.033  20.5370  0.00  0.00     0.000 O
ATOM     88   O  SGN B   5      49.638   0.712  18.4760  0.00  0.00     0.000 O
ATOM     90  HD  SGN B   5      50.328   1.139  18.7800  0.00  0.00     0.000 HD
BRANCH 83 92
ATOM     90   N  SGN B   5      52.305  -1.450  17.4900  0.00  0.00     0.000 N
ATOM     92  HD  SGN B   5      52.031  -2.270  17.4500  0.00  0.00     0.000 HD
ATOM     92   S  SGN B   5      52.515  -0.737  16.0750  0.00  0.00     0.000 S
ATOM     93   O  SGN B   5      53.221  -1.705  15.2910  0.00  0.00     0.000 OA
ATOM     94   O  SGN B   5      51.224  -0.295  15.6700  0.00  0.00     0.000 OA
ATOM     95   O  SGN B   5      53.337   0.495  16.3840  0.00  0.00     0.000 OA
ENDBRANCH 83 92
BRANCH 86 96
ATOM     96   C  SGN B   5      50.588  -2.046  22.4890  0.00  0.00     0.000 C
ATOM     97   O  SGN B   5      50.045  -3.280  22.0130  0.00  0.00     0.000 O
ATOM     98   S  SGN B   5      50.594  -4.612  22.7180  0.00  0.00     0.000 S
ATOM     99   O  SGN B   5      49.729  -5.635  22.1810  0.00  0.00     0.000 OA
ATOM    100   O  SGN B   5      51.961  -4.748  22.3650  0.00  0.00     0.000 OA
ATOM    101   O  SGN B   5      50.399  -4.382  24.1120  0.00  0.00     0.000 OA
ENDBRANCH 86 96
BRANCH 82 102
ATOM    102  O4  IDS B   6      53.476  -0.416  20.0220  0.00  0.00     0.000 O
BRANCH 102 106
ATOM    103  C1  IDS B   6      56.677   1.189  20.6830  0.00  0.00     0.000 C
ATOM    104  C2  IDS B   6      56.194   0.963  19.2420  0.00  0.00     0.000 C
ATOM    105  C3  IDS B   6      55.664  -0.428  18.9520  0.00  0.00     0.000 C
ATOM    106  C4  IDS B   6      54.812  -0.978  20.0820  0.00  0.00     0.000 C
ATOM    107  C5  IDS B   6      55.474  -0.667  21.4280  0.00  0.00     0.000 C
ATOM    108  O5  IDS B   6      55.699   0.734  21.5990  0.00  0.00     0.000 O
ATOM    109   O  IDS B   6      56.770  -1.277  18.6960  0.00  0.00     0.000 O
ATOM    111  HD  IDS B   6      57.433  -0.880  19.0870  0.00  0.00     0.000 HD
BRANCH 104 111
ATOM    111   O  IDS B   6      55.071   1.872  18.9650  0.00  0.00     0.000 O
ATOM    112   S  IDS B   6      55.359   3.179  18.0870  0.00  0.00     0.000 S
ATOM    113   O  IDS B   6      56.384   3.899  18.8270  0.00  0.00     0.000 OA
ATOM    114   O  IDS B   6      55.759   2.755  16.7400  0.00  0.00     0.000 OA
ATOM    115   O  IDS B   6      54.050   3.794  18.1460  0.00  0.00     0.000 OA
ENDBRANCH 104 111
BRANCH 107 116
ATOM    116   C  IDS B   6      54.594  -1.190  22.5560  0.00  0.00     0.000 C
ATOM    117   O  IDS B   6      53.938  -0.376  23.1540  0.00  0.00     0.000 OA
ATOM    118   O  IDS B   6      54.567  -2.377  22.8410  0.00  0.00     0.000 OA
ENDBRANCH 107 116
BRANCH 103 119
ATOM    119  O4  SGN B   7      57.936   0.681  20.6830  0.00  0.00     0.000 O
BRANCH 119 123
ATOM    120  C1  SGN B   7      61.376   1.147  23.0150  0.00  0.00     0.000 C
ATOM    121  C2  SGN B   7      60.328   0.122  23.4870  0.00  0.00     0.000 C
ATOM    122  C3  SGN B   7      59.357  -0.217  22.3490  0.00  0.00     0.000 C
ATOM    123  C4  SGN B   7      58.757   1.062  21.7870  0.00  0.00     0.000 C
ATOM    124  C5  SGN B   7      59.880   2.018  21.3520  0.00  0.00     0.000 C
ATOM    125  O5  SGN B   7      60.769   2.310  22.4540  0.00  0.00     0.000 O
ATOM    126   O  SGN B   7      58.341  -1.094  22.8490  0.00  0.00     0.000 O
ATOM    128  HD  SGN B   7      59.100  -0.697  22.9790  0.00  0.00     0.000 HD
BRANCH 121 130
ATOM    128   N  SGN B   7      60.739   0.032  24.8900  0.00  0.00     0.000 N
ATOM    130  HD  SGN B   7      60.005  -0.383  25.0860  0.00  0.00     0.000 HD
ATOM    130   S  SGN B   7      61.221  -1.352  25.5570  0.00  0.00     0.000 S
ATOM    131   O  SGN B   7      62.205  -1.870  24.6700  0.00  0.00     0.000 OA
ATOM    132   O  SGN B   7      61.540  -1.105  26.9170  0.00  0.00     0.000 OA
ATOM    133   O  SGN B   7      59.862  -2.129  25.6050  0.00  0.00     0.000 OA
ENDBRANCH 121 130
BRANCH 124 134
ATOM    134   C  SGN B   7      59.390   3.358  20.8890  0.00  0.00     0.000 C
ATOM    135   O  SGN B   7      59.785   4.348  21.8550  0.00  0.00     0.000 O
ATOM    136   S  SGN B   7      59.499   5.846  21.4780  0.00  0.00     0.000 S
ATOM    137   O  SGN B   7      59.879   6.634  22.6260  0.00  0.00     0.000 OA
ATOM    138   O  SGN B   7      58.082   5.902  21.1980  0.00  0.00     0.000 OA
ATOM    139   O  SGN B   7      60.351   6.045  20.3160  0.00  0.00     0.000 OA
ENDBRANCH 124 134
BRANCH 120 140
ATOM    140  O4  IDS B   8      62.355   0.971  22.1200  0.00  0.00     0.000 O
BRANCH 140 144
ATOM    141  C1  IDS B   8      65.920   0.504  21.9340  0.00  0.00     0.000 C
ATOM    142  C2  IDS B   8      65.289   1.414  23.0260  0.00  0.00     0.000 C
ATOM    143  C3  IDS B   8      64.266   2.415  22.4600  0.00  0.00     0.000 C
ATOM    144  C4  IDS B   8      63.333   1.766  21.4380  0.00  0.00     0.000 C
ATOM    145  C5  IDS B   8      64.139   0.891  20.4660  0.00  0.00     0.000 C
ATOM    146  O5  IDS B   8      64.896  -0.102  21.1550  0.00  0.00     0.000 O
BRANCH 142 147
ATOM    147   O  IDS B   8      64.575   0.571  24.0220  0.00  0.00     0.000 O
ATOM    148   S  IDS B   8      64.619   0.928  25.6030  0.00  0.00     0.000 S
ATOM    149   O  IDS B   8      65.708   1.854  25.8140  0.00  0.00     0.000 OA
ATOM    150   O  IDS B   8      63.323   1.507  25.9050  0.00  0.00     0.000 OA
ATOM    151   O  IDS B   8      64.846  -0.338  26.2740  0.00  0.00     0.000 OA
ENDBRANCH 142 147
BRANCH 145 152
ATOM    152   C  IDS B   8      63.258   0.141  19.4890  0.00  0.00     0.000 C
ATOM    153   O  IDS B   8      63.507  -1.030  19.2260  0.00  0.00     0.000 OA
ATOM    154   O  IDS B   8      62.299   0.702  18.9900  0.00  0.00     0.000 OA
ENDBRANCH 145 152
ENDBRANCH 140 144
ENDBRANCH 120 140
ENDBRANCH 119 123
ENDBRANCH 103 119
ENDBRANCH 102 106
ENDBRANCH 82 102
ENDBRANCH 81 85
ENDBRANCH 65 81
ENDBRANCH 64 68
ENDBRANCH 41 64
ENDBRANCH 40 44
ENDBRANCH 24 40
ENDBRANCH 23 27
ENDBRANCH 1 23
TORSDOF 31
ENDMDL
MODEL 27
REMARK VINA RESULT:      -7.2     11.209     21.567
ROOT
ATOM      1  C1  SGN B   1      67.155   2.145  24.2430  0.00  0.00     0.000 C
ATOM      2  C2  SGN B   1      68.528   1.515  24.5290  0.00  0.00     0.000 C
ATOM      3  C3  SGN B   1      68.501   0.731  25.8460  0.00  0.00     0.000 C
ATOM      4  C4  SGN B   1      68.037   1.633  26.9860  0.00  0.00     0.000 C
ATOM      5  C5  SGN B   1      66.744   2.333  26.5740  0.00  0.00     0.000 C
ATOM      6  O5  SGN B   1      66.950   3.034  25.3320  0.00  0.00     0.000 O
ATOM      7   O  SGN B   1      69.784   0.187  26.1310  0.00  0.00     0.000 O
ATOM      9  HD  SGN B   1      69.951   1.037  26.1210  0.00  0.00     0.000 HD
ATOM      9   O  SGN B   1      67.822   0.851  28.1460  0.00  0.00     0.000 O
ATOM     11  HD  SGN B   1      67.989   1.701  28.1370  0.00  0.00     0.000 HD
ENDROOT
BRANCH 2 13
ATOM     11   N  SGN B   1      69.131   2.054  23.2960  0.00  0.00     0.000 N
ATOM     13  HD  SGN B   1      68.520   1.442  23.2560  0.00  0.00     0.000 HD
ATOM     13   S  SGN B   1      69.246   1.186  21.9460  0.00  0.00     0.000 S
ATOM     14   O  SGN B   1      68.654  -0.080  22.1300  0.00  0.00     0.000 OA
ATOM     15   O  SGN B   1      68.833   2.000  20.8520  0.00  0.00     0.000 OA
ATOM     16   O  SGN B   1      70.801   1.082  21.8800  0.00  0.00     0.000 OA
ENDBRANCH 2 13
BRANCH 5 17
ATOM     17   C  SGN B   1      66.243   3.339  27.5810  0.00  0.00     0.000 C
ATOM     18   O  SGN B   1      65.185   4.143  27.0220  0.00  0.00     0.000 O
ATOM     19   S  SGN B   1      65.283   5.716  27.2910  0.00  0.00     0.000 S
ATOM     20   O  SGN B   1      64.014   6.252  26.8460  0.00  0.00     0.000 OA
ATOM     21   O  SGN B   1      65.485   5.818  28.7170  0.00  0.00     0.000 OA
ATOM     22   O  SGN B   1      66.410   6.165  26.5030  0.00  0.00     0.000 OA
ENDBRANCH 5 17
BRANCH 1 23
ATOM     23  O4  IDS B   2      65.975   1.862  23.6200  0.00  0.00     0.000 O
BRANCH 23 27
ATOM     24  C1  IDS B   2      62.633   1.608  21.1720  0.00  0.00     0.000 C
ATOM     25  C2  IDS B   2      63.880   0.841  20.6790  0.00  0.00     0.000 C
ATOM     26  C3  IDS B   2      64.936   0.753  21.7780  0.00  0.00     0.000 C
ATOM     27  C4  IDS B   2      65.328   2.107  22.3540  0.00  0.00     0.000 C
ATOM     28  C5  IDS B   2      64.090   3.023  22.4370  0.00  0.00     0.000 C
ATOM     29  O5  IDS B   2      62.893   2.260  22.4210  0.00  0.00     0.000 O
ATOM     30   O  IDS B   2      66.113   0.153  21.2500  0.00  0.00     0.000 O
ATOM     32  HD  IDS B   2      66.598   0.702  20.7870  0.00  0.00     0.000 HD
BRANCH 25 32
ATOM     32   O  IDS B   2      63.557  -0.543  20.2560  0.00  0.00     0.000 O
ATOM     33   S  IDS B   2      63.878  -1.085  18.7300  0.00  0.00     0.000 S
ATOM     34   O  IDS B   2      63.231  -2.383  18.6170  0.00  0.00     0.000 OA
ATOM     35   O  IDS B   2      63.346  -0.139  17.7590  0.00  0.00     0.000 OA
ATOM     36   O  IDS B   2      65.315  -1.205  18.6530  0.00  0.00     0.000 OA
ENDBRANCH 25 32
BRANCH 28 37
ATOM     37   C  IDS B   2      64.013   4.025  23.6080  0.00  0.00     0.000 C
ATOM     38   O  IDS B   2      63.186   3.715  24.4330  0.00  0.00     0.000 OA
ATOM     39   O  IDS B   2      64.739   5.033  23.7890  0.00  0.00     0.000 OA
ENDBRANCH 28 37
BRANCH 24 40
ATOM     40  O4  SUS B   3      61.614   1.851  20.3210  0.00  0.00     0.000 O
BRANCH 40 44
ATOM     41  C1  SUS B   3      57.478   1.888  20.9850  0.00  0.00     0.000 C
ATOM     42  C2  SUS B   3      58.317   2.963  21.7050  0.00  0.00     0.000 C
ATOM     43  C3  SUS B   3      59.663   3.107  20.9980  0.00  0.00     0.000 C
ATOM     44  C4  SUS B   3      60.332   1.743  20.9310  0.00  0.00     0.000 C
ATOM     45  C5  SUS B   3      59.456   0.806  20.1240  0.00  0.00     0.000 C
ATOM     46  O5  SUS B   3      58.197   0.662  20.8140  0.00  0.00     0.000 O
BRANCH 42 49
ATOM     47   N  SUS B   3      56.983   3.345  22.1980  0.00  0.00     0.000 N
ATOM     49  HD  SUS B   3      56.399   3.571  21.6000  0.00  0.00     0.000 HD
ATOM     49   S  SUS B   3      57.042   4.508  23.2990  0.00  0.00     0.000 S
ATOM     50   O  SUS B   3      57.693   5.640  22.7670  0.00  0.00     0.000 OA
ATOM     51   O  SUS B   3      55.513   4.749  23.3870  0.00  0.00     0.000 OA
ATOM     52   O  SUS B   3      57.534   3.981  24.5090  0.00  0.00     0.000 OA
ENDBRANCH 42 49
BRANCH 43 53
ATOM     53   O  SUS B   3      60.494   4.035  21.7880  0.00  0.00     0.000 O
ATOM     54   S  SUS B   3      61.049   5.380  21.0240  0.00  0.00     0.000 S
ATOM     55   O  SUS B   3      59.910   6.262  20.8100  0.00  0.00     0.000 OA
ATOM     56   O  SUS B   3      62.043   5.918  21.9350  0.00  0.00     0.000 OA
ATOM     57   O  SUS B   3      61.617   4.929  19.7500  0.00  0.00     0.000 OA
ENDBRANCH 43 53
BRANCH 45 58
ATOM     58   C  SUS B   3      60.103  -0.547  19.9280  0.00  0.00     0.000 C
ATOM     59   S  SUS B   3      60.327  -2.868  20.9990  0.00  0.00     0.000 S
ATOM     60   O  SUS B   3      59.601  -1.463  20.9160  0.00  0.00     0.000 O
ATOM     61   O  SUS B   3      61.562  -2.615  21.7180  0.00  0.00     0.000 OA
ATOM     62   O  SUS B   3      59.375  -3.615  21.7760  0.00  0.00     0.000 OA
ATOM     63   O  SUS B   3      60.483  -3.296  19.6540  0.00  0.00     0.000 OA
ENDBRANCH 45 58
BRANCH 41 64
ATOM     64  O4  IDS B   4      56.859   2.340  19.8450  0.00  0.00     0.000 O
BRANCH 64 68
ATOM     65  C1  IDS B   4      54.443   2.737  17.1470  0.00  0.00     0.000 C
ATOM     66  C2  IDS B   4      54.217   3.434  18.4940  0.00  0.00     0.000 C
ATOM     67  C3  IDS B   4      54.437   2.544  19.7060  0.00  0.00     0.000 C
ATOM     68  C4  IDS B   4      55.636   1.627  19.5550  0.00  0.00     0.000 C
ATOM     69  C5  IDS B   4      55.601   1.023  18.1450  0.00  0.00     0.000 C
ATOM     70  O5  IDS B   4      55.694   2.074  17.1800  0.00  0.00     0.000 O
ATOM     71   O  IDS B   4      53.265   1.773  19.8780  0.00  0.00     0.000 O
ATOM     73  HD  IDS B   4      53.736   2.433  19.5730  0.00  0.00     0.000 HD
BRANCH 66 73
ATOM     73   O  IDS B   4      55.190   4.527  18.6310  0.00  0.00     0.000 O
ATOM     74   S  IDS B   4      54.652   5.959  19.1590  0.00  0.00     0.000 S
ATOM     75   O  IDS B   4      53.595   6.358  18.2550  0.00  0.00     0.000 OA
ATOM     76   O  IDS B   4      55.839   6.771  19.0700  0.00  0.00     0.000 OA
ATOM     77   O  IDS B   4      54.193   5.724  20.5070  0.00  0.00     0.000 OA
ENDBRANCH 66 73
BRANCH 69 78
ATOM     78   C  IDS B   4      56.615  -0.088  17.9110  0.00  0.00     0.000 C
ATOM     79   O  IDS B   4      57.574   0.133  17.1720  0.00  0.00     0.000 OA
ATOM     80   O  IDS B   4      56.500  -1.146  18.5570  0.00  0.00     0.000 OA
ENDBRANCH 69 78
BRANCH 65 81
ATOM     81  O4  SGN B   5      53.355   1.977  16.8410  0.00  0.00     0.000 O
BRANCH 81 85
ATOM     82  C1  SGN B   5      50.830   0.905  13.6610  0.00  0.00     0.000 C
ATOM     83  C2  SGN B   5      52.036  -0.007  13.9330  0.00  0.00     0.000 C
ATOM     84  C3  SGN B   5      52.558   0.242  15.3540  0.00  0.00     0.000 C
ATOM     85  C4  SGN B   5      52.876   1.718  15.5200  0.00  0.00     0.000 C
ATOM     86  C5  SGN B   5      51.602   2.516  15.2500  0.00  0.00     0.000 C
ATOM     87  O5  SGN B   5      51.173   2.257  13.9000  0.00  0.00     0.000 O
ATOM     88   O  SGN B   5      53.701  -0.550  15.5910  0.00  0.00     0.000 O
ATOM     90  HD  SGN B   5      52.902  -0.723  15.8770  0.00  0.00     0.000 HD
BRANCH 83 92
ATOM     90   N  SGN B   5      51.285  -1.126  13.3310  0.00  0.00     0.000 N
ATOM     92  HD  SGN B   5      50.484  -0.879  13.1100  0.00  0.00     0.000 HD
ATOM     92   S  SGN B   5      52.033  -2.039  12.2540  0.00  0.00     0.000 S
ATOM     93   O  SGN B   5      51.051  -3.007  11.8670  0.00  0.00     0.000 OA
ATOM     94   O  SGN B   5      52.566  -1.140  11.2890  0.00  0.00     0.000 OA
ATOM     95   O  SGN B   5      53.200  -2.641  13.0040  0.00  0.00     0.000 OA
ENDBRANCH 83 92
BRANCH 86 96
ATOM     96   C  SGN B   5      51.767   4.015  15.3910  0.00  0.00     0.000 C
ATOM     97   O  SGN B   5      52.103   4.604  14.1330  0.00  0.00     0.000 O
ATOM     98   S  SGN B   5      51.210   5.856  13.6790  0.00  0.00     0.000 S
ATOM     99   O  SGN B   5      51.907   6.338  12.5110  0.00  0.00     0.000 OA
ATOM    100   O  SGN B   5      49.898   5.376  13.4300  0.00  0.00     0.000 OA
ATOM    101   O  SGN B   5      51.271   6.756  14.7850  0.00  0.00     0.000 OA
ENDBRANCH 86 96
BRANCH 82 102
ATOM    102  O4  IDS B   6      49.734   0.557  14.3940  0.00  0.00     0.000 O
BRANCH 102 106
ATOM    103  C1  IDS B   6      46.258  -0.500  14.6260  0.00  0.00     0.000 C
ATOM    104  C2  IDS B   6      47.142  -0.958  13.4560  0.00  0.00     0.000 C
ATOM    105  C3  IDS B   6      47.949   0.141  12.7910  0.00  0.00     0.000 C
ATOM    106  C4  IDS B   6      48.541   1.119  13.7900  0.00  0.00     0.000 C
ATOM    107  C5  IDS B   6      47.499   1.462  14.8590  0.00  0.00     0.000 C
ATOM    108  O5  IDS B   6      47.012   0.294  15.5220  0.00  0.00     0.000 O
ATOM    109   O  IDS B   6      47.106   0.811  11.8690  0.00  0.00     0.000 O
ATOM    111  HD  IDS B   6      46.307   0.649  12.1610  0.00  0.00     0.000 HD
BRANCH 104 111
ATOM    111   O  IDS B   6      48.135  -1.922  13.9540  0.00  0.00     0.000 O
ATOM    112   S  IDS B   6      47.876  -3.478  13.6830  0.00  0.00     0.000 S
ATOM    113   O  IDS B   6      46.592  -3.750  14.3080  0.00  0.00     0.000 OA
ATOM    114   O  IDS B   6      47.914  -3.709  12.2340  0.00  0.00     0.000 OA
ATOM    115   O  IDS B   6      49.007  -4.031  14.3970  0.00  0.00     0.000 OA
ENDBRANCH 104 111
BRANCH 107 116
ATOM    116   C  IDS B   6      48.115   2.415  15.8760  0.00  0.00     0.000 C
ATOM    117   O  IDS B   6      48.227   3.567  15.5400  0.00  0.00     0.000 OA
ATOM    118   O  IDS B   6      48.483   2.023  16.9720  0.00  0.00     0.000 OA
ENDBRANCH 107 116
BRANCH 103 119
ATOM    119  O4  SGN B   7      45.145  -0.015  14.0170  0.00  0.00     0.000 O
BRANCH 119 123
ATOM    120  C1  SGN B   7      41.639   1.824  15.3650  0.00  0.00     0.000 C
ATOM    121  C2  SGN B   7      42.729   2.726  14.7540  0.00  0.00     0.000 C
ATOM    122  C3  SGN B   7      43.739   1.887  13.9610  0.00  0.00     0.000 C
ATOM    123  C4  SGN B   7      44.283   0.772  14.8390  0.00  0.00     0.000 C
ATOM    124  C5  SGN B   7      43.122  -0.063  15.4030  0.00  0.00     0.000 C
ATOM    125  O5  SGN B   7      42.197   0.766  16.1420  0.00  0.00     0.000 O
ATOM    126   O  SGN B   7      44.788   2.742  13.4920  0.00  0.00     0.000 O
ATOM    128  HD  SGN B   7      44.007   2.669  13.8600  0.00  0.00     0.000 HD
BRANCH 121 130
ATOM    128   N  SGN B   7      42.100   3.746  13.9120  0.00  0.00     0.000 N
ATOM    130  HD  SGN B   7      41.380   3.709  14.3910  0.00  0.00     0.000 HD
ATOM    130   S  SGN B   7      41.871   5.257  14.4190  0.00  0.00     0.000 S
ATOM    131   O  SGN B   7      43.132   5.675  14.9270  0.00  0.00     0.000 OA
ATOM    132   O  SGN B   7      41.239   5.986  13.3790  0.00  0.00     0.000 OA
ATOM    133   O  SGN B   7      40.744   5.028  15.4820  0.00  0.00     0.000 OA
ENDBRANCH 121 130
BRANCH 124 134
ATOM    134   C  SGN B   7      43.552  -1.120  16.3770  0.00  0.00     0.000 C
ATOM    135   O  SGN B   7      42.405  -1.913  16.7270  0.00  0.00     0.000 O
ATOM    136   S  SGN B   7      42.674  -3.175  17.6230  0.00  0.00     0.000 S
ATOM    137   O  SGN B   7      41.381  -3.742  17.9250  0.00  0.00     0.000 OA
ATOM    138   O  SGN B   7      43.356  -2.670  18.7930  0.00  0.00     0.000 OA
ATOM    139   O  SGN B   7      43.497  -4.005  16.7570  0.00  0.00     0.000 OA
ENDBRANCH 124 134
BRANCH 120 140
ATOM    140  O4  IDS B   8      40.689   1.133  14.7250  0.00  0.00     0.000 O
BRANCH 140 144
ATOM    141  C1  IDS B   8      38.680   0.018  11.9530  0.00  0.00     0.000 C
ATOM    142  C2  IDS B   8      39.152   1.497  12.0550  0.00  0.00     0.000 C
ATOM    143  C3  IDS B   8      38.893   2.119  13.4390  0.00  0.00     0.000 C
ATOM    144  C4  IDS B   8      39.264   1.166  14.5740  0.00  0.00     0.000 C
ATOM    145  C5  IDS B   8      38.732  -0.244  14.2780  0.00  0.00     0.000 C
ATOM    146  O5  IDS B   8      39.216  -0.738  13.0310  0.00  0.00     0.000 O
BRANCH 142 147
ATOM    147   O  IDS B   8      40.616   1.568  11.8080  0.00  0.00     0.000 O
ATOM    148   S  IDS B   8      41.205   2.262  10.4650  0.00  0.00     0.000 S
ATOM    149   O  IDS B   8      40.119   2.375   9.5180  0.00  0.00     0.000 OA
ATOM    150   O  IDS B   8      41.717   3.552  10.8890  0.00  0.00     0.000 OA
ATOM    151   O  IDS B   8      42.243   1.364   9.9950  0.00  0.00     0.000 OA
ENDBRANCH 142 147
BRANCH 145 152
ATOM    152   C  IDS B   8      39.154  -1.258  15.3210  0.00  0.00     0.000 C
ATOM    153   O  IDS B   8      39.977  -2.119  15.0300  0.00  0.00     0.000 OA
ATOM    154   O  IDS B   8      38.687  -1.196  16.4440  0.00  0.00     0.000 OA
ENDBRANCH 145 152
ENDBRANCH 140 144
ENDBRANCH 120 140
ENDBRANCH 119 123
ENDBRANCH 103 119
ENDBRANCH 102 106
ENDBRANCH 82 102
ENDBRANCH 81 85
ENDBRANCH 65 81
ENDBRANCH 64 68
ENDBRANCH 41 64
ENDBRANCH 40 44
ENDBRANCH 24 40
ENDBRANCH 23 27
ENDBRANCH 1 23
TORSDOF 31
ENDMDL
MODEL 28
REMARK VINA RESULT:      -7.1     14.771     23.360
ROOT
ATOM      1  C1  SGN B   1      68.614  -2.984  18.9770  0.00  0.00     0.000 C
ATOM      2  C2  SGN B   1      67.804  -1.677  19.0020  0.00  0.00     0.000 C
ATOM      3  C3  SGN B   1      66.368  -1.920  18.5230  0.00  0.00     0.000 C
ATOM      4  C4  SGN B   1      66.376  -2.561  17.1390  0.00  0.00     0.000 C
ATOM      5  C5  SGN B   1      67.311  -3.768  17.1540  0.00  0.00     0.000 C
ATOM      6  O5  SGN B   1      68.616  -3.361  17.6070  0.00  0.00     0.000 O
ATOM      7   O  SGN B   1      65.635  -0.701  18.5050  0.00  0.00     0.000 O
ATOM      9  HD  SGN B   1      66.270  -0.533  17.9410  0.00  0.00     0.000 HD
ATOM      9   O  SGN B   1      65.062  -2.965  16.8010  0.00  0.00     0.000 O
ATOM     11  HD  SGN B   1      65.697  -2.796  16.2370  0.00  0.00     0.000 HD
ENDROOT
BRANCH 2 13
ATOM     11   N  SGN B   1      68.766  -0.679  19.5060  0.00  0.00     0.000 N
ATOM     13  HD  SGN B   1      68.647  -1.427  19.9260  0.00  0.00     0.000 HD
ATOM     13   S  SGN B   1      69.129  -0.548  21.0680  0.00  0.00     0.000 S
ATOM     14   O  SGN B   1      68.445  -1.534  21.8100  0.00  0.00     0.000 OA
ATOM     15   O  SGN B   1      70.543  -0.433  21.1940  0.00  0.00     0.000 OA
ATOM     16   O  SGN B   1      68.528   0.869  21.3180  0.00  0.00     0.000 OA
ENDBRANCH 2 13
BRANCH 5 17
ATOM     17   C  SGN B   1      67.487  -4.424  15.8060  0.00  0.00     0.000 C
ATOM     18   O  SGN B   1      67.031  -3.558  14.7480  0.00  0.00     0.000 O
ATOM     19   S  SGN B   1      66.124  -4.243  13.6230  0.00  0.00     0.000 S
ATOM     20   O  SGN B   1      66.002  -3.245  12.5810  0.00  0.00     0.000 OA
ATOM     21   O  SGN B   1      66.879  -5.407  13.2230  0.00  0.00     0.000 OA
ATOM     22   O  SGN B   1      64.873  -4.550  14.2810  0.00  0.00     0.000 OA
ENDBRANCH 5 17
BRANCH 1 23
ATOM     23  O4  IDS B   2      68.923  -4.047  19.7730  0.00  0.00     0.000 O
BRANCH 23 27
ATOM     24  C1  IDS B   2      65.885  -6.876  19.7460  0.00  0.00     0.000 C
ATOM     25  C2  IDS B   2      65.898  -5.922  20.9610  0.00  0.00     0.000 C
ATOM     26  C3  IDS B   2      66.851  -4.753  20.7280  0.00  0.00     0.000 C
ATOM     27  C4  IDS B   2      68.266  -5.186  20.3680  0.00  0.00     0.000 C
ATOM     28  C5  IDS B   2      68.222  -6.438  19.4690  0.00  0.00     0.000 C
ATOM     29  O5  IDS B   2      66.955  -6.568  18.8420  0.00  0.00     0.000 O
ATOM     30   O  IDS B   2      66.930  -3.969  21.9120  0.00  0.00     0.000 O
ATOM     32  HD  IDS B   2      67.449  -4.312  22.5150  0.00  0.00     0.000 HD
BRANCH 25 32
ATOM     32   O  IDS B   2      64.556  -5.357  21.2440  0.00  0.00     0.000 O
ATOM     33   S  IDS B   2      63.765  -5.657  22.6610  0.00  0.00     0.000 S
ATOM     34   O  IDS B   2      62.417  -5.139  22.4900  0.00  0.00     0.000 OA
ATOM     35   O  IDS B   2      63.756  -7.091  22.9160  0.00  0.00     0.000 OA
ATOM     36   O  IDS B   2      64.487  -4.922  23.6740  0.00  0.00     0.000 OA
ENDBRANCH 25 32
BRANCH 28 37
ATOM     37   C  IDS B   2      69.315  -6.590  18.3910  0.00  0.00     0.000 C
ATOM     38   O  IDS B   2      68.905  -7.110  17.3800  0.00  0.00     0.000 OA
ATOM     39   O  IDS B   2      70.500  -6.181  18.4540  0.00  0.00     0.000 OA
ENDBRANCH 28 37
BRANCH 24 40
ATOM     40  O4  SUS B   3      65.153  -8.009  19.7870  0.00  0.00     0.000 O
BRANCH 40 44
ATOM     41  C1  SUS B   3      63.109 -10.029  16.7400  0.00  0.00     0.000 C
ATOM     42  C2  SUS B   3      64.647 -10.133  16.7460  0.00  0.00     0.000 C
ATOM     43  C3  SUS B   3      65.171  -9.772  18.1340  0.00  0.00     0.000 C
ATOM     44  C4  SUS B   3      64.642  -8.398  18.5170  0.00  0.00     0.000 C
ATOM     45  C5  SUS B   3      63.129  -8.451  18.5650  0.00  0.00     0.000 C
ATOM     46  O5  SUS B   3      62.647  -8.771  17.2440  0.00  0.00     0.000 O
BRANCH 42 49
ATOM     47   N  SUS B   3      65.059 -10.051  15.3340  0.00  0.00     0.000 N
ATOM     49  HD  SUS B   3      64.454  -9.796  14.7680  0.00  0.00     0.000 HD
ATOM     49   S  SUS B   3      65.698 -11.419  14.7970  0.00  0.00     0.000 S
ATOM     50   O  SUS B   3      64.778 -12.475  14.9620  0.00  0.00     0.000 OA
ATOM     51   O  SUS B   3      65.788 -11.001  13.3070  0.00  0.00     0.000 OA
ATOM     52   O  SUS B   3      66.984 -11.581  15.3470  0.00  0.00     0.000 OA
ENDBRANCH 42 49
BRANCH 43 53
ATOM     53   O  SUS B   3      66.645  -9.743  18.0710  0.00  0.00     0.000 O
ATOM     54   S  SUS B   3      67.458 -10.765  19.0690  0.00  0.00     0.000 S
ATOM     55   O  SUS B   3      67.261 -12.116  18.5630  0.00  0.00     0.000 OA
ATOM     56   O  SUS B   3      68.834 -10.307  18.9960  0.00  0.00     0.000 OA
ATOM     57   O  SUS B   3      66.865 -10.605  20.4000  0.00  0.00     0.000 OA
ENDBRANCH 43 53
BRANCH 45 58
ATOM     58   C  SUS B   3      62.531  -7.144  19.0380  0.00  0.00     0.000 C
ATOM     59   S  SUS B   3      62.326  -4.661  18.4210  0.00  0.00     0.000 S
ATOM     60   O  SUS B   3      62.698  -6.147  18.0160  0.00  0.00     0.000 O
ATOM     61   O  SUS B   3      63.451  -4.188  19.2040  0.00  0.00     0.000 OA
ATOM     62   O  SUS B   3      62.251  -4.042  17.1250  0.00  0.00     0.000 OA
ATOM     63   O  SUS B   3      61.094  -4.756  19.1220  0.00  0.00     0.000 OA
ENDBRANCH 45 58
BRANCH 41 64
ATOM     64  O4  IDS B   4      62.479 -11.119  17.2880  0.00  0.00     0.000 O
BRANCH 64 68
ATOM     65  C1  IDS B   4      60.119 -13.861  17.7240  0.00  0.00     0.000 C
ATOM     66  C2  IDS B   4      61.059 -13.836  16.5120  0.00  0.00     0.000 C
ATOM     67  C3  IDS B   4      61.131 -12.496  15.8000  0.00  0.00     0.000 C
ATOM     68  C4  IDS B   4      61.150 -11.320  16.7580  0.00  0.00     0.000 C
ATOM     69  C5  IDS B   4      60.091 -11.568  17.8400  0.00  0.00     0.000 C
ATOM     70  O5  IDS B   4      60.422 -12.758  18.5590  0.00  0.00     0.000 O
ATOM     71   O  IDS B   4      60.000 -12.408  14.9580  0.00  0.00     0.000 O
ATOM     73  HD  IDS B   4      60.584 -12.814  15.4510  0.00  0.00     0.000 HD
BRANCH 66 73
ATOM     73   O  IDS B   4      62.428 -14.109  16.9710  0.00  0.00     0.000 O
ATOM     74   S  IDS B   4      63.103 -15.517  16.5470  0.00  0.00     0.000 S
ATOM     75   O  IDS B   4      62.215 -16.557  17.0230  0.00  0.00     0.000 OA
ATOM     76   O  IDS B   4      64.366 -15.461  17.2400  0.00  0.00     0.000 OA
ATOM     77   O  IDS B   4      63.214 -15.474  15.1080  0.00  0.00     0.000 OA
ENDBRANCH 66 73
BRANCH 69 78
ATOM     78   C  IDS B   4      59.833 -10.376  18.7530  0.00  0.00     0.000 C
ATOM     79   O  IDS B   4      59.659  -9.269  18.2450  0.00  0.00     0.000 OA
ATOM     80   O  IDS B   4      59.701 -10.579  19.9740  0.00  0.00     0.000 OA
ENDBRANCH 69 78
BRANCH 65 81
ATOM     81  O4  SGN B   5      58.831 -13.970  17.2960  0.00  0.00     0.000 O
BRANCH 81 85
ATOM     82  C1  SGN B   5      55.067 -15.569  18.2520  0.00  0.00     0.000 C
ATOM     83  C2  SGN B   5      55.573 -14.408  19.1200  0.00  0.00     0.000 C
ATOM     84  C3  SGN B   5      56.689 -13.660  18.3780  0.00  0.00     0.000 C
ATOM     85  C4  SGN B   5      57.783 -14.642  17.9980  0.00  0.00     0.000 C
ATOM     86  C5  SGN B   5      57.168 -15.730  17.1220  0.00  0.00     0.000 C
ATOM     87  O5  SGN B   5      56.144 -16.407  17.8770  0.00  0.00     0.000 O
ATOM     88   O  SGN B   5      57.198 -12.626  19.1930  0.00  0.00     0.000 O
ATOM     90  HD  SGN B   5      56.643 -12.521  18.5360  0.00  0.00     0.000 HD
BRANCH 83 92
ATOM     90   N  SGN B   5      54.276 -14.723  19.7500  0.00  0.00     0.000 N
ATOM     92  HD  SGN B   5      54.201 -15.573  19.8990  0.00  0.00     0.000 HD
ATOM     92   S  SGN B   5      53.769 -13.782  20.9380  0.00  0.00     0.000 S
ATOM     93   O  SGN B   5      52.513 -14.349  21.3280  0.00  0.00     0.000 OA
ATOM     94   O  SGN B   5      54.844 -13.722  21.8690  0.00  0.00     0.000 OA
ATOM     95   O  SGN B   5      53.636 -12.411  20.3130  0.00  0.00     0.000 OA
ENDBRANCH 83 92
BRANCH 86 96
ATOM     96   C  SGN B   5      58.153 -16.781  16.6540  0.00  0.00     0.000 C
ATOM     97   O  SGN B   5      58.951 -17.242  17.7470  0.00  0.00     0.000 O
ATOM     98   S  SGN B   5      59.036 -18.833  17.9370  0.00  0.00     0.000 S
ATOM     99   O  SGN B   5      60.047 -18.977  18.9560  0.00  0.00     0.000 OA
ATOM    100   O  SGN B   5      57.746 -19.286  18.3150  0.00  0.00     0.000 OA
ATOM    101   O  SGN B   5      59.446 -19.321  16.6610  0.00  0.00     0.000 OA
ENDBRANCH 86 96
BRANCH 82 102
ATOM    102  O4  IDS B   6      54.390 -15.143  17.1480  0.00  0.00     0.000 O
BRANCH 102 106
ATOM    103  C1  IDS B   6      51.232 -15.427  15.3590  0.00  0.00     0.000 C
ATOM    104  C2  IDS B   6      51.338 -15.836  16.8360  0.00  0.00     0.000 C
ATOM    105  C3  IDS B   6      52.528 -16.712  17.1770  0.00  0.00     0.000 C
ATOM    106  C4  IDS B   6      53.798 -16.278  16.4670  0.00  0.00     0.000 C
ATOM    107  C5  IDS B   6      53.482 -15.934  15.0080  0.00  0.00     0.000 C
ATOM    108  O5  IDS B   6      52.475 -14.927  14.9040  0.00  0.00     0.000 O
ATOM    109   O  IDS B   6      52.199 -18.051  16.8490  0.00  0.00     0.000 O
ATOM    111  HD  IDS B   6      51.573 -17.973  16.2560  0.00  0.00     0.000 HD
BRANCH 104 111
ATOM    111   O  IDS B   6      51.497 -14.627  17.6580  0.00  0.00     0.000 O
ATOM    112   S  IDS B   6      50.236 -14.118  18.5020  0.00  0.00     0.000 S
ATOM    113   O  IDS B   6      49.199 -13.886  17.5080  0.00  0.00     0.000 OA
ATOM    114   O  IDS B   6      49.906 -15.138  19.5050  0.00  0.00     0.000 OA
ATOM    115   O  IDS B   6      50.799 -12.906  19.0570  0.00  0.00     0.000 OA
ENDBRANCH 104 111
BRANCH 107 116
ATOM    116   C  IDS B   6      54.755 -15.466  14.3140  0.00  0.00     0.000 C
ATOM    117   O  IDS B   6      55.582 -16.308  14.0730  0.00  0.00     0.000 OA
ATOM    118   O  IDS B   6      54.927 -14.291  14.0270  0.00  0.00     0.000 OA
ENDBRANCH 107 116
BRANCH 103 119
ATOM    119  O4  SGN B   7      50.644 -16.501  14.7700  0.00  0.00     0.000 O
BRANCH 119 123
ATOM    120  C1  SGN B   7      48.484 -17.139  11.2460  0.00  0.00     0.000 C
ATOM    121  C2  SGN B   7      49.995 -17.436  11.2200  0.00  0.00     0.000 C
ATOM    122  C3  SGN B   7      50.547 -17.543  12.6480  0.00  0.00     0.000 C
ATOM    123  C4  SGN B   7      50.178 -16.297  13.4360  0.00  0.00     0.000 C
ATOM    124  C5  SGN B   7      48.656 -16.085  13.3960  0.00  0.00     0.000 C
ATOM    125  O5  SGN B   7      48.181 -15.989  12.0340  0.00  0.00     0.000 O
ATOM    126   O  SGN B   7      51.967 -17.720  12.5860  0.00  0.00     0.000 O
ATOM    128  HD  SGN B   7      51.210 -17.696  12.1670  0.00  0.00     0.000 HD
BRANCH 121 130
ATOM    128   N  SGN B   7      49.752 -18.439  10.1810  0.00  0.00     0.000 N
ATOM    130  HD  SGN B   7      49.530 -17.816   9.6220  0.00  0.00     0.000 HD
ATOM    130   S  SGN B   7      50.747 -18.641   8.9310  0.00  0.00     0.000 S
ATOM    131   O  SGN B   7      52.044 -18.759   9.5040  0.00  0.00     0.000 OA
ATOM    132   O  SGN B   7      50.228 -19.676   8.1110  0.00  0.00     0.000 OA
ATOM    133   O  SGN B   7      50.465 -17.324   8.1320  0.00  0.00     0.000 OA
ENDBRANCH 121 130
BRANCH 124 134
ATOM    134   C  SGN B   7      48.203 -14.813  14.0500  0.00  0.00     0.000 C
ATOM    135   O  SGN B   7      48.486 -13.716  13.1650  0.00  0.00     0.000 O
ATOM    136   S  SGN B   7      47.946 -12.307  13.6010  0.00  0.00     0.000 S
ATOM    137   O  SGN B   7      48.436 -11.364  12.6240  0.00  0.00     0.000 OA
ATOM    138   O  SGN B   7      48.491 -12.086  14.9220  0.00  0.00     0.000 OA
ATOM    139   O  SGN B   7      46.505 -12.500  13.5680  0.00  0.00     0.000 OA
ENDBRANCH 124 134
BRANCH 120 140
ATOM    140  O4  IDS B   8      47.495 -17.940  11.6570  0.00  0.00     0.000 O
BRANCH 140 144
ATOM    141  C1  IDS B   8      44.851 -20.367  11.3700  0.00  0.00     0.000 C
ATOM    142  C2  IDS B   8      45.088 -19.307  10.2570  0.00  0.00     0.000 C
ATOM    143  C3  IDS B   8      45.232 -17.876  10.8060  0.00  0.00     0.000 C
ATOM    144  C4  IDS B   8      46.121 -17.825  12.0480  0.00  0.00     0.000 C
ATOM    145  C5  IDS B   8      45.750 -18.962  13.0120  0.00  0.00     0.000 C
ATOM    146  O5  IDS B   8      45.842 -20.238  12.3830  0.00  0.00     0.000 O
BRANCH 142 147
ATOM    147   O  IDS B   8      46.344 -19.626   9.5280  0.00  0.00     0.000 O
ATOM    148   S  IDS B   8      46.496 -19.308   7.9450  0.00  0.00     0.000 S
ATOM    149   O  IDS B   8      45.170 -19.085   7.4130  0.00  0.00     0.000 OA
ATOM    150   O  IDS B   8      47.338 -18.128   7.8670  0.00  0.00     0.000 OA
ATOM    151   O  IDS B   8      47.116 -20.489   7.3760  0.00  0.00     0.000 OA
ENDBRANCH 142 147
BRANCH 145 152
ATOM    152   C  IDS B   8      46.664 -19.025  14.2190  0.00  0.00     0.000 C
ATOM    153   O  IDS B   8      46.525 -18.211  15.1250  0.00  0.00     0.000 OA
ATOM    154   O  IDS B   8      47.512 -19.896  14.2860  0.00  0.00     0.000 OA
ENDBRANCH 145 152
ENDBRANCH 140 144
ENDBRANCH 120 140
ENDBRANCH 119 123
ENDBRANCH 103 119
ENDBRANCH 102 106
ENDBRANCH 82 102
ENDBRANCH 81 85
ENDBRANCH 65 81
ENDBRANCH 64 68
ENDBRANCH 41 64
ENDBRANCH 40 44
ENDBRANCH 24 40
ENDBRANCH 23 27
ENDBRANCH 1 23
TORSDOF 31
ENDMDL
MODEL 29
REMARK VINA RESULT:      -7.1     10.979     15.563
ROOT
ATOM      1  C1  SGN B   1      39.914  -1.476  18.6470  0.00  0.00     0.000 C
ATOM      2  C2  SGN B   1      39.368  -2.639  19.4920  0.00  0.00     0.000 C
ATOM      3  C3  SGN B   1      38.712  -3.698  18.5980  0.00  0.00     0.000 C
ATOM      4  C4  SGN B   1      37.628  -3.060  17.7360  0.00  0.00     0.000 C
ATOM      5  C5  SGN B   1      38.204  -1.831  17.0380  0.00  0.00     0.000 C
ATOM      6  O5  SGN B   1      38.759  -0.935  18.0200  0.00  0.00     0.000 O
ATOM      7   O  SGN B   1      38.169  -4.750  19.3870  0.00  0.00     0.000 O
ATOM      9  HD  SGN B   1      37.720  -4.067  19.6710  0.00  0.00     0.000 HD
ATOM      9   O  SGN B   1      37.176  -3.999  16.7780  0.00  0.00     0.000 O
ATOM     11  HD  SGN B   1      36.726  -3.316  17.0630  0.00  0.00     0.000 HD
ENDROOT
BRANCH 2 13
ATOM     11   N  SGN B   1      39.718  -2.263  20.8750  0.00  0.00     0.000 N
ATOM     13  HD  SGN B   1      40.317  -2.247  20.2490  0.00  0.00     0.000 HD
ATOM     13   S  SGN B   1      41.201  -2.453  21.4680  0.00  0.00     0.000 S
ATOM     14   O  SGN B   1      42.062  -2.959  20.4710  0.00  0.00     0.000 OA
ATOM     15   O  SGN B   1      41.562  -1.265  22.1660  0.00  0.00     0.000 OA
ATOM     16   O  SGN B   1      40.876  -3.537  22.5410  0.00  0.00     0.000 OA
ENDBRANCH 2 13
BRANCH 5 17
ATOM     17   C  SGN B   1      37.191  -1.048  16.2380  0.00  0.00     0.000 C
ATOM     18   O  SGN B   1      37.320  -1.329  14.8300  0.00  0.00     0.000 O
ATOM     19   S  SGN B   1      37.287  -0.061  13.8560  0.00  0.00     0.000 S
ATOM     20   O  SGN B   1      37.195  -0.615  12.5220  0.00  0.00     0.000 OA
ATOM     21   O  SGN B   1      36.106   0.665  14.2630  0.00  0.00     0.000 OA
ATOM     22   O  SGN B   1      38.526   0.642  14.1080  0.00  0.00     0.000 OA
ENDBRANCH 5 17
BRANCH 1 23
ATOM     23  O4  IDS B   2      41.046  -1.091  17.9920  0.00  0.00     0.000 O
BRANCH 23 27
ATOM     24  C1  IDS B   2      44.800   0.640  17.6110  0.00  0.00     0.000 C
ATOM     25  C2  IDS B   2      44.012   1.029  18.8810  0.00  0.00     0.000 C
ATOM     26  C3  IDS B   2      42.798   0.123  19.0690  0.00  0.00     0.000 C
ATOM     27  C4  IDS B   2      41.878   0.081  17.8560  0.00  0.00     0.000 C
ATOM     28  C5  IDS B   2      42.713   0.124  16.5600  0.00  0.00     0.000 C
ATOM     29  O5  IDS B   2      44.051  -0.280  16.8050  0.00  0.00     0.000 O
ATOM     30   O  IDS B   2      42.032   0.590  20.1730  0.00  0.00     0.000 O
ATOM     32  HD  IDS B   2      41.532   1.270  19.9790  0.00  0.00     0.000 HD
BRANCH 25 32
ATOM     32   O  IDS B   2      44.840   0.929  20.1080  0.00  0.00     0.000 O
ATOM     33   S  IDS B   2      45.095   2.227  21.0950  0.00  0.00     0.000 S
ATOM     34   O  IDS B   2      46.115   1.817  22.0470  0.00  0.00     0.000 OA
ATOM     35   O  IDS B   2      45.536   3.363  20.2980  0.00  0.00     0.000 OA
ATOM     36   O  IDS B   2      43.831   2.472  21.7510  0.00  0.00     0.000 OA
ENDBRANCH 25 32
BRANCH 28 37
ATOM     37   C  IDS B   2      42.186  -0.656  15.3380  0.00  0.00     0.000 C
ATOM     38   O  IDS B   2      42.485  -0.138  14.2880  0.00  0.00     0.000 OA
ATOM     39   O  IDS B   2      41.570  -1.750  15.3480  0.00  0.00     0.000 OA
ENDBRANCH 28 37
BRANCH 24 40
ATOM     40  O4  SUS B   3      45.872   1.368  17.2350  0.00  0.00     0.000 O
BRANCH 40 44
ATOM     41  C1  SUS B   3      49.465  -0.224  15.7840  0.00  0.00     0.000 C
ATOM     42  C2  SUS B   3      48.687   0.727  14.8510  0.00  0.00     0.000 C
ATOM     43  C3  SUS B   3      47.713   1.560  15.6810  0.00  0.00     0.000 C
ATOM     44  C4  SUS B   3      46.827   0.623  16.4870  0.00  0.00     0.000 C
ATOM     45  C5  SUS B   3      47.697  -0.188  17.4250  0.00  0.00     0.000 C
ATOM     46  O5  SUS B   3      48.596  -0.986  16.6290  0.00  0.00     0.000 O
BRANCH 42 49
ATOM     47   N  SUS B   3      49.218   0.041  13.6600  0.00  0.00     0.000 N
ATOM     49  HD  SUS B   3      49.865  -0.518  13.7930  0.00  0.00     0.000 HD
ATOM     49   S  SUS B   3      49.668   1.061  12.5100  0.00  0.00     0.000 S
ATOM     50   O  SUS B   3      50.635   1.954  13.0120  0.00  0.00     0.000 OA
ATOM     51   O  SUS B   3      50.326   0.006  11.5830  0.00  0.00     0.000 OA
ATOM     52   O  SUS B   3      48.523   1.613  11.9010  0.00  0.00     0.000 OA
ENDBRANCH 42 49
BRANCH 43 53
ATOM     53   O  SUS B   3      46.888   2.356  14.7520  0.00  0.00     0.000 O
ATOM     54   S  SUS B   3      47.146   3.979  14.7200  0.00  0.00     0.000 S
ATOM     55   O  SUS B   3      48.438   4.203  14.0860  0.00  0.00     0.000 OA
ATOM     56   O  SUS B   3      46.023   4.499  13.9620  0.00  0.00     0.000 OA
ATOM     57   O  SUS B   3      47.157   4.424  16.1170  0.00  0.00     0.000 OA
ENDBRANCH 43 53
BRANCH 45 58
ATOM     58   C  SUS B   3      46.875  -1.076  18.3340  0.00  0.00     0.000 C
ATOM     59   S  SUS B   3      45.981  -3.469  18.5720  0.00  0.00     0.000 S
ATOM     60   O  SUS B   3      46.953  -2.434  17.8710  0.00  0.00     0.000 O
ATOM     61   O  SUS B   3      44.681  -3.235  17.9730  0.00  0.00     0.000 OA
ATOM     62   O  SUS B   3      46.569  -4.713  18.1550  0.00  0.00     0.000 OA
ATOM     63   O  SUS B   3      46.069  -3.191  19.9620  0.00  0.00     0.000 OA
ENDBRANCH 45 58
BRANCH 41 64
ATOM     64  O4  IDS B   4      50.506   0.379  16.4450  0.00  0.00     0.000 O
BRANCH 64 68
ATOM     65  C1  IDS B   4      53.582   0.703  18.3700  0.00  0.00     0.000 C
ATOM     66  C2  IDS B   4      53.497   1.273  16.9490  0.00  0.00     0.000 C
ATOM     67  C3  IDS B   4      52.885   0.328  15.9290  0.00  0.00     0.000 C
ATOM     68  C4  IDS B   4      51.696  -0.440  16.4760  0.00  0.00     0.000 C
ATOM     69  C5  IDS B   4      52.056  -0.942  17.8800  0.00  0.00     0.000 C
ATOM     70  O5  IDS B   4      52.316   0.179  18.7290  0.00  0.00     0.000 O
ATOM     71   O  IDS B   4      53.896  -0.576  15.5350  0.00  0.00     0.000 O
ATOM     73  HD  IDS B   4      53.583   0.151  15.8860  0.00  0.00     0.000 HD
BRANCH 66 73
ATOM     73   O  IDS B   4      52.622   2.453  16.9650  0.00  0.00     0.000 O
ATOM     74   S  IDS B   4      53.258   3.875  16.5300  0.00  0.00     0.000 S
ATOM     75   O  IDS B   4      54.392   4.100  17.4000  0.00  0.00     0.000 OA
ATOM     76   O  IDS B   4      52.155   4.775  16.7580  0.00  0.00     0.000 OA
ATOM     77   O  IDS B   4      53.625   3.725  15.1420  0.00  0.00     0.000 OA
ENDBRANCH 66 73
BRANCH 69 78
ATOM     78   C  IDS B   4      51.050  -1.916  18.4780  0.00  0.00     0.000 C
ATOM     79   O  IDS B   4      51.000  -3.061  18.0310  0.00  0.00     0.000 OA
ATOM     80   O  IDS B   4      50.387  -1.556  19.4670  0.00  0.00     0.000 OA
ENDBRANCH 69 78
BRANCH 65 81
ATOM     81  O4  SGN B   5      54.644  -0.147  18.4550  0.00  0.00     0.000 O
BRANCH 81 85
ATOM     82  C1  SGN B   5      57.526  -0.457  21.4930  0.00  0.00     0.000 C
ATOM     83  C2  SGN B   5      57.238  -1.723  20.6730  0.00  0.00     0.000 C
ATOM     84  C3  SGN B   5      56.547  -1.337  19.3580  0.00  0.00     0.000 C
ATOM     85  C4  SGN B   5      55.300  -0.528  19.6660  0.00  0.00     0.000 C
ATOM     86  C5  SGN B   5      55.714   0.709  20.4580  0.00  0.00     0.000 C
ATOM     87  O5  SGN B   5      56.336   0.284  21.6860  0.00  0.00     0.000 O
ATOM     88   O  SGN B   5      56.228  -2.499  18.6250  0.00  0.00     0.000 O
ATOM     90  HD  SGN B   5      56.899  -1.975  18.4670  0.00  0.00     0.000 HD
BRANCH 83 92
ATOM     90   N  SGN B   5      57.765  -2.512  21.8040  0.00  0.00     0.000 N
ATOM     92  HD  SGN B   5      57.135  -2.711  22.3640  0.00  0.00     0.000 HD
ATOM     92   S  SGN B   5      58.784  -3.699  21.4820  0.00  0.00     0.000 S
ATOM     93   O  SGN B   5      59.095  -4.258  22.7640  0.00  0.00     0.000 OA
ATOM     94   O  SGN B   5      58.146  -4.498  20.4920  0.00  0.00     0.000 OA
ATOM     95   O  SGN B   5      59.966  -3.023  20.8230  0.00  0.00     0.000 OA
ENDBRANCH 83 92
BRANCH 86 96
ATOM     96   C  SGN B   5      54.564   1.623  20.8280  0.00  0.00     0.000 C
ATOM     97   O  SGN B   5      53.735   1.012  21.8200  0.00  0.00     0.000 O
ATOM     98   S  SGN B   5      53.409   1.900  23.1140  0.00  0.00     0.000 S
ATOM     99   O  SGN B   5      52.418   1.109  23.8020  0.00  0.00     0.000 OA
ATOM    100   O  SGN B   5      54.624   2.077  23.8260  0.00  0.00     0.000 OA
ATOM    101   O  SGN B   5      52.892   3.121  22.5850  0.00  0.00     0.000 OA
ENDBRANCH 86 96
BRANCH 82 102
ATOM    102  O4  IDS B   6      58.487   0.327  20.9270  0.00  0.00     0.000 O
BRANCH 102 106
ATOM    103  C1  IDS B   6      61.603   2.198  20.7040  0.00  0.00     0.000 C
ATOM    104  C2  IDS B   6      61.609   0.697  21.0360  0.00  0.00     0.000 C
ATOM    105  C3  IDS B   6      60.619   0.271  22.1030  0.00  0.00     0.000 C
ATOM    106  C4  IDS B   6      59.275   0.964  21.9660  0.00  0.00     0.000 C
ATOM    107  C5  IDS B   6      59.487   2.448  21.6550  0.00  0.00     0.000 C
ATOM    108  O5  IDS B   6      60.277   2.639  20.4810  0.00  0.00     0.000 O
ATOM    109   O  IDS B   6      61.195   0.537  23.3710  0.00  0.00     0.000 O
ATOM    111  HD  IDS B   6      61.782   1.152  23.2090  0.00  0.00     0.000 HD
BRANCH 104 111
ATOM    111   O  IDS B   6      61.235  -0.062  19.8330  0.00  0.00     0.000 O
ATOM    112   S  IDS B   6      62.381  -0.881  19.0730  0.00  0.00     0.000 S
ATOM    113   O  IDS B   6      63.372   0.122  18.7150  0.00  0.00     0.000 OA
ATOM    114   O  IDS B   6      62.871  -1.935  19.9690  0.00  0.00     0.000 OA
ATOM    115   O  IDS B   6      61.611  -1.373  17.9510  0.00  0.00     0.000 OA
ENDBRANCH 104 111
BRANCH 107 116
ATOM    116   C  IDS B   6      58.134   3.126  21.4830  0.00  0.00     0.000 C
ATOM    117   O  IDS B   6      57.453   3.236  22.4720  0.00  0.00     0.000 OA
ATOM    118   O  IDS B   6      57.758   3.527  20.3930  0.00  0.00     0.000 OA
ENDBRANCH 107 116
BRANCH 103 119
ATOM    119  O4  SGN B   7      62.376   2.745  21.6770  0.00  0.00     0.000 O
BRANCH 119 123
ATOM    120  C1  SGN B   7      64.487   6.326  22.1340  0.00  0.00     0.000 C
ATOM    121  C2  SGN B   7      63.031   6.415  21.6390  0.00  0.00     0.000 C
ATOM    122  C3  SGN B   7      62.290   5.099  21.9090  0.00  0.00     0.000 C
ATOM    123  C4  SGN B   7      63.072   3.939  21.3160  0.00  0.00     0.000 C
ATOM    124  C5  SGN B   7      64.508   3.942  21.8650  0.00  0.00     0.000 C
ATOM    125  O5  SGN B   7      65.168   5.198  21.5880  0.00  0.00     0.000 O
ATOM    126   O  SGN B   7      60.975   5.182  21.3490  0.00  0.00     0.000 O
ATOM    128  HD  SGN B   7      61.710   5.586  21.5620  0.00  0.00     0.000 HD
BRANCH 121 130
ATOM    128   N  SGN B   7      63.000   7.717  20.9680  0.00  0.00     0.000 N
ATOM    130  HD  SGN B   7      62.189   7.569  20.7030  0.00  0.00     0.000 HD
ATOM    130   S  SGN B   7      62.152   8.960  21.5420  0.00  0.00     0.000 S
ATOM    131   O  SGN B   7      62.526   9.065  22.9110  0.00  0.00     0.000 OA
ATOM    132   O  SGN B   7      62.325  10.061  20.6650  0.00  0.00     0.000 OA
ATOM    133   O  SGN B   7      60.695   8.458  21.2640  0.00  0.00     0.000 OA
ENDBRANCH 121 130
BRANCH 124 134
ATOM    134   C  SGN B   7      65.396   2.900  21.2500  0.00  0.00     0.000 C
ATOM    135   O  SGN B   7      66.713   3.030  21.8120  0.00  0.00     0.000 O
ATOM    136   S  SGN B   7      67.757   1.928  21.4100  0.00  0.00     0.000 S
ATOM    137   O  SGN B   7      69.013   2.323  22.0020  0.00  0.00     0.000 OA
ATOM    138   O  SGN B   7      67.785   1.942  19.9650  0.00  0.00     0.000 OA
ATOM    139   O  SGN B   7      67.182   0.725  21.9900  0.00  0.00     0.000 OA
ENDBRANCH 124 134
BRANCH 120 140
ATOM    140  O4  IDS B   8      64.924   6.243  23.3960  0.00  0.00     0.000 O
BRANCH 140 144
ATOM    141  C1  IDS B   8      65.009   5.164  26.8290  0.00  0.00     0.000 C
ATOM    142  C2  IDS B   8      63.656   5.407  26.1000  0.00  0.00     0.000 C
ATOM    143  C3  IDS B   8      63.605   6.755  25.3570  0.00  0.00     0.000 C
ATOM    144  C4  IDS B   8      64.896   7.035  24.5890  0.00  0.00     0.000 C
ATOM    145  C5  IDS B   8      66.115   6.712  25.4670  0.00  0.00     0.000 C
ATOM    146  O5  IDS B   8      66.090   5.362  25.9260  0.00  0.00     0.000 O
BRANCH 142 147
ATOM    147   O  IDS B   8      63.439   4.339  25.0900  0.00  0.00     0.000 O
ATOM    148   S  IDS B   8      62.524   3.043  25.4270  0.00  0.00     0.000 S
ATOM    149   O  IDS B   8      62.367   2.979  26.8630  0.00  0.00     0.000 OA
ATOM    150   O  IDS B   8      61.268   3.264  24.7340  0.00  0.00     0.000 OA
ATOM    151   O  IDS B   8      63.266   1.907  24.9130  0.00  0.00     0.000 OA
ENDBRANCH 142 147
BRANCH 145 152
ATOM    152   C  IDS B   8      67.426   6.875  24.7260  0.00  0.00     0.000 C
ATOM    153   O  IDS B   8      67.928   7.989  24.6250  0.00  0.00     0.000 OA
ATOM    154   O  IDS B   8      67.978   5.897  24.2560  0.00  0.00     0.000 OA
ENDBRANCH 145 152
ENDBRANCH 140 144
ENDBRANCH 120 140
ENDBRANCH 119 123
ENDBRANCH 103 119
ENDBRANCH 102 106
ENDBRANCH 82 102
ENDBRANCH 81 85
ENDBRANCH 65 81
ENDBRANCH 64 68
ENDBRANCH 41 64
ENDBRANCH 40 44
ENDBRANCH 24 40
ENDBRANCH 23 27
ENDBRANCH 1 23
TORSDOF 31
ENDMDL
MODEL 30
REMARK VINA RESULT:      -7.1     10.962     21.736
ROOT
ATOM      1  C1  SGN B   1      66.576   0.741  24.4670  0.00  0.00     0.000 C
ATOM      2  C2  SGN B   1      67.301  -0.007  25.5980  0.00  0.00     0.000 C
ATOM      3  C3  SGN B   1      67.386   0.863  26.8570  0.00  0.00     0.000 C
ATOM      4  C4  SGN B   1      68.055   2.194  26.5330  0.00  0.00     0.000 C
ATOM      5  C5  SGN B   1      67.374   2.812  25.3130  0.00  0.00     0.000 C
ATOM      6  O5  SGN B   1      67.400   1.873  24.2210  0.00  0.00     0.000 O
ATOM      7   O  SGN B   1      68.096   0.185  27.8870  0.00  0.00     0.000 O
ATOM      9  HD  SGN B   1      68.697   0.240  27.2660  0.00  0.00     0.000 HD
ATOM      9   O  SGN B   1      67.943   3.062  27.6460  0.00  0.00     0.000 O
ATOM     11  HD  SGN B   1      68.544   3.117  27.0250  0.00  0.00     0.000 HD
ENDROOT
BRANCH 2 13
ATOM     11   N  SGN B   1      66.749  -1.330  25.9470  0.00  0.00     0.000 N
ATOM     13  HD  SGN B   1      67.292  -1.242  25.2780  0.00  0.00     0.000 HD
ATOM     13   S  SGN B   1      66.533  -2.487  24.8500  0.00  0.00     0.000 S
ATOM     14   O  SGN B   1      66.988  -2.051  23.5880  0.00  0.00     0.000 OA
ATOM     15   O  SGN B   1      67.022  -3.713  25.3860  0.00  0.00     0.000 OA
ATOM     16   O  SGN B   1      64.975  -2.553  24.9000  0.00  0.00     0.000 OA
ENDBRANCH 2 13
BRANCH 5 17
ATOM     17   C  SGN B   1      68.022   4.085  24.8270  0.00  0.00     0.000 C
ATOM     18   O  SGN B   1      67.115   5.200  24.9420  0.00  0.00     0.000 O
ATOM     19   S  SGN B   1      67.037   6.174  23.6760  0.00  0.00     0.000 S
ATOM     20   O  SGN B   1      66.262   7.311  24.1250  0.00  0.00     0.000 OA
ATOM     21   O  SGN B   1      68.417   6.491  23.3900  0.00  0.00     0.000 OA
ATOM     22   O  SGN B   1      66.386   5.399  22.6430  0.00  0.00     0.000 OA
ENDBRANCH 5 17
BRANCH 1 23
ATOM     23  O4  IDS B   2      65.323   0.936  23.9680  0.00  0.00     0.000 O
BRANCH 23 27
ATOM     24  C1  IDS B   2      62.036   0.926  21.4310  0.00  0.00     0.000 C
ATOM     25  C2  IDS B   2      63.311   0.254  20.8750  0.00  0.00     0.000 C
ATOM     26  C3  IDS B   2      64.346   0.049  21.9770  0.00  0.00     0.000 C
ATOM     27  C4  IDS B   2      64.695   1.326  22.7280  0.00  0.00     0.000 C
ATOM     28  C5  IDS B   2      63.436   2.199  22.8980  0.00  0.00     0.000 C
ATOM     29  O5  IDS B   2      62.256   1.420  22.7590  0.00  0.00     0.000 O
ATOM     30   O  IDS B   2      65.547  -0.455  21.4040  0.00  0.00     0.000 O
ATOM     32  HD  IDS B   2      66.028   0.157  21.0260  0.00  0.00     0.000 HD
BRANCH 25 32
ATOM     32   O  IDS B   2      63.028  -1.072  20.2720  0.00  0.00     0.000 O
ATOM     33   S  IDS B   2      63.413  -1.418  18.7050  0.00  0.00     0.000 S
ATOM     34   O  IDS B   2      62.794  -2.700  18.4100  0.00  0.00     0.000 OA
ATOM     35   O  IDS B   2      62.899  -0.367  17.8380  0.00  0.00     0.000 OA
ATOM     36   O  IDS B   2      64.854  -1.507  18.6680  0.00  0.00     0.000 OA
ENDBRANCH 25 32
BRANCH 28 37
ATOM     37   C  IDS B   2      63.311   3.043  24.1840  0.00  0.00     0.000 C
ATOM     38   O  IDS B   2      62.451   2.636  24.9280  0.00  0.00     0.000 OA
ATOM     39   O  IDS B   2      64.031   4.014  24.5220  0.00  0.00     0.000 OA
ENDBRANCH 28 37
BRANCH 24 40
ATOM     40  O4  SUS B   3      61.029   1.254  20.5960  0.00  0.00     0.000 O
BRANCH 40 44
ATOM     41  C1  SUS B   3      56.884   1.229  21.2010  0.00  0.00     0.000 C
ATOM     42  C2  SUS B   3      57.705   2.271  21.9860  0.00  0.00     0.000 C
ATOM     43  C3  SUS B   3      59.059   2.461  21.3070  0.00  0.00     0.000 C
ATOM     44  C4  SUS B   3      59.739   1.106  21.1800  0.00  0.00     0.000 C
ATOM     45  C5  SUS B   3      58.882   0.206  20.3150  0.00  0.00     0.000 C
ATOM     46  O5  SUS B   3      57.615   0.018  20.9780  0.00  0.00     0.000 O
BRANCH 42 49
ATOM     47   N  SUS B   3      56.855   3.466  22.1250  0.00  0.00     0.000 N
ATOM     49  HD  SUS B   3      57.174   4.207  21.8100  0.00  0.00     0.000 HD
ATOM     49   S  SUS B   3      56.395   3.725  23.6380  0.00  0.00     0.000 S
ATOM     50   O  SUS B   3      57.528   3.850  24.4680  0.00  0.00     0.000 OA
ATOM     51   O  SUS B   3      55.742   5.110  23.3920  0.00  0.00     0.000 OA
ATOM     52   O  SUS B   3      55.422   2.773  24.0000  0.00  0.00     0.000 OA
ENDBRANCH 42 49
BRANCH 43 53
ATOM     53   O  SUS B   3      59.873   3.354  22.1550  0.00  0.00     0.000 O
ATOM     54   S  SUS B   3      60.274   4.820  21.5300  0.00  0.00     0.000 S
ATOM     55   O  SUS B   3      59.061   5.626  21.4940  0.00  0.00     0.000 OA
ATOM     56   O  SUS B   3      61.286   5.325  22.4410  0.00  0.00     0.000 OA
ATOM     57   O  SUS B   3      60.785   4.570  20.1790  0.00  0.00     0.000 OA
ENDBRANCH 43 53
BRANCH 45 58
ATOM     58   C  SUS B   3      59.542  -1.131  20.0600  0.00  0.00     0.000 C
ATOM     59   S  SUS B   3      59.937  -3.437  21.1140  0.00  0.00     0.000 S
ATOM     60   O  SUS B   3      59.169  -2.053  21.0980  0.00  0.00     0.000 O
ATOM     61   O  SUS B   3      61.231  -3.147  21.7010  0.00  0.00     0.000 OA
ATOM     62   O  SUS B   3      59.090  -4.204  21.9870  0.00  0.00     0.000 OA
ATOM     63   O  SUS B   3      59.967  -3.871  19.7620  0.00  0.00     0.000 OA
ENDBRANCH 45 58
BRANCH 41 64
ATOM     64  O4  IDS B   4      56.278   1.734  20.0770  0.00  0.00     0.000 O
BRANCH 64 68
ATOM     65  C1  IDS B   4      53.697   2.565  17.6420  0.00  0.00     0.000 C
ATOM     66  C2  IDS B   4      53.635   3.144  19.0620  0.00  0.00     0.000 C
ATOM     67  C3  IDS B   4      53.877   2.127  20.1650  0.00  0.00     0.000 C
ATOM     68  C4  IDS B   4      54.982   1.144  19.8300  0.00  0.00     0.000 C
ATOM     69  C5  IDS B   4      54.787   0.683  18.3790  0.00  0.00     0.000 C
ATOM     70  O5  IDS B   4      54.889   1.812  17.5090  0.00  0.00     0.000 O
ATOM     71   O  IDS B   4      52.664   1.432  20.3670  0.00  0.00     0.000 O
ATOM     73  HD  IDS B   4      53.161   2.081  20.0830  0.00  0.00     0.000 HD
BRANCH 66 73
ATOM     73   O  IDS B   4      54.701   4.144  19.2110  0.00  0.00     0.000 O
ATOM     74   S  IDS B   4      54.267   5.689  19.4180  0.00  0.00     0.000 S
ATOM     75   O  IDS B   4      53.431   6.034  18.2880  0.00  0.00     0.000 OA
ATOM     76   O  IDS B   4      55.544   6.356  19.4290  0.00  0.00     0.000 OA
ATOM     77   O  IDS B   4      53.566   5.727  20.6790  0.00  0.00     0.000 OA
ENDBRANCH 66 73
BRANCH 69 78
ATOM     78   C  IDS B   4      55.687  -0.472  17.9600  0.00  0.00     0.000 C
ATOM     79   O  IDS B   4      56.838  -0.225  17.6030  0.00  0.00     0.000 OA
ATOM     80   O  IDS B   4      55.264  -1.635  18.0930  0.00  0.00     0.000 OA
ENDBRANCH 69 78
BRANCH 65 81
ATOM     81  O4  SGN B   5      52.530   1.920  17.3650  0.00  0.00     0.000 O
BRANCH 81 85
ATOM     82  C1  SGN B   5      49.781   1.323  14.2460  0.00  0.00     0.000 C
ATOM     83  C2  SGN B   5      50.766   0.181  14.5370  0.00  0.00     0.000 C
ATOM     84  C3  SGN B   5      51.353   0.354  15.9440  0.00  0.00     0.000 C
ATOM     85  C4  SGN B   5      51.985   1.730  16.0570  0.00  0.00     0.000 C
ATOM     86  C5  SGN B   5      50.910   2.776  15.7720  0.00  0.00     0.000 C
ATOM     87  O5  SGN B   5      50.413   2.575  14.4350  0.00  0.00     0.000 O
ATOM     88   O  SGN B   5      52.301  -0.660  16.1970  0.00  0.00     0.000 O
ATOM     90  HD  SGN B   5      51.488  -0.646  16.4960  0.00  0.00     0.000 HD
BRANCH 83 92
ATOM     90   N  SGN B   5      50.016  -0.347  13.3800  0.00  0.00     0.000 N
ATOM     92  HD  SGN B   5      49.991   0.231  12.7360  0.00  0.00     0.000 HD
ATOM     92   S  SGN B   5      50.296  -1.854  12.9270  0.00  0.00     0.000 S
ATOM     93   O  SGN B   5      49.434  -2.051  11.8000  0.00  0.00     0.000 OA
ATOM     94   O  SGN B   5      51.706  -1.954  12.7720  0.00  0.00     0.000 OA
ATOM     95   O  SGN B   5      49.912  -2.693  14.1260  0.00  0.00     0.000 OA
ENDBRANCH 83 92
BRANCH 86 96
ATOM     96   C  SGN B   5      51.398   4.208  15.8620  0.00  0.00     0.000 C
ATOM     97   O  SGN B   5      52.049   4.593  14.6490  0.00  0.00     0.000 O
ATOM     98   S  SGN B   5      51.553   5.967  13.9870  0.00  0.00     0.000 S
ATOM     99   O  SGN B   5      52.513   6.175  12.9300  0.00  0.00     0.000 OA
ATOM    100   O  SGN B   5      50.219   5.771  13.5450  0.00  0.00     0.000 OA
ATOM    101   O  SGN B   5      51.655   6.925  15.0400  0.00  0.00     0.000 OA
ENDBRANCH 86 96
BRANCH 82 102
ATOM    102  O4  IDS B   6      48.649   1.244  15.0000  0.00  0.00     0.000 O
BRANCH 102 106
ATOM    103  C1  IDS B   6      45.047   0.972  15.4620  0.00  0.00     0.000 C
ATOM    104  C2  IDS B   6      45.764   0.158  14.3730  0.00  0.00     0.000 C
ATOM    105  C3  IDS B   6      46.739   0.946  13.5190  0.00  0.00     0.000 C
ATOM    106  C4  IDS B   6      47.563   1.932  14.3280  0.00  0.00     0.000 C
ATOM    107  C5  IDS B   6      46.664   2.650  15.3400  0.00  0.00     0.000 C
ATOM    108  O5  IDS B   6      45.988   1.730  16.1980  0.00  0.00     0.000 O
ATOM    109   O  IDS B   6      46.001   1.615  12.5100  0.00  0.00     0.000 O
ATOM    111  HD  IDS B   6      45.201   1.669  12.8370  0.00  0.00     0.000 HD
BRANCH 104 111
ATOM    111   O  IDS B   6      46.569  -0.894  15.0120  0.00  0.00     0.000 O
ATOM    112   S  IDS B   6      46.211  -2.419  14.6840  0.00  0.00     0.000 S
ATOM    113   O  IDS B   6      44.823  -2.566  15.0930  0.00  0.00     0.000 OA
ATOM    114   O  IDS B   6      46.457  -2.658  13.2570  0.00  0.00     0.000 OA
ATOM    115   O  IDS B   6      47.155  -3.075  15.5630  0.00  0.00     0.000 OA
ENDBRANCH 104 111
BRANCH 107 116
ATOM    116   C  IDS B   6      47.507   3.609  16.1700  0.00  0.00     0.000 C
ATOM    117   O  IDS B   6      47.890   4.610  15.6190  0.00  0.00     0.000 OA
ATOM    118   O  IDS B   6      47.784   3.366  17.3340  0.00  0.00     0.000 OA
ENDBRANCH 107 116
BRANCH 103 119
ATOM    119  O4  SGN B   7      44.024   1.568  14.7970  0.00  0.00     0.000 O
BRANCH 119 123
ATOM    120  C1  SGN B   7      40.386   3.338  15.8540  0.00  0.00     0.000 C
ATOM    121  C2  SGN B   7      41.633   4.241  15.8140  0.00  0.00     0.000 C
ATOM    122  C3  SGN B   7      42.767   3.558  15.0380  0.00  0.00     0.000 C
ATOM    123  C4  SGN B   7      43.025   2.177  15.6160  0.00  0.00     0.000 C
ATOM    124  C5  SGN B   7      41.723   1.359  15.6190  0.00  0.00     0.000 C
ATOM    125  O5  SGN B   7      40.685   2.039  16.3610  0.00  0.00     0.000 O
ATOM    126   O  SGN B   7      43.938   4.379  15.1040  0.00  0.00     0.000 O
ATOM    128  HD  SGN B   7      43.088   4.297  15.2500  0.00  0.00     0.000 HD
BRANCH 121 130
ATOM    128   N  SGN B   7      41.466   5.576  15.2350  0.00  0.00     0.000 N
ATOM    130  HD  SGN B   7      40.605   5.501  15.2920  0.00  0.00     0.000 HD
ATOM    130   S  SGN B   7      41.005   6.843  16.1150  0.00  0.00     0.000 S
ATOM    131   O  SGN B   7      41.872   6.847  17.2440  0.00  0.00     0.000 OA
ATOM    132   O  SGN B   7      40.931   7.976  15.2640  0.00  0.00     0.000 OA
ATOM    133   O  SGN B   7      39.512   6.462  16.3960  0.00  0.00     0.000 OA
ENDBRANCH 121 130
BRANCH 124 134
ATOM    134   C  SGN B   7      41.850   0.018  16.2790  0.00  0.00     0.000 C
ATOM    135   O  SGN B   7      40.618  -0.276  16.9590  0.00  0.00     0.000 O
ATOM    136   S  SGN B   7      40.491  -1.710  17.5890  0.00  0.00     0.000 S
ATOM    137   O  SGN B   7      39.232  -1.732  18.2960  0.00  0.00     0.000 OA
ATOM    138   O  SGN B   7      41.633  -1.841  18.4640  0.00  0.00     0.000 OA
ATOM    139   O  SGN B   7      40.527  -2.571  16.4170  0.00  0.00     0.000 OA
ENDBRANCH 124 134
BRANCH 120 140
ATOM    140  O4  IDS B   8      39.590   2.988  14.8380  0.00  0.00     0.000 O
BRANCH 140 144
ATOM    141  C1  IDS B   8      37.906   1.723  11.9180  0.00  0.00     0.000 C
ATOM    142  C2  IDS B   8      38.861   2.946  11.8230  0.00  0.00     0.000 C
ATOM    143  C3  IDS B   8      38.581   4.016  12.8950  0.00  0.00     0.000 C
ATOM    144  C4  IDS B   8      38.339   3.398  14.2710  0.00  0.00     0.000 C
ATOM    145  C5  IDS B   8      37.394   2.193  14.1520  0.00  0.00     0.000 C
ATOM    146  O5  IDS B   8      37.898   1.215  13.2470  0.00  0.00     0.000 O
BRANCH 142 147
ATOM    147   O  IDS B   8      40.265   2.495  12.0090  0.00  0.00     0.000 O
ATOM    148   S  IDS B   8      41.262   2.319  10.7410  0.00  0.00     0.000 S
ATOM    149   O  IDS B   8      40.449   2.285   9.5460  0.00  0.00     0.000 OA
ATOM    150   O  IDS B   8      42.150   3.465  10.7840  0.00  0.00     0.000 OA
ATOM    151   O  IDS B   8      41.946   1.060  10.9660  0.00  0.00     0.000 OA
ENDBRANCH 142 147
BRANCH 145 152
ATOM    152   C  IDS B   8      37.194   1.476  15.4720  0.00  0.00     0.000 C
ATOM    153   O  IDS B   8      36.556   2.021  16.3660  0.00  0.00     0.000 OA
ATOM    154   O  IDS B   8      37.651   0.358  15.6250  0.00  0.00     0.000 OA
ENDBRANCH 145 152
ENDBRANCH 140 144
ENDBRANCH 120 140
ENDBRANCH 119 123
ENDBRANCH 103 119
ENDBRANCH 102 106
ENDBRANCH 82 102
ENDBRANCH 81 85
ENDBRANCH 65 81
ENDBRANCH 64 68
ENDBRANCH 41 64
ENDBRANCH 40 44
ENDBRANCH 24 40
ENDBRANCH 23 27
ENDBRANCH 1 23
TORSDOF 31
ENDMDL
MODEL 31
REMARK VINA RESULT:      -7.1     34.290     44.368
ROOT
ATOM      1  C1  SGN B   1      14.383  12.774  -1.7100  0.00  0.00     0.000 C
ATOM      2  C2  SGN B   1      14.890  13.832  -2.7030  0.00  0.00     0.000 C
ATOM      3  C3  SGN B   1      15.150  13.206  -4.0780  0.00  0.00     0.000 C
ATOM      4  C4  SGN B   1      16.118  12.034  -3.9480  0.00  0.00     0.000 C
ATOM      5  C5  SGN B   1      15.624  11.099  -2.8470  0.00  0.00     0.000 C
ATOM      6  O5  SGN B   1      15.452  11.842  -1.6250  0.00  0.00     0.000 O
ATOM      7   O  SGN B   1      15.662  14.178  -4.9820  0.00  0.00     0.000 O
ATOM      9  HD  SGN B   1      16.271  14.171  -4.3670  0.00  0.00     0.000 HD
ATOM      9   O  SGN B   1      16.188  11.343  -5.1810  0.00  0.00     0.000 O
ATOM     11  HD  SGN B   1      16.798  11.336  -4.5660  0.00  0.00     0.000 HD
ENDROOT
BRANCH 2 13
ATOM     11   N  SGN B   1      14.908  15.059  -1.8850  0.00  0.00     0.000 N
ATOM     13  HD  SGN B   1      14.194  14.572  -1.9320  0.00  0.00     0.000 HD
ATOM     13   S  SGN B   1      13.581  15.923  -1.6010  0.00  0.00     0.000 S
ATOM     14   O  SGN B   1      12.462  15.302  -2.1950  0.00  0.00     0.000 OA
ATOM     15   O  SGN B   1      13.545  16.253  -0.2160  0.00  0.00     0.000 OA
ATOM     16   O  SGN B   1      13.987  17.216  -2.3720  0.00  0.00     0.000 OA
ENDBRANCH 2 13
BRANCH 5 17
ATOM     17   C  SGN B   1      16.560   9.953  -2.5480  0.00  0.00     0.000 C
ATOM     18   O  SGN B   1      17.844  10.439  -2.1080  0.00  0.00     0.000 O
ATOM     19   S  SGN B   1      19.122   9.737  -2.7640  0.00  0.00     0.000 S
ATOM     20   O  SGN B   1      20.251  10.223  -2.0000  0.00  0.00     0.000 OA
ATOM     21   O  SGN B   1      18.874   8.324  -2.5930  0.00  0.00     0.000 OA
ATOM     22   O  SGN B   1      19.125  10.171  -4.1440  0.00  0.00     0.000 OA
ENDBRANCH 5 17
BRANCH 1 23
ATOM     23  O4  IDS B   2      13.219  12.219  -1.2650  0.00  0.00     0.000 O
BRANCH 23 27
ATOM     24  C1  IDS B   2       9.822   9.848  -1.0090  0.00  0.00     0.000 C
ATOM     25  C2  IDS B   2      10.712   9.607  -2.2490  0.00  0.00     0.000 C
ATOM     26  C3  IDS B   2      12.062  10.302  -2.0950  0.00  0.00     0.000 C
ATOM     27  C4  IDS B   2      11.947  11.791  -1.7960  0.00  0.00     0.000 C
ATOM     28  C5  IDS B   2      10.748  12.050  -0.8620  0.00  0.00     0.000 C
ATOM     29  O5  IDS B   2      10.379  10.867  -0.1690  0.00  0.00     0.000 O
ATOM     30   O  IDS B   2      12.800  10.163  -3.3030  0.00  0.00     0.000 O
ATOM     32  HD  IDS B   2      12.552  10.716  -3.9210  0.00  0.00     0.000 HD
BRANCH 25 32
ATOM     32   O  IDS B   2      10.974   8.165  -2.4800  0.00  0.00     0.000 O
ATOM     33   S  IDS B   2      10.516   7.407  -3.8720  0.00  0.00     0.000 S
ATOM     34   O  IDS B   2      10.728   5.986  -3.6490  0.00  0.00     0.000 OA
ATOM     35   O  IDS B   2       9.115   7.700  -4.1440  0.00  0.00     0.000 OA
ATOM     36   O  IDS B   2      11.394   7.916  -4.9000  0.00  0.00     0.000 OA
ENDBRANCH 25 32
BRANCH 28 37
ATOM     37   C  IDS B   2      10.867  13.196   0.1640  0.00  0.00     0.000 C
ATOM     38   O  IDS B   2      10.107  14.107  -0.0630  0.00  0.00     0.000 OA
ATOM     39   O  IDS B   2      11.598  13.223   1.1840  0.00  0.00     0.000 OA
ENDBRANCH 28 37
BRANCH 24 40
ATOM     40  O4  SUS B   3       8.561   9.369  -0.9830  0.00  0.00     0.000 O
BRANCH 40 44
ATOM     41  C1  SUS B   3       6.274   8.018   2.2560  0.00  0.00     0.000 C
ATOM     42  C2  SUS B   3       6.251   9.531   1.9590  0.00  0.00     0.000 C
ATOM     43  C3  SUS B   3       6.713   9.768   0.5230  0.00  0.00     0.000 C
ATOM     44  C4  SUS B   3       8.077   9.122   0.3320  0.00  0.00     0.000 C
ATOM     45  C5  SUS B   3       7.949   7.630   0.5630  0.00  0.00     0.000 C
ATOM     46  O5  SUS B   3       7.533   7.420   1.9270  0.00  0.00     0.000 O
BRANCH 42 49
ATOM     47   N  SUS B   3       4.898   9.935   2.3800  0.00  0.00     0.000 N
ATOM     49  HD  SUS B   3       4.378  10.249   1.7620  0.00  0.00     0.000 HD
ATOM     49   S  SUS B   3       4.916  10.981   3.5940  0.00  0.00     0.000 S
ATOM     50   O  SUS B   3       5.661  12.122   3.2330  0.00  0.00     0.000 OA
ATOM     51   O  SUS B   3       3.398  11.293   3.5830  0.00  0.00     0.000 OA
ATOM     52   O  SUS B   3       5.279  10.313   4.7800  0.00  0.00     0.000 OA
ENDBRANCH 42 49
BRANCH 43 53
ATOM     53   O  SUS B   3       6.815  11.226   0.3130  0.00  0.00     0.000 O
ATOM     54   S  SUS B   3       5.694  11.922  -0.6670  0.00  0.00     0.000 S
ATOM     55   O  SUS B   3       4.424  11.908   0.0450  0.00  0.00     0.000 OA
ATOM     56   O  SUS B   3       6.217  13.255  -0.9080  0.00  0.00     0.000 OA
ATOM     57   O  SUS B   3       5.633  11.098  -1.8780  0.00  0.00     0.000 OA
ENDBRANCH 43 53
BRANCH 45 58
ATOM     58   C  SUS B   3       9.247   6.902   0.2930  0.00  0.00     0.000 C
ATOM     59   S  SUS B   3      11.670   6.695   1.1120  0.00  0.00     0.000 S
ATOM     60   O  SUS B   3      10.186   7.197   1.3400  0.00  0.00     0.000 O
ATOM     61   O  SUS B   3      12.254   7.646   0.1860  0.00  0.00     0.000 OA
ATOM     62   O  SUS B   3      12.202   6.817   2.4430  0.00  0.00     0.000 OA
ATOM     63   O  SUS B   3      11.551   5.366   0.6250  0.00  0.00     0.000 OA
ENDBRANCH 45 58
BRANCH 41 64
ATOM     64  O4  IDS B   4       5.185   7.341   1.7670  0.00  0.00     0.000 O
BRANCH 64 68
ATOM     65  C1  IDS B   4       2.665   4.916   2.7890  0.00  0.00     0.000 C
ATOM     66  C2  IDS B   4       3.587   5.558   3.8330  0.00  0.00     0.000 C
ATOM     67  C3  IDS B   4       5.056   5.581   3.4450  0.00  0.00     0.000 C
ATOM     68  C4  IDS B   4       5.273   5.915   1.9810  0.00  0.00     0.000 C
ATOM     69  C5  IDS B   4       4.264   5.109   1.1520  0.00  0.00     0.000 C
ATOM     70  O5  IDS B   4       2.937   5.491   1.5240  0.00  0.00     0.000 O
ATOM     71   O  IDS B   4       5.584   4.301   3.7260  0.00  0.00     0.000 O
ATOM     73  HD  IDS B   4       5.008   4.946   3.7830  0.00  0.00     0.000 HD
BRANCH 66 73
ATOM     73   O  IDS B   4       3.204   6.967   3.9990  0.00  0.00     0.000 O
ATOM     74   S  IDS B   4       2.642   7.436   5.4420  0.00  0.00     0.000 S
ATOM     75   O  IDS B   4       1.507   6.586   5.7340  0.00  0.00     0.000 OA
ATOM     76   O  IDS B   4       2.295   8.812   5.1920  0.00  0.00     0.000 OA
ATOM     77   O  IDS B   4       3.741   7.257   6.3610  0.00  0.00     0.000 OA
ENDBRANCH 66 73
BRANCH 69 78
ATOM     78   C  IDS B   4       4.496   5.165  -0.3510  0.00  0.00     0.000 C
ATOM     79   O  IDS B   4       3.672   4.637  -1.0970  0.00  0.00     0.000 OA
ATOM     80   O  IDS B   4       5.455   5.832  -0.7820  0.00  0.00     0.000 OA
ENDBRANCH 69 78
BRANCH 65 81
ATOM     81  O4  SGN B   5       2.755   3.560   2.8790  0.00  0.00     0.000 O
BRANCH 81 85
ATOM     82  C1  SGN B   5       0.543   0.004   2.5600  0.00  0.00     0.000 C
ATOM     83  C2  SGN B   5       1.013   0.653   1.2490  0.00  0.00     0.000 C
ATOM     84  C3  SGN B   5       2.159   1.632   1.5430  0.00  0.00     0.000 C
ATOM     85  C4  SGN B   5       1.700   2.642   2.5800  0.00  0.00     0.000 C
ATOM     86  C5  SGN B   5       1.283   1.884   3.8370  0.00  0.00     0.000 C
ATOM     87  O5  SGN B   5       0.196   0.999   3.5040  0.00  0.00     0.000 O
ATOM     88   O  SGN B   5       2.558   2.275   0.3530  0.00  0.00     0.000 O
ATOM     90  HD  SGN B   5       2.975   1.618   0.7330  0.00  0.00     0.000 HD
BRANCH 83 92
ATOM     90   N  SGN B   5      -0.065  -0.099   0.5790  0.00  0.00     0.000 N
ATOM     92  HD  SGN B   5      -0.809   0.346   0.5920  0.00  0.00     0.000 HD
ATOM     92   S  SGN B   5       0.270  -0.816  -0.8090  0.00  0.00     0.000 S
ATOM     93   O  SGN B   5      -0.962  -1.439  -1.1930  0.00  0.00     0.000 OA
ATOM     94   O  SGN B   5       0.847   0.190  -1.6340  0.00  0.00     0.000 OA
ATOM     95   O  SGN B   5       1.362  -1.808  -0.4760  0.00  0.00     0.000 OA
ENDBRANCH 83 92
BRANCH 86 96
ATOM     96   C  SGN B   5       0.811   2.772   4.9700  0.00  0.00     0.000 C
ATOM     97   O  SGN B   5      -0.383   3.467   4.5990  0.00  0.00     0.000 O
ATOM     98   S  SGN B   5      -1.604   3.373   5.6330  0.00  0.00     0.000 S
ATOM     99   O  SGN B   5      -2.553   4.316   5.0910  0.00  0.00     0.000 OA
ATOM    100   O  SGN B   5      -2.050   2.026   5.6460  0.00  0.00     0.000 OA
ATOM    101   O  SGN B   5      -1.046   3.786   6.8800  0.00  0.00     0.000 OA
ENDBRANCH 86 96
BRANCH 82 102
ATOM    102  O4  IDS B   6       1.469  -0.847   3.0850  0.00  0.00     0.000 O
BRANCH 102 106
ATOM    103  C1  IDS B   6       2.865  -3.953   4.3740  0.00  0.00     0.000 C
ATOM    104  C2  IDS B   6       2.394  -3.849   2.9150  0.00  0.00     0.000 C
ATOM    105  C3  IDS B   6       1.030  -3.214   2.7230  0.00  0.00     0.000 C
ATOM    106  C4  IDS B   6       0.807  -2.017   3.6300  0.00  0.00     0.000 C
ATOM    107  C5  IDS B   6       1.325  -2.330   5.0370  0.00  0.00     0.000 C
ATOM    108  O5  IDS B   6       2.702  -2.708   5.0260  0.00  0.00     0.000 O
ATOM    109   O  IDS B   6       0.045  -4.209   2.9510  0.00  0.00     0.000 O
ATOM    111  HD  IDS B   6       0.449  -4.793   3.4460  0.00  0.00     0.000 HD
BRANCH 104 111
ATOM    111   O  IDS B   6       3.329  -2.992   2.1700  0.00  0.00     0.000 O
ATOM    112   S  IDS B   6       4.313  -3.688   1.1160  0.00  0.00     0.000 S
ATOM    113   O  IDS B   6       5.070  -4.650   1.9030  0.00  0.00     0.000 OA
ATOM    114   O  IDS B   6       3.503  -4.276   0.0430  0.00  0.00     0.000 OA
ATOM    115   O  IDS B   6       5.078  -2.529   0.7100  0.00  0.00     0.000 OA
ENDBRANCH 104 111
BRANCH 107 116
ATOM    116   C  IDS B   6       1.130  -1.110   5.9280  0.00  0.00     0.000 C
ATOM    117   O  IDS B   6      -0.002  -0.845   6.2440  0.00  0.00     0.000 OA
ATOM    118   O  IDS B   6       2.078  -0.433   6.2940  0.00  0.00     0.000 OA
ENDBRANCH 107 116
BRANCH 103 119
ATOM    119  O4  SGN B   7       2.250  -5.075   4.8300  0.00  0.00     0.000 O
BRANCH 119 123
ATOM    120  C1  SGN B   7       2.957  -7.897   7.8350  0.00  0.00     0.000 C
ATOM    121  C2  SGN B   7       2.234  -6.596   8.2330  0.00  0.00     0.000 C
ATOM    122  C3  SGN B   7       1.702  -5.873   6.9890  0.00  0.00     0.000 C
ATOM    123  C4  SGN B   7       2.830  -5.670   5.9910  0.00  0.00     0.000 C
ATOM    124  C5  SGN B   7       3.489  -7.020   5.6650  0.00  0.00     0.000 C
ATOM    125  O5  SGN B   7       3.976  -7.664   6.8640  0.00  0.00     0.000 O
ATOM    126   O  SGN B   7       1.125  -4.624   7.3870  0.00  0.00     0.000 O
ATOM    128  HD  SGN B   7       1.452  -5.391   7.6210  0.00  0.00     0.000 HD
BRANCH 121 130
ATOM    128   N  SGN B   7       1.660  -7.362   9.3420  0.00  0.00     0.000 N
ATOM    130  HD  SGN B   7       2.417  -7.335   9.7620  0.00  0.00     0.000 HD
ATOM    130   S  SGN B   7       1.312  -6.689  10.7630  0.00  0.00     0.000 S
ATOM    131   O  SGN B   7       0.544  -5.533  10.4490  0.00  0.00     0.000 OA
ATOM    132   O  SGN B   7       0.783  -7.693  11.6140  0.00  0.00     0.000 OA
ATOM    133   O  SGN B   7       2.756  -6.427  11.3110  0.00  0.00     0.000 OA
ENDBRANCH 121 130
BRANCH 124 134
ATOM    134   C  SGN B   7       4.691  -6.909   4.7740  0.00  0.00     0.000 C
ATOM    135   O  SGN B   7       5.695  -7.824   5.2450  0.00  0.00     0.000 O
ATOM    136   S  SGN B   7       6.980  -7.972   4.3530  0.00  0.00     0.000 S
ATOM    137   O  SGN B   7       7.874  -8.849   5.0720  0.00  0.00     0.000 OA
ATOM    138   O  SGN B   7       7.499  -6.631   4.2110  0.00  0.00     0.000 OA
ATOM    139   O  SGN B   7       6.446  -8.545   3.1280  0.00  0.00     0.000 OA
ENDBRANCH 124 134
BRANCH 120 140
ATOM    140  O4  IDS B   8       2.424  -9.008   7.3160  0.00  0.00     0.000 O
BRANCH 140 144
ATOM    141  C1  IDS B   8       0.387 -11.570   5.8160  0.00  0.00     0.000 C
ATOM    142  C2  IDS B   8      -0.085 -10.820   7.0940  0.00  0.00     0.000 C
ATOM    143  C3  IDS B   8       0.996 -10.754   8.1890  0.00  0.00     0.000 C
ATOM    144  C4  IDS B   8       2.370 -10.408   7.6180  0.00  0.00     0.000 C
ATOM    145  C5  IDS B   8       2.640 -11.232   6.3500  0.00  0.00     0.000 C
ATOM    146  O5  IDS B   8       1.626 -11.035   5.3670  0.00  0.00     0.000 O
BRANCH 142 147
ATOM    147   O  IDS B   8      -0.441  -9.419   6.7430  0.00  0.00     0.000 O
ATOM    148   S  IDS B   8      -1.723  -8.689   7.4170  0.00  0.00     0.000 S
ATOM    149   O  IDS B   8      -2.553  -9.716   8.0050  0.00  0.00     0.000 OA
ATOM    150   O  IDS B   8      -1.176  -7.777   8.4030  0.00  0.00     0.000 OA
ATOM    151   O  IDS B   8      -2.394  -8.011   6.3240  0.00  0.00     0.000 OA
ENDBRANCH 142 147
BRANCH 145 152
ATOM    152   C  IDS B   8       3.947 -10.862   5.6800  0.00  0.00     0.000 C
ATOM    153   O  IDS B   8       4.996 -10.955   6.3080  0.00  0.00     0.000 OA
ATOM    154   O  IDS B   8       3.946 -10.494   4.5190  0.00  0.00     0.000 OA
ENDBRANCH 145 152
ENDBRANCH 140 144
ENDBRANCH 120 140
ENDBRANCH 119 123
ENDBRANCH 103 119
ENDBRANCH 102 106
ENDBRANCH 82 102
ENDBRANCH 81 85
ENDBRANCH 65 81
ENDBRANCH 64 68
ENDBRANCH 41 64
ENDBRANCH 40 44
ENDBRANCH 24 40
ENDBRANCH 23 27
ENDBRANCH 1 23
TORSDOF 31
ENDMDL
MODEL 32
REMARK VINA RESULT:      -7.1     37.931     44.545
ROOT
ATOM      1  C1  SGN B   1      12.971  16.266   0.5090  0.00  0.00     0.000 C
ATOM      2  C2  SGN B   1      14.329  16.955   0.2950  0.00  0.00     0.000 C
ATOM      3  C3  SGN B   1      15.122  17.010   1.6050  0.00  0.00     0.000 C
ATOM      4  C4  SGN B   1      14.298  17.697   2.6900  0.00  0.00     0.000 C
ATOM      5  C5  SGN B   1      12.915  17.054   2.7490  0.00  0.00     0.000 C
ATOM      6  O5  SGN B   1      12.305  17.104   1.4450  0.00  0.00     0.000 O
ATOM      7   O  SGN B   1      16.358  17.687   1.4140  0.00  0.00     0.000 O
ATOM      9  HD  SGN B   1      15.786  18.305   1.2130  0.00  0.00     0.000 HD
ATOM      9   O  SGN B   1      14.954  17.559   3.9370  0.00  0.00     0.000 O
ATOM     11  HD  SGN B   1      14.382  18.177   3.7360  0.00  0.00     0.000 HD
ENDROOT
BRANCH 2 13
ATOM     11   N  SGN B   1      14.265  17.270  -1.1450  0.00  0.00     0.000 N
ATOM     13  HD  SGN B   1      14.148  16.458  -0.8660  0.00  0.00     0.000 HD
ATOM     13   S  SGN B   1      14.643  16.192  -2.2780  0.00  0.00     0.000 S
ATOM     14   O  SGN B   1      14.973  14.957  -1.6820  0.00  0.00     0.000 OA
ATOM     15   O  SGN B   1      13.644  16.236  -3.2920  0.00  0.00     0.000 OA
ATOM     16   O  SGN B   1      15.909  16.903  -2.8480  0.00  0.00     0.000 OA
ENDBRANCH 2 13
BRANCH 5 17
ATOM     17   C  SGN B   1      11.967  17.723   3.7140  0.00  0.00     0.000 C
ATOM     18   O  SGN B   1      12.187  19.147   3.7470  0.00  0.00     0.000 O
ATOM     19   S  SGN B   1      12.232  19.816   5.1990  0.00  0.00     0.000 S
ATOM     20   O  SGN B   1      12.224  21.243   4.9550  0.00  0.00     0.000 OA
ATOM     21   O  SGN B   1      11.036  19.333   5.8480  0.00  0.00     0.000 OA
ATOM     22   O  SGN B   1      13.460  19.337   5.7970  0.00  0.00     0.000 OA
ENDBRANCH 5 17
BRANCH 1 23
ATOM     23  O4  IDS B   2      12.400  15.028   0.4750  0.00  0.00     0.000 O
BRANCH 23 27
ATOM     24  C1  IDS B   2       9.867  11.758   0.1370  0.00  0.00     0.000 C
ATOM     25  C2  IDS B   2      10.768  12.033  -1.0880  0.00  0.00     0.000 C
ATOM     26  C3  IDS B   2      11.852  13.053  -0.7490  0.00  0.00     0.000 C
ATOM     27  C4  IDS B   2      11.305  14.354  -0.1800  0.00  0.00     0.000 C
ATOM     28  C5  IDS B   2      10.098  14.063   0.7350  0.00  0.00     0.000 C
ATOM     29  O5  IDS B   2      10.109  12.714   1.1770  0.00  0.00     0.000 O
ATOM     30   O  IDS B   2      12.579  13.372  -1.9290  0.00  0.00     0.000 O
ATOM     32  HD  IDS B   2      12.167  13.935  -2.4420  0.00  0.00     0.000 HD
BRANCH 25 32
ATOM     32   O  IDS B   2      11.443  10.805  -1.5750  0.00  0.00     0.000 O
ATOM     33   S  IDS B   2      11.161  10.194  -3.0810  0.00  0.00     0.000 S
ATOM     34   O  IDS B   2      11.808   8.892  -3.1180  0.00  0.00     0.000 OA
ATOM     35   O  IDS B   2       9.726  10.081  -3.2970  0.00  0.00     0.000 OA
ATOM     36   O  IDS B   2      11.785  11.118  -4.0000  0.00  0.00     0.000 OA
ENDBRANCH 25 32
BRANCH 28 37
ATOM     37   C  IDS B   2       9.887  14.974   1.9620  0.00  0.00     0.000 C
ATOM     38   O  IDS B   2       9.269  15.978   1.6990  0.00  0.00     0.000 OA
ATOM     39   O  IDS B   2      10.229  14.736   3.1460  0.00  0.00     0.000 OA
ENDBRANCH 28 37
BRANCH 24 40
ATOM     40  O4  SUS B   3       8.806  10.932   0.0190  0.00  0.00     0.000 O
BRANCH 40 44
ATOM     41  C1  SUS B   3       7.019   8.390   2.8280  0.00  0.00     0.000 C
ATOM     42  C2  SUS B   3       6.882   9.908   3.0630  0.00  0.00     0.000 C
ATOM     43  C3  SUS B   3       7.147  10.646   1.7530  0.00  0.00     0.000 C
ATOM     44  C4  SUS B   3       8.505  10.224   1.2160  0.00  0.00     0.000 C
ATOM     45  C5  SUS B   3       8.483   8.734   0.9410  0.00  0.00     0.000 C
ATOM     46  O5  SUS B   3       8.254   8.049   2.1890  0.00  0.00     0.000 O
BRANCH 42 49
ATOM     47   N  SUS B   3       6.913  10.839   4.2040  0.00  0.00     0.000 N
ATOM     49  HD  SUS B   3       7.646  10.862   4.6650  0.00  0.00     0.000 HD
ATOM     49   S  SUS B   3       5.694  10.612   5.2190  0.00  0.00     0.000 S
ATOM     50   O  SUS B   3       5.703   9.284   5.6910  0.00  0.00     0.000 OA
ATOM     51   O  SUS B   3       6.192  11.586   6.3180  0.00  0.00     0.000 OA
ATOM     52   O  SUS B   3       4.504  11.089   4.6340  0.00  0.00     0.000 OA
ENDBRANCH 42 49
BRANCH 43 53
ATOM     53   O  SUS B   3       7.147  12.094   2.0380  0.00  0.00     0.000 O
ATOM     54   S  SUS B   3       6.034  13.013   1.2530  0.00  0.00     0.000 S
ATOM     55   O  SUS B   3       4.730  12.697   1.8180  0.00  0.00     0.000 OA
ATOM     56   O  SUS B   3       6.465  14.377   1.5020  0.00  0.00     0.000 OA
ATOM     57   O  SUS B   3       6.106  12.634  -0.1620  0.00  0.00     0.000 OA
ENDBRANCH 43 53
BRANCH 45 58
ATOM     58   C  SUS B   3       9.771   8.255   0.3090  0.00  0.00     0.000 C
ATOM     59   S  SUS B   3      12.185   7.588   0.8700  0.00  0.00     0.000 S
ATOM     60   O  SUS B   3      10.707   7.905   1.3430  0.00  0.00     0.000 O
ATOM     61   O  SUS B   3      12.790   8.882   0.6230  0.00  0.00     0.000 OA
ATOM     62   O  SUS B   3      12.709   6.944   2.0440  0.00  0.00     0.000 OA
ATOM     63   O  SUS B   3      12.048   6.753  -0.2710  0.00  0.00     0.000 OA
ENDBRANCH 45 58
BRANCH 41 64
ATOM     64  O4  IDS B   4       5.911   7.817   2.2530  0.00  0.00     0.000 O
BRANCH 64 68
ATOM     65  C1  IDS B   4       3.177   5.465   2.7710  0.00  0.00     0.000 C
ATOM     66  C2  IDS B   4       3.989   5.981   3.9660  0.00  0.00     0.000 C
ATOM     67  C3  IDS B   4       5.495   5.951   3.7610  0.00  0.00     0.000 C
ATOM     68  C4  IDS B   4       5.908   6.377   2.3650  0.00  0.00     0.000 C
ATOM     69  C5  IDS B   4       4.975   5.688   1.3600  0.00  0.00     0.000 C
ATOM     70  O5  IDS B   4       3.631   6.114   1.5970  0.00  0.00     0.000 O
ATOM     71   O  IDS B   4       5.925   4.628   4.0050  0.00  0.00     0.000 O
ATOM     73  HD  IDS B   4       5.376   5.297   4.0410  0.00  0.00     0.000 HD
BRANCH 66 73
ATOM     73   O  IDS B   4       3.653   7.393   4.1930  0.00  0.00     0.000 O
ATOM     74   S  IDS B   4       2.513   7.734   5.2890  0.00  0.00     0.000 S
ATOM     75   O  IDS B   4       1.326   7.010   4.8850  0.00  0.00     0.000 OA
ATOM     76   O  IDS B   4       2.399   9.165   5.1620  0.00  0.00     0.000 OA
ATOM     77   O  IDS B   4       3.050   7.291   6.5540  0.00  0.00     0.000 OA
ENDBRANCH 66 73
BRANCH 69 78
ATOM     78   C  IDS B   4       5.397   5.838  -0.0960  0.00  0.00     0.000 C
ATOM     79   O  IDS B   4       6.526   6.258  -0.3430  0.00  0.00     0.000 OA
ATOM     80   O  IDS B   4       4.625   5.433  -0.9840  0.00  0.00     0.000 OA
ENDBRANCH 69 78
BRANCH 65 81
ATOM     81  O4  SGN B   5       3.194   4.103   2.7650  0.00  0.00     0.000 O
BRANCH 81 85
ATOM     82  C1  SGN B   5       0.773   0.723   2.1790  0.00  0.00     0.000 C
ATOM     83  C2  SGN B   5       1.425   1.338   0.9320  0.00  0.00     0.000 C
ATOM     84  C3  SGN B   5       2.602   2.228   1.3550  0.00  0.00     0.000 C
ATOM     85  C4  SGN B   5       2.113   3.268   2.3480  0.00  0.00     0.000 C
ATOM     86  C5  SGN B   5       1.510   2.540   3.5460  0.00  0.00     0.000 C
ATOM     87  O5  SGN B   5       0.402   1.739   3.0910  0.00  0.00     0.000 O
ATOM     88   O  SGN B   5       3.171   2.842   0.2190  0.00  0.00     0.000 O
ATOM     90  HD  SGN B   5       3.496   2.155   0.6340  0.00  0.00     0.000 HD
BRANCH 83 92
ATOM     90   N  SGN B   5       1.563   0.071   0.1880  0.00  0.00     0.000 N
ATOM     92  HD  SGN B   5       1.487  -0.610   0.7170  0.00  0.00     0.000 HD
ATOM     92   S  SGN B   5       0.797  -0.068  -1.2080  0.00  0.00     0.000 S
ATOM     93   O  SGN B   5       1.123  -1.386  -1.6620  0.00  0.00     0.000 OA
ATOM     94   O  SGN B   5      -0.556   0.280  -0.9420  0.00  0.00     0.000 OA
ATOM     95   O  SGN B   5       1.382   1.024  -2.0770  0.00  0.00     0.000 OA
ENDBRANCH 83 92
BRANCH 86 96
ATOM     96   C  SGN B   5       0.987   3.458   4.6320  0.00  0.00     0.000 C
ATOM     97   O  SGN B   5       0.936   2.774   5.8860  0.00  0.00     0.000 O
ATOM     98   S  SGN B   5       1.630   3.519   7.1250  0.00  0.00     0.000 S
ATOM     99   O  SGN B   5       1.239   2.701   8.2480  0.00  0.00     0.000 OA
ATOM    100   O  SGN B   5       3.026   3.553   6.8740  0.00  0.00     0.000 OA
ATOM    101   O  SGN B   5       1.036   4.817   7.1370  0.00  0.00     0.000 OA
ENDBRANCH 86 96
BRANCH 82 102
ATOM    102  O4  IDS B   6       1.573  -0.196   2.7910  0.00  0.00     0.000 O
BRANCH 102 106
ATOM    103  C1  IDS B   6       2.576  -3.473   4.0200  0.00  0.00     0.000 C
ATOM    104  C2  IDS B   6       2.169  -3.275   2.5520  0.00  0.00     0.000 C
ATOM    105  C3  IDS B   6       0.890  -2.489   2.3390  0.00  0.00     0.000 C
ATOM    106  C4  IDS B   6       0.769  -1.301   3.2760  0.00  0.00     0.000 C
ATOM    107  C5  IDS B   6       1.201  -1.709   4.6880  0.00  0.00     0.000 C
ATOM    108  O5  IDS B   6       2.529  -2.237   4.7070  0.00  0.00     0.000 O
ATOM    109   O  IDS B   6      -0.205  -3.375   2.5050  0.00  0.00     0.000 O
ATOM    111  HD  IDS B   6       0.116  -4.014   2.9930  0.00  0.00     0.000 HD
BRANCH 104 111
ATOM    111   O  IDS B   6       3.217  -2.506   1.8640  0.00  0.00     0.000 O
ATOM    112   S  IDS B   6       4.083  -3.249   0.7410  0.00  0.00     0.000 S
ATOM    113   O  IDS B   6       4.693  -4.373   1.4330  0.00  0.00     0.000 OA
ATOM    114   O  IDS B   6       3.190  -3.621  -0.3630  0.00  0.00     0.000 OA
ATOM    115   O  IDS B   6       5.009  -2.185   0.4170  0.00  0.00     0.000 OA
ENDBRANCH 104 111
BRANCH 107 116
ATOM    116   C  IDS B   6       1.111  -0.502   5.6120  0.00  0.00     0.000 C
ATOM    117   O  IDS B   6       2.153  -0.011   5.9660  0.00  0.00     0.000 OA
ATOM    118   O  IDS B   6       0.033  -0.063   5.9800  0.00  0.00     0.000 OA
ENDBRANCH 107 116
BRANCH 103 119
ATOM    119  O4  SGN B   7       1.827  -4.532   4.4210  0.00  0.00     0.000 O
BRANCH 119 123
ATOM    120  C1  SGN B   7       1.703  -7.025   7.7770  0.00  0.00     0.000 C
ATOM    121  C2  SGN B   7       0.864  -5.734   7.8160  0.00  0.00     0.000 C
ATOM    122  C3  SGN B   7       0.697  -5.158   6.4040  0.00  0.00     0.000 C
ATOM    123  C4  SGN B   7       2.060  -4.987   5.7550  0.00  0.00     0.000 C
ATOM    124  C5  SGN B   7       2.819  -6.324   5.7710  0.00  0.00     0.000 C
ATOM    125  O5  SGN B   7       2.954  -6.827   7.1190  0.00  0.00     0.000 O
ATOM    126   O  SGN B   7      -0.001  -3.911   6.4890  0.00  0.00     0.000 O
ATOM    128  HD  SGN B   7       0.263  -4.634   6.8850  0.00  0.00     0.000 HD
BRANCH 121 130
ATOM    128   N  SGN B   7       0.019  -6.426   8.7920  0.00  0.00     0.000 N
ATOM    130  HD  SGN B   7       0.620  -6.311   9.4050  0.00  0.00     0.000 HD
ATOM    130   S  SGN B   7      -0.749  -5.644   9.9720  0.00  0.00     0.000 S
ATOM    131   O  SGN B   7      -1.431  -4.574   9.3270  0.00  0.00     0.000 OA
ATOM    132   O  SGN B   7      -1.469  -6.593  10.7420  0.00  0.00     0.000 OA
ATOM    133   O  SGN B   7       0.464  -5.240  10.8770  0.00  0.00     0.000 OA
ENDBRANCH 121 130
BRANCH 124 134
ATOM    134   C  SGN B   7       4.225  -6.231   5.2550  0.00  0.00     0.000 C
ATOM    135   O  SGN B   7       5.061  -7.092   6.0460  0.00  0.00     0.000 O
ATOM    136   S  SGN B   7       6.548  -7.255   5.5680  0.00  0.00     0.000 S
ATOM    137   O  SGN B   7       7.208  -8.068   6.5620  0.00  0.00     0.000 OA
ATOM    138   O  SGN B   7       7.073  -5.910   5.5000  0.00  0.00     0.000 OA
ATOM    139   O  SGN B   7       6.393  -7.907   4.2780  0.00  0.00     0.000 OA
ENDBRANCH 124 134
BRANCH 120 140
ATOM    140  O4  IDS B   8       1.372  -8.206   7.2450  0.00  0.00     0.000 O
BRANCH 140 144
ATOM    141  C1  IDS B   8      -0.058 -10.999   5.4790  0.00  0.00     0.000 C
ATOM    142  C2  IDS B   8      -0.918 -10.144   6.4530  0.00  0.00     0.000 C
ATOM    143  C3  IDS B   8      -0.239  -9.918   7.8170  0.00  0.00     0.000 C
ATOM    144  C4  IDS B   8       1.241  -9.569   7.6690  0.00  0.00     0.000 C
ATOM    145  C5  IDS B   8       1.907 -10.505   6.6500  0.00  0.00     0.000 C
ATOM    146  O5  IDS B   8       1.254 -10.456   5.3840  0.00  0.00     0.000 O
BRANCH 142 147
ATOM    147   O  IDS B   8      -1.160  -8.805   5.8550  0.00  0.00     0.000 O
ATOM    148   S  IDS B   8      -2.582  -8.049   6.0480  0.00  0.00     0.000 S
ATOM    149   O  IDS B   8      -3.544  -9.031   6.4930  0.00  0.00     0.000 OA
ATOM    150   O  IDS B   8      -2.339  -7.013   7.0350  0.00  0.00     0.000 OA
ATOM    151   O  IDS B   8      -2.914  -7.520   4.7380  0.00  0.00     0.000 OA
ENDBRANCH 142 147
BRANCH 145 152
ATOM    152   C  IDS B   8       3.355 -10.145   6.3860  0.00  0.00     0.000 C
ATOM    153   O  IDS B   8       4.136 -10.055   7.3270  0.00  0.00     0.000 OA
ATOM    154   O  IDS B   8       3.733  -9.970   5.2420  0.00  0.00     0.000 OA
ENDBRANCH 145 152
ENDBRANCH 140 144
ENDBRANCH 120 140
ENDBRANCH 119 123
ENDBRANCH 103 119
ENDBRANCH 102 106
ENDBRANCH 82 102
ENDBRANCH 81 85
ENDBRANCH 65 81
ENDBRANCH 64 68
ENDBRANCH 41 64
ENDBRANCH 40 44
ENDBRANCH 24 40
ENDBRANCH 23 27
ENDBRANCH 1 23
TORSDOF 31
ENDMDL
MODEL 33
REMARK VINA RESULT:      -6.9      9.397     13.409
ROOT
ATOM      1  C1  SGN B   1      37.229   0.899  13.1130  0.00  0.00     0.000 C
ATOM      2  C2  SGN B   1      37.021   2.041  12.1050  0.00  0.00     0.000 C
ATOM      3  C3  SGN B   1      35.759   2.842  12.4440  0.00  0.00     0.000 C
ATOM      4  C4  SGN B   1      34.550   1.914  12.5130  0.00  0.00     0.000 C
ATOM      5  C5  SGN B   1      34.880   0.731  13.4200  0.00  0.00     0.000 C
ATOM      6  O5  SGN B   1      36.077   0.083  12.9490  0.00  0.00     0.000 O
ATOM      7   O  SGN B   1      35.545   3.870  11.4840  0.00  0.00     0.000 O
ATOM      9  HD  SGN B   1      35.503   3.158  10.9920  0.00  0.00     0.000 HD
ATOM      9   O  SGN B   1      33.439   2.627  13.0250  0.00  0.00     0.000 O
ATOM     11  HD  SGN B   1      33.397   1.915  12.5330  0.00  0.00     0.000 HD
ENDROOT
BRANCH 2 13
ATOM     11   N  SGN B   1      38.186   1.847  11.2210  0.00  0.00     0.000 N
ATOM     13  HD  SGN B   1      38.293   1.948  12.0740  0.00  0.00     0.000 HD
ATOM     13   S  SGN B   1      39.639   2.442  11.5700  0.00  0.00     0.000 S
ATOM     14   O  SGN B   1      39.609   3.094  12.8210  0.00  0.00     0.000 OA
ATOM     15   O  SGN B   1      40.610   1.428  11.3330  0.00  0.00     0.000 OA
ATOM     16   O  SGN B   1      39.748   3.466  10.3990  0.00  0.00     0.000 OA
ENDBRANCH 2 13
BRANCH 5 17
ATOM     17   C  SGN B   1      33.796  -0.317  13.4810  0.00  0.00     0.000 C
ATOM     18   O  SGN B   1      33.269  -0.589  12.1680  0.00  0.00     0.000 O
ATOM     19   S  SGN B   1      31.675  -0.670  12.0550  0.00  0.00     0.000 S
ATOM     20   O  SGN B   1      31.419  -1.177  10.7230  0.00  0.00     0.000 OA
ATOM     21   O  SGN B   1      31.294  -1.585  13.1050  0.00  0.00     0.000 OA
ATOM     22   O  SGN B   1      31.213   0.685  12.2580  0.00  0.00     0.000 OA
ENDBRANCH 5 17
BRANCH 1 23
ATOM     23  O4  IDS B   2      37.837   0.646  14.3060  0.00  0.00     0.000 O
BRANCH 23 27
ATOM     24  C1  IDS B   2      40.921  -0.400  16.8820  0.00  0.00     0.000 C
ATOM     25  C2  IDS B   2      41.165  -0.708  15.3880  0.00  0.00     0.000 C
ATOM     26  C3  IDS B   2      40.120  -0.024  14.5110  0.00  0.00     0.000 C
ATOM     27  C4  IDS B   2      38.687  -0.357  14.9020  0.00  0.00     0.000 C
ATOM     28  C5  IDS B   2      38.570  -0.463  16.4360  0.00  0.00     0.000 C
ATOM     29  O5  IDS B   2      39.641   0.216  17.0740  0.00  0.00     0.000 O
ATOM     30   O  IDS B   2      40.303  -0.432  13.1600  0.00  0.00     0.000 O
ATOM     32  HD  IDS B   2      39.975  -1.215  12.9920  0.00  0.00     0.000 HD
BRANCH 25 32
ATOM     32   O  IDS B   2      42.501  -0.252  14.9320  0.00  0.00     0.000 O
ATOM     33   S  IDS B   2      43.666  -1.315  14.4440  0.00  0.00     0.000 S
ATOM     34   O  IDS B   2      44.886  -0.538  14.2920  0.00  0.00     0.000 OA
ATOM     35   O  IDS B   2      43.821  -2.358  15.4490  0.00  0.00     0.000 OA
ATOM     36   O  IDS B   2      43.212  -1.836  13.1760  0.00  0.00     0.000 OA
ENDBRANCH 25 32
BRANCH 28 37
ATOM     37   C  IDS B   2      37.249  -0.011  17.0910  0.00  0.00     0.000 C
ATOM     38   O  IDS B   2      36.448  -0.910  17.1960  0.00  0.00     0.000 OA
ATOM     39   O  IDS B   2      36.985   1.126  17.5510  0.00  0.00     0.000 OA
ENDBRANCH 28 37
BRANCH 24 40
ATOM     40  O4  SUS B   3      41.701  -0.970  17.8230  0.00  0.00     0.000 O
BRANCH 40 44
ATOM     41  C1  SUS B   3      43.713   0.974  20.9400  0.00  0.00     0.000 C
ATOM     42  C2  SUS B   3      42.506   0.094  21.3210  0.00  0.00     0.000 C
ATOM     43  C3  SUS B   3      42.215  -0.882  20.1830  0.00  0.00     0.000 C
ATOM     44  C4  SUS B   3      42.024  -0.093  18.8960  0.00  0.00     0.000 C
ATOM     45  C5  SUS B   3      43.305   0.653  18.5840  0.00  0.00     0.000 C
ATOM     46  O5  SUS B   3      43.555   1.585  19.6550  0.00  0.00     0.000 O
BRANCH 42 49
ATOM     47   N  SUS B   3      41.825   0.846  22.3890  0.00  0.00     0.000 N
ATOM     49  HD  SUS B   3      42.090   1.660  22.5180  0.00  0.00     0.000 HD
ATOM     49   S  SUS B   3      41.854   0.084  23.7970  0.00  0.00     0.000 S
ATOM     50   O  SUS B   3      43.188  -0.173  24.1760  0.00  0.00     0.000 OA
ATOM     51   O  SUS B   3      41.261   1.241  24.6400  0.00  0.00     0.000 OA
ATOM     52   O  SUS B   3      40.965  -1.009  23.7560  0.00  0.00     0.000 OA
ENDBRANCH 42 49
BRANCH 43 53
ATOM     53   O  SUS B   3      40.976  -1.611  20.5130  0.00  0.00     0.000 O
ATOM     54   S  SUS B   3      41.083  -3.244  20.6580  0.00  0.00     0.000 S
ATOM     55   O  SUS B   3      41.816  -3.527  21.8840  0.00  0.00     0.000 OA
ATOM     56   O  SUS B   3      39.700  -3.686  20.6880  0.00  0.00     0.000 OA
ATOM     57   O  SUS B   3      41.816  -3.718  19.4810  0.00  0.00     0.000 OA
ENDBRANCH 43 53
BRANCH 45 58
ATOM     58   C  SUS B   3      43.227   1.384  17.2620  0.00  0.00     0.000 C
ATOM     59   S  SUS B   3      42.411   3.570  16.1930  0.00  0.00     0.000 S
ATOM     60   O  SUS B   3      42.761   2.726  17.4860  0.00  0.00     0.000 O
ATOM     61   O  SUS B   3      41.113   3.087  15.7640  0.00  0.00     0.000 OA
ATOM     62   O  SUS B   3      42.355   4.897  16.7470  0.00  0.00     0.000 OA
ATOM     63   O  SUS B   3      43.478   3.336  15.2860  0.00  0.00     0.000 OA
ENDBRANCH 45 58
BRANCH 41 64
ATOM     64  O4  IDS B   4      44.927   0.358  21.1250  0.00  0.00     0.000 O
BRANCH 64 68
ATOM     65  C1  IDS B   4      48.516  -0.092  21.5590  0.00  0.00     0.000 C
ATOM     66  C2  IDS B   4      47.709   0.713  22.5850  0.00  0.00     0.000 C
ATOM     67  C3  IDS B   4      46.753   1.725  21.9770  0.00  0.00     0.000 C
ATOM     68  C4  IDS B   4      46.040   1.198  20.7460  0.00  0.00     0.000 C
ATOM     69  C5  IDS B   4      47.074   0.481  19.8670  0.00  0.00     0.000 C
ATOM     70  O5  IDS B   4      47.627  -0.620  20.5920  0.00  0.00     0.000 O
ATOM     71   O  IDS B   4      47.511   2.868  21.6370  0.00  0.00     0.000 O
ATOM     73  HD  IDS B   4      47.353   2.120  22.0440  0.00  0.00     0.000 HD
BRANCH 66 73
ATOM     73   O  IDS B   4      46.864  -0.211  23.3530  0.00  0.00     0.000 O
ATOM     74   S  IDS B   4      47.127  -0.334  24.9450  0.00  0.00     0.000 S
ATOM     75   O  IDS B   4      48.518  -0.701  25.1030  0.00  0.00     0.000 OA
ATOM     76   O  IDS B   4      46.200  -1.372  25.3190  0.00  0.00     0.000 OA
ATOM     77   O  IDS B   4      46.814   0.966  25.4890  0.00  0.00     0.000 OA
ENDBRANCH 66 73
BRANCH 69 78
ATOM     78   C  IDS B   4      46.561   0.086  18.4890  0.00  0.00     0.000 C
ATOM     79   O  IDS B   4      46.748   0.854  17.5460  0.00  0.00     0.000 OA
ATOM     80   O  IDS B   4      46.066  -1.047  18.3400  0.00  0.00     0.000 OA
ENDBRANCH 69 78
BRANCH 65 81
ATOM     81  O4  SGN B   5      49.546   0.669  21.0950  0.00  0.00     0.000 O
BRANCH 81 85
ATOM     82  C1  SGN B   5      52.845   0.067  18.5660  0.00  0.00     0.000 C
ATOM     83  C2  SGN B   5      51.937   1.266  18.2550  0.00  0.00     0.000 C
ATOM     84  C3  SGN B   5      51.097   1.610  19.4930  0.00  0.00     0.000 C
ATOM     85  C4  SGN B   5      50.329   0.377  19.9350  0.00  0.00     0.000 C
ATOM     86  C5  SGN B   5      51.333  -0.732  20.2360  0.00  0.00     0.000 C
ATOM     87  O5  SGN B   5      52.075  -1.023  19.0360  0.00  0.00     0.000 O
ATOM     88   O  SGN B   5      50.220   2.674  19.1970  0.00  0.00     0.000 O
ATOM     90  HD  SGN B   5      50.962   2.743  19.6380  0.00  0.00     0.000 HD
BRANCH 83 92
ATOM     90   N  SGN B   5      52.852   2.309  17.7530  0.00  0.00     0.000 N
ATOM     92  HD  SGN B   5      53.632   2.242  18.1240  0.00  0.00     0.000 HD
ATOM     92   S  SGN B   5      52.873   2.599  16.1820  0.00  0.00     0.000 S
ATOM     93   O  SGN B   5      53.848   3.636  16.0250  0.00  0.00     0.000 OA
ATOM     94   O  SGN B   5      53.069   1.335  15.5590  0.00  0.00     0.000 OA
ATOM     95   O  SGN B   5      51.465   3.050  15.8560  0.00  0.00     0.000 OA
ENDBRANCH 83 92
BRANCH 86 96
ATOM     96   C  SGN B   5      50.704  -2.029  20.7030  0.00  0.00     0.000 C
ATOM     97   O  SGN B   5      50.041  -2.684  19.6200  0.00  0.00     0.000 O
ATOM     98   S  SGN B   5      50.410  -4.229  19.3960  0.00  0.00     0.000 S
ATOM     99   O  SGN B   5      49.454  -4.643  18.3970  0.00  0.00     0.000 OA
ATOM    100   O  SGN B   5      51.765  -4.287  18.9790  0.00  0.00     0.000 OA
ATOM    101   O  SGN B   5      50.194  -4.833  20.6700  0.00  0.00     0.000 OA
ENDBRANCH 86 96
BRANCH 82 102
ATOM    102  O4  IDS B   6      53.829   0.372  19.4580  0.00  0.00     0.000 O
BRANCH 102 106
ATOM    103  C1  IDS B   6      57.229   0.807  20.6870  0.00  0.00     0.000 C
ATOM    104  C2  IDS B   6      56.755   1.526  19.4140  0.00  0.00     0.000 C
ATOM    105  C3  IDS B   6      56.014   0.653  18.4200  0.00  0.00     0.000 C
ATOM    106  C4  IDS B   6      55.054  -0.313  19.0910  0.00  0.00     0.000 C
ATOM    107  C5  IDS B   6      55.720  -0.935  20.3210  0.00  0.00     0.000 C
ATOM    108  O5  IDS B   6      56.166   0.059  21.2450  0.00  0.00     0.000 O
ATOM    109   O  IDS B   6      56.975  -0.047  17.6460  0.00  0.00     0.000 O
ATOM    111  HD  IDS B   6      57.682  -0.051  18.1460  0.00  0.00     0.000 HD
BRANCH 104 111
ATOM    111   O  IDS B   6      55.804   2.584  19.7870  0.00  0.00     0.000 O
ATOM    112   S  IDS B   6      56.216   4.104  19.5010  0.00  0.00     0.000 S
ATOM    113   O  IDS B   6      57.454   4.293  20.2410  0.00  0.00     0.000 OA
ATOM    114   O  IDS B   6      56.336   4.287  18.0500  0.00  0.00     0.000 OA
ATOM    115   O  IDS B   6      55.073   4.771  20.0870  0.00  0.00     0.000 OA
ENDBRANCH 104 111
BRANCH 107 116
ATOM    116   C  IDS B   6      54.736  -1.874  21.0070  0.00  0.00     0.000 C
ATOM    117   O  IDS B   6      54.439  -2.878  20.4100  0.00  0.00     0.000 OA
ATOM    118   O  IDS B   6      54.267  -1.613  22.1030  0.00  0.00     0.000 OA
ENDBRANCH 107 116
BRANCH 103 119
ATOM    119  O4  SGN B   7      58.388   0.211  20.3070  0.00  0.00     0.000 O
BRANCH 119 123
ATOM    120  C1  SGN B   7      61.541  -1.599  22.3740  0.00  0.00     0.000 C
ATOM    121  C2  SGN B   7      60.535  -2.520  21.6590  0.00  0.00     0.000 C
ATOM    122  C3  SGN B   7      59.707  -1.725  20.6410  0.00  0.00     0.000 C
ATOM    123  C4  SGN B   7      59.068  -0.527  21.3230  0.00  0.00     0.000 C
ATOM    124  C5  SGN B   7      60.150   0.322  22.0100  0.00  0.00     0.000 C
ATOM    125  O5  SGN B   7      60.903  -0.465  22.9590  0.00  0.00     0.000 O
ATOM    126   O  SGN B   7      58.718  -2.589  20.0690  0.00  0.00     0.000 O
ATOM    128  HD  SGN B   7      59.428  -2.506  20.5580  0.00  0.00     0.000 HD
BRANCH 121 130
ATOM    128   N  SGN B   7      61.413  -3.568  22.1870  0.00  0.00     0.000 N
ATOM    130  HD  SGN B   7      60.750  -3.912  22.6250  0.00  0.00     0.000 HD
ATOM    130   S  SGN B   7      61.335  -5.092  21.6750  0.00  0.00     0.000 S
ATOM    131   O  SGN B   7      61.383  -5.011  20.2550  0.00  0.00     0.000 OA
ATOM    132   O  SGN B   7      62.303  -5.850  22.3820  0.00  0.00     0.000 OA
ATOM    133   O  SGN B   7      59.964  -5.527  22.2930  0.00  0.00     0.000 OA
ENDBRANCH 121 130
BRANCH 124 134
ATOM    134   C  SGN B   7      59.605   1.469  22.8100  0.00  0.00     0.000 C
ATOM    135   O  SGN B   7      58.749   0.943  23.8380  0.00  0.00     0.000 O
ATOM    136   S  SGN B   7      58.197   1.976  24.8850  0.00  0.00     0.000 S
ATOM    137   O  SGN B   7      57.293   1.244  25.7400  0.00  0.00     0.000 OA
ATOM    138   O  SGN B   7      57.533   2.992  24.1010  0.00  0.00     0.000 OA
ATOM    139   O  SGN B   7      59.409   2.425  25.5510  0.00  0.00     0.000 OA
ENDBRANCH 124 134
BRANCH 120 140
ATOM    140  O4  IDS B   8      62.613  -0.989  21.8540  0.00  0.00     0.000 O
BRANCH 140 144
ATOM    141  C1  IDS B   8      65.562   0.881  20.9810  0.00  0.00     0.000 C
ATOM    142  C2  IDS B   8      64.142   1.450  20.6990  0.00  0.00     0.000 C
ATOM    143  C3  IDS B   8      63.216   0.439  19.9980  0.00  0.00     0.000 C
ATOM    144  C4  IDS B   8      63.323  -0.957  20.6100  0.00  0.00     0.000 C
ATOM    145  C5  IDS B   8      64.798  -1.325  20.8340  0.00  0.00     0.000 C
ATOM    146  O5  IDS B   8      65.461  -0.367  21.6550  0.00  0.00     0.000 O
BRANCH 142 147
ATOM    147   O  IDS B   8      63.494   1.823  21.9840  0.00  0.00     0.000 O
ATOM    148   S  IDS B   8      63.468   3.364  22.4910  0.00  0.00     0.000 S
ATOM    149   O  IDS B   8      64.457   4.092  21.7280  0.00  0.00     0.000 OA
ATOM    150   O  IDS B   8      62.115   3.829  22.2460  0.00  0.00     0.000 OA
ATOM    151   O  IDS B   8      63.805   3.307  23.9000  0.00  0.00     0.000 OA
ENDBRANCH 142 147
BRANCH 145 152
ATOM    152   C  IDS B   8      64.966  -2.660  21.5310  0.00  0.00     0.000 C
ATOM    153   O  IDS B   8      65.591  -2.717  22.5840  0.00  0.00     0.000 OA
ATOM    154   O  IDS B   8      64.461  -3.658  21.0490  0.00  0.00     0.000 OA
ENDBRANCH 145 152
ENDBRANCH 140 144
ENDBRANCH 120 140
ENDBRANCH 119 123
ENDBRANCH 103 119
ENDBRANCH 102 106
ENDBRANCH 82 102
ENDBRANCH 81 85
ENDBRANCH 65 81
ENDBRANCH 64 68
ENDBRANCH 41 64
ENDBRANCH 40 44
ENDBRANCH 24 40
ENDBRANCH 23 27
ENDBRANCH 1 23
TORSDOF 31
ENDMDL
MODEL 34
REMARK VINA RESULT:      -6.9     38.725     45.977
ROOT
ATOM      1  C1  SGN B   1      11.752  15.489  -0.3140  0.00  0.00     0.000 C
ATOM      2  C2  SGN B   1      12.862  16.110  -1.1770  0.00  0.00     0.000 C
ATOM      3  C3  SGN B   1      14.193  16.131  -0.4180  0.00  0.00     0.000 C
ATOM      4  C4  SGN B   1      14.029  16.860   0.9120  0.00  0.00     0.000 C
ATOM      5  C5  SGN B   1      12.823  16.285   1.6510  0.00  0.00     0.000 C
ATOM      6  O5  SGN B   1      11.659  16.360   0.8050  0.00  0.00     0.000 O
ATOM      7   O  SGN B   1      15.207  16.747  -1.2030  0.00  0.00     0.000 O
ATOM      9  HD  SGN B   1      14.635  17.391  -1.1170  0.00  0.00     0.000 HD
ATOM      9   O  SGN B   1      15.202  16.694   1.6870  0.00  0.00     0.000 O
ATOM     11  HD  SGN B   1      14.630  17.339   1.7730  0.00  0.00     0.000 HD
ENDROOT
BRANCH 2 13
ATOM     11   N  SGN B   1      12.090  16.414  -2.3970  0.00  0.00     0.000 N
ATOM     13  HD  SGN B   1      12.128  15.605  -2.0900  0.00  0.00     0.000 HD
ATOM     13   S  SGN B   1      11.856  15.325  -3.5590  0.00  0.00     0.000 S
ATOM     14   O  SGN B   1      12.440  14.094  -3.1960  0.00  0.00     0.000 OA
ATOM     15   O  SGN B   1      10.485  15.364  -3.9420  0.00  0.00     0.000 OA
ATOM     16   O  SGN B   1      12.669  16.028  -4.6890  0.00  0.00     0.000 OA
ENDBRANCH 2 13
BRANCH 5 17
ATOM     17   C  SGN B   1      12.492  17.002   2.9360  0.00  0.00     0.000 C
ATOM     18   O  SGN B   1      11.146  16.705   3.3590  0.00  0.00     0.000 O
ATOM     19   S  SGN B   1      10.271  17.954   3.8410  0.00  0.00     0.000 S
ATOM     20   O  SGN B   1       9.079  17.375   4.4220  0.00  0.00     0.000 OA
ATOM     21   O  SGN B   1      11.116  18.625   4.8020  0.00  0.00     0.000 OA
ATOM     22   O  SGN B   1      10.018  18.723   2.6430  0.00  0.00     0.000 OA
ENDBRANCH 5 17
BRANCH 1 23
ATOM     23  O4  IDS B   2      11.187  14.280  -0.0350  0.00  0.00     0.000 O
BRANCH 23 27
ATOM     24  C1  IDS B   2       8.588  11.095   0.5450  0.00  0.00     0.000 C
ATOM     25  C2  IDS B   2       9.498  10.996  -0.6990  0.00  0.00     0.000 C
ATOM     26  C3  IDS B   2      10.602  12.049  -0.6540  0.00  0.00     0.000 C
ATOM     27  C4  IDS B   2      10.080  13.469  -0.4810  0.00  0.00     0.000 C
ATOM     28  C5  IDS B   2       8.865  13.471   0.4690  0.00  0.00     0.000 C
ATOM     29  O5  IDS B   2       8.848  12.302   1.2740  0.00  0.00     0.000 O
ATOM     30   O  IDS B   2      11.338  12.008  -1.8710  0.00  0.00     0.000 O
ATOM     32  HD  IDS B   2      10.939  12.411  -2.5260  0.00  0.00     0.000 HD
BRANCH 25 32
ATOM     32   O  IDS B   2      10.150   9.668  -0.8140  0.00  0.00     0.000 O
ATOM     33   S  IDS B   2       9.874   8.670  -2.0990  0.00  0.00     0.000 S
ATOM     34   O  IDS B   2      10.489   7.396  -1.7610  0.00  0.00     0.000 OA
ATOM     35   O  IDS B   2       8.439   8.530  -2.3040  0.00  0.00     0.000 OA
ATOM     36   O  IDS B   2      10.534   9.291  -3.2240  0.00  0.00     0.000 OA
ENDBRANCH 25 32
BRANCH 28 37
ATOM     37   C  IDS B   2       8.670  14.696   1.3870  0.00  0.00     0.000 C
ATOM     38   O  IDS B   2       8.837  14.435   2.5550  0.00  0.00     0.000 OA
ATOM     39   O  IDS B   2       8.433  15.876   1.0310  0.00  0.00     0.000 OA
ENDBRANCH 28 37
BRANCH 24 40
ATOM     40  O4  SUS B   3       7.511  10.291   0.6570  0.00  0.00     0.000 O
BRANCH 40 44
ATOM     41  C1  SUS B   3       5.772   8.537   4.0400  0.00  0.00     0.000 C
ATOM     42  C2  SUS B   3       5.657  10.068   3.9020  0.00  0.00     0.000 C
ATOM     43  C3  SUS B   3       5.895  10.461   2.4460  0.00  0.00     0.000 C
ATOM     44  C4  SUS B   3       7.235   9.899   1.9970  0.00  0.00     0.000 C
ATOM     45  C5  SUS B   3       7.189   8.388   2.0930  0.00  0.00     0.000 C
ATOM     46  O5  SUS B   3       6.987   8.031   3.4760  0.00  0.00     0.000 O
BRANCH 42 49
ATOM     47   N  SUS B   3       5.882  10.723   5.2020  0.00  0.00     0.000 N
ATOM     49  HD  SUS B   3       6.292  10.256   5.8050  0.00  0.00     0.000 HD
ATOM     49   S  SUS B   3       4.532  11.294   5.8480  0.00  0.00     0.000 S
ATOM     50   O  SUS B   3       3.594  10.253   5.9990  0.00  0.00     0.000 OA
ATOM     51   O  SUS B   3       5.141  11.684   7.2200  0.00  0.00     0.000 OA
ATOM     52   O  SUS B   3       4.125  12.442   5.1400  0.00  0.00     0.000 OA
ENDBRANCH 42 49
BRANCH 43 53
ATOM     53   O  SUS B   3       5.918  11.935   2.3700  0.00  0.00     0.000 O
ATOM     54   S  SUS B   3       4.822  12.651   1.3760  0.00  0.00     0.000 S
ATOM     55   O  SUS B   3       3.511  12.502   1.9920  0.00  0.00     0.000 OA
ATOM     56   O  SUS B   3       5.274  14.028   1.2890  0.00  0.00     0.000 OA
ATOM     57   O  SUS B   3       4.893  11.938   0.0970  0.00  0.00     0.000 OA
ENDBRANCH 43 53
BRANCH 45 58
ATOM     58   C  SUS B   3       8.456   7.749   1.5680  0.00  0.00     0.000 C
ATOM     59   S  SUS B   3      10.939   7.404   2.1190  0.00  0.00     0.000 S
ATOM     60   O  SUS B   3       9.482   7.829   2.5720  0.00  0.00     0.000 O
ATOM     61   O  SUS B   3      11.448   8.536   1.3680  0.00  0.00     0.000 OA
ATOM     62   O  SUS B   3      11.582   7.251   3.3970  0.00  0.00     0.000 OA
ATOM     63   O  SUS B   3      10.771   6.206   1.3750  0.00  0.00     0.000 OA
ENDBRANCH 45 58
BRANCH 41 64
ATOM     64  O4  IDS B   4       4.644   7.859   3.6470  0.00  0.00     0.000 O
BRANCH 64 68
ATOM     65  C1  IDS B   4       1.909   5.452   3.5960  0.00  0.00     0.000 C
ATOM     66  C2  IDS B   4       1.936   6.569   4.6470  0.00  0.00     0.000 C
ATOM     67  C3  IDS B   4       3.279   6.754   5.3330  0.00  0.00     0.000 C
ATOM     68  C4  IDS B   4       4.451   6.628   4.3780  0.00  0.00     0.000 C
ATOM     69  C5  IDS B   4       4.202   5.413   3.4740  0.00  0.00     0.000 C
ATOM     70  O5  IDS B   4       3.007   5.626   2.7190  0.00  0.00     0.000 O
ATOM     71   O  IDS B   4       3.375   5.767   6.3400  0.00  0.00     0.000 O
ATOM     73  HD  IDS B   4       2.965   6.267   5.7640  0.00  0.00     0.000 HD
BRANCH 66 73
ATOM     73   O  IDS B   4       1.656   7.850   3.9840  0.00  0.00     0.000 O
ATOM     74   S  IDS B   4       0.307   8.640   4.4010  0.00  0.00     0.000 S
ATOM     75   O  IDS B   4      -0.791   7.725   4.1740  0.00  0.00     0.000 OA
ATOM     76   O  IDS B   4       0.331   9.763   3.4980  0.00  0.00     0.000 OA
ATOM     77   O  IDS B   4       0.480   8.992   5.7900  0.00  0.00     0.000 OA
ENDBRANCH 66 73
BRANCH 69 78
ATOM     78   C  IDS B   4       5.390   5.021   2.6060  0.00  0.00     0.000 C
ATOM     79   O  IDS B   4       6.511   5.000   3.1130  0.00  0.00     0.000 OA
ATOM     80   O  IDS B   4       5.176   4.631   1.4440  0.00  0.00     0.000 OA
ENDBRANCH 69 78
BRANCH 65 81
ATOM     81  O4  SGN B   5       1.807   4.245   4.2200  0.00  0.00     0.000 O
BRANCH 81 85
ATOM     82  C1  SGN B   5       0.213   0.376   3.8700  0.00  0.00     0.000 C
ATOM     83  C2  SGN B   5       1.316   0.769   2.8750  0.00  0.00     0.000 C
ATOM     84  C3  SGN B   5       2.088   1.980   3.4160  0.00  0.00     0.000 C
ATOM     85  C4  SGN B   5       1.112   3.108   3.7030  0.00  0.00     0.000 C
ATOM     86  C5  SGN B   5       0.085   2.608   4.7160  0.00  0.00     0.000 C
ATOM     87  O5  SGN B   5      -0.618   1.487   4.1460  0.00  0.00     0.000 O
ATOM     88   O  SGN B   5       3.065   2.383   2.4820  0.00  0.00     0.000 O
ATOM     90  HD  SGN B   5       3.216   1.922   3.2000  0.00  0.00     0.000 HD
BRANCH 83 92
ATOM     90   N  SGN B   5       1.021  -0.622   2.4800  0.00  0.00     0.000 N
ATOM     92  HD  SGN B   5       0.167  -0.760   2.4410  0.00  0.00     0.000 HD
ATOM     92   S  SGN B   5       1.865  -1.258   1.2800  0.00  0.00     0.000 S
ATOM     93   O  SGN B   5       1.343  -2.585   1.1440  0.00  0.00     0.000 OA
ATOM     94   O  SGN B   5       1.757  -0.335   0.2020  0.00  0.00     0.000 OA
ATOM     95   O  SGN B   5       3.299  -1.227   1.7600  0.00  0.00     0.000 OA
ENDBRANCH 83 92
BRANCH 86 96
ATOM     96   C  SGN B   5      -0.953   3.639   5.1090  0.00  0.00     0.000 C
ATOM     97   O  SGN B   5      -2.123   3.507   4.2980  0.00  0.00     0.000 O
ATOM     98   S  SGN B   5      -3.519   3.419   5.0830  0.00  0.00     0.000 S
ATOM     99   O  SGN B   5      -4.488   3.500   4.0170  0.00  0.00     0.000 OA
ATOM    100   O  SGN B   5      -3.528   2.195   5.7990  0.00  0.00     0.000 OA
ATOM    101   O  SGN B   5      -3.519   4.563   5.9360  0.00  0.00     0.000 OA
ENDBRANCH 86 96
BRANCH 82 102
ATOM    102  O4  IDS B   6       0.712  -0.143   5.0270  0.00  0.00     0.000 O
BRANCH 102 106
ATOM    103  C1  IDS B   6       0.879  -2.785   7.5270  0.00  0.00     0.000 C
ATOM    104  C2  IDS B   6       0.627  -3.118   6.0480  0.00  0.00     0.000 C
ATOM    105  C3  IDS B   6      -0.429  -2.267   5.3690  0.00  0.00     0.000 C
ATOM    106  C4  IDS B   6      -0.347  -0.804   5.7650  0.00  0.00     0.000 C
ATOM    107  C5  IDS B   6      -0.113  -0.689   7.2740  0.00  0.00     0.000 C
ATOM    108  O5  IDS B   6       1.060  -1.391   7.6870  0.00  0.00     0.000 O
ATOM    109   O  IDS B   6      -1.702  -2.805   5.6890  0.00  0.00     0.000 O
ATOM    111  HD  IDS B   6      -1.564  -3.244   6.4220  0.00  0.00     0.000 HD
BRANCH 104 111
ATOM    111   O  IDS B   6       1.863  -2.883   5.2860  0.00  0.00     0.000 O
ATOM    112   S  IDS B   6       2.579  -4.143   4.6060  0.00  0.00     0.000 S
ATOM    113   O  IDS B   6       2.864  -5.044   5.7120  0.00  0.00     0.000 OA
ATOM    114   O  IDS B   6       1.680  -4.692   3.5840  0.00  0.00     0.000 OA
ATOM    115   O  IDS B   6       3.750  -3.484   4.0690  0.00  0.00     0.000 OA
ENDBRANCH 104 111
BRANCH 107 116
ATOM    116   C  IDS B   6       0.004   0.782   7.6560  0.00  0.00     0.000 C
ATOM    117   O  IDS B   6       1.118   1.230   7.7500  0.00  0.00     0.000 OA
ATOM    118   O  IDS B   6      -0.987   1.465   7.8640  0.00  0.00     0.000 OA
ENDBRANCH 107 116
BRANCH 103 119
ATOM    119  O4  SGN B   7      -0.111  -3.448   8.1780  0.00  0.00     0.000 O
BRANCH 119 123
ATOM    120  C1  SGN B   7      -0.644  -5.123  11.9730  0.00  0.00     0.000 C
ATOM    121  C2  SGN B   7      -0.863  -3.606  11.8260  0.00  0.00     0.000 C
ATOM    122  C3  SGN B   7      -1.028  -3.227  10.3490  0.00  0.00     0.000 C
ATOM    123  C4  SGN B   7       0.148  -3.759   9.5480  0.00  0.00     0.000 C
ATOM    124  C5  SGN B   7       0.286  -5.275   9.7660  0.00  0.00     0.000 C
ATOM    125  O5  SGN B   7       0.440  -5.585  11.1690  0.00  0.00     0.000 O
ATOM    126   O  SGN B   7      -1.130  -1.802  10.2420  0.00  0.00     0.000 O
ATOM    128  HD  SGN B   7      -1.118  -2.503  10.7510  0.00  0.00     0.000 HD
BRANCH 121 130
ATOM    128   N  SGN B   7      -0.749  -3.314  13.2570  0.00  0.00     0.000 N
ATOM    130  HD  SGN B   7      -0.597  -2.479  13.0820  0.00  0.00     0.000 HD
ATOM    130   S  SGN B   7      -1.890  -2.513  14.0640  0.00  0.00     0.000 S
ATOM    131   O  SGN B   7      -3.108  -3.175  13.7420  0.00  0.00     0.000 OA
ATOM    132   O  SGN B   7      -1.477  -2.390  15.4160  0.00  0.00     0.000 OA
ATOM    133   O  SGN B   7      -1.707  -1.079  13.4620  0.00  0.00     0.000 OA
ENDBRANCH 121 130
BRANCH 124 134
ATOM    134   C  SGN B   7       1.492  -5.876   9.1060  0.00  0.00     0.000 C
ATOM    135   O  SGN B   7       2.147  -6.741  10.0500  0.00  0.00     0.000 O
ATOM    136   S  SGN B   7       3.351  -7.589   9.5040  0.00  0.00     0.000 S
ATOM    137   O  SGN B   7       3.905  -8.287  10.6400  0.00  0.00     0.000 OA
ATOM    138   O  SGN B   7       4.265  -6.625   8.9330  0.00  0.00     0.000 OA
ATOM    139   O  SGN B   7       2.706  -8.457   8.5320  0.00  0.00     0.000 OA
ENDBRANCH 124 134
BRANCH 120 140
ATOM    140  O4  IDS B   8      -1.517  -6.108  11.7320  0.00  0.00     0.000 O
BRANCH 140 144
ATOM    141  C1  IDS B   8      -2.099  -9.661  11.7550  0.00  0.00     0.000 C
ATOM    142  C2  IDS B   8      -2.864  -8.731  10.7700  0.00  0.00     0.000 C
ATOM    143  C3  IDS B   8      -3.477  -7.498  11.4570  0.00  0.00     0.000 C
ATOM    144  C4  IDS B   8      -2.509  -6.853  12.4480  0.00  0.00     0.000 C
ATOM    145  C5  IDS B   8      -1.838  -7.933  13.3110  0.00  0.00     0.000 C
ATOM    146  O5  IDS B   8      -1.164  -8.902  12.5120  0.00  0.00     0.000 O
BRANCH 142 147
ATOM    147   O  IDS B   8      -1.927  -8.234   9.7290  0.00  0.00     0.000 O
ATOM    148   S  IDS B   8      -1.957  -8.832   8.2210  0.00  0.00     0.000 S
ATOM    149   O  IDS B   8      -2.696 -10.074   8.2580  0.00  0.00     0.000 OA
ATOM    150   O  IDS B   8      -2.607  -7.816   7.4140  0.00  0.00     0.000 OA
ATOM    151   O  IDS B   8      -0.567  -9.040   7.8640  0.00  0.00     0.000 OA
ENDBRANCH 142 147
BRANCH 145 152
ATOM    152   C  IDS B   8      -0.792  -7.364  14.2480  0.00  0.00     0.000 C
ATOM    153   O  IDS B   8       0.384  -7.682  14.1060  0.00  0.00     0.000 OA
ATOM    154   O  IDS B   8      -1.126  -6.580  15.1180  0.00  0.00     0.000 OA
ENDBRANCH 145 152
ENDBRANCH 140 144
ENDBRANCH 120 140
ENDBRANCH 119 123
ENDBRANCH 103 119
ENDBRANCH 102 106
ENDBRANCH 82 102
ENDBRANCH 81 85
ENDBRANCH 65 81
ENDBRANCH 64 68
ENDBRANCH 41 64
ENDBRANCH 40 44
ENDBRANCH 24 40
ENDBRANCH 23 27
ENDBRANCH 1 23
TORSDOF 31
ENDMDL
MODEL 35
REMARK VINA RESULT:      -6.8      9.915     20.871
ROOT
ATOM      1  C1  SGN B   1      62.443   0.863  20.2850  0.00  0.00     0.000 C
ATOM      2  C2  SGN B   1      63.840   0.223  20.2960  0.00  0.00     0.000 C
ATOM      3  C3  SGN B   1      64.523   0.433  21.6510  0.00  0.00     0.000 C
ATOM      4  C4  SGN B   1      64.574   1.919  21.9900  0.00  0.00     0.000 C
ATOM      5  C5  SGN B   1      63.179   2.518  21.8210  0.00  0.00     0.000 C
ATOM      6  O5  SGN B   1      62.697   2.246  20.4910  0.00  0.00     0.000 O
ATOM      7   O  SGN B   1      65.833  -0.122  21.6430  0.00  0.00     0.000 O
ATOM      9  HD  SGN B   1      65.891   0.475  21.0180  0.00  0.00     0.000 HD
ATOM      9   O  SGN B   1      65.017   2.083  23.3250  0.00  0.00     0.000 O
ATOM     11  HD  SGN B   1      65.074   2.680  22.6990  0.00  0.00     0.000 HD
ENDROOT
BRANCH 2 13
ATOM     11   N  SGN B   1      63.848  -0.311  18.9200  0.00  0.00     0.000 N
ATOM     13  HD  SGN B   1      63.243  -0.563  19.4870  0.00  0.00     0.000 HD
ATOM     13   S  SGN B   1      63.266  -1.767  18.5600  0.00  0.00     0.000 S
ATOM     14   O  SGN B   1      62.734  -2.377  19.7150  0.00  0.00     0.000 OA
ATOM     15   O  SGN B   1      62.457  -1.653  17.3930  0.00  0.00     0.000 OA
ATOM     16   O  SGN B   1      64.605  -2.441  18.1280  0.00  0.00     0.000 OA
ENDBRANCH 2 13
BRANCH 5 17
ATOM     17   C  SGN B   1      63.123   4.012  22.0230  0.00  0.00     0.000 C
ATOM     18   O  SGN B   1      64.367   4.630  21.6370  0.00  0.00     0.000 O
ATOM     19   S  SGN B   1      64.950   5.724  22.6480  0.00  0.00     0.000 S
ATOM     20   O  SGN B   1      66.045   6.348  21.9360  0.00  0.00     0.000 OA
ATOM     21   O  SGN B   1      63.836   6.611  22.8880  0.00  0.00     0.000 OA
ATOM     22   O  SGN B   1      65.368   4.975  23.8130  0.00  0.00     0.000 OA
ENDBRANCH 5 17
BRANCH 1 23
ATOM     23  O4  IDS B   2      61.144   0.561  20.5680  0.00  0.00     0.000 O
BRANCH 23 27
ATOM     24  C1  IDS B   2      57.161   0.637  21.7350  0.00  0.00     0.000 C
ATOM     25  C2  IDS B   2      57.812   2.017  21.4950  0.00  0.00     0.000 C
ATOM     26  C3  IDS B   2      59.159   1.870  20.7930  0.00  0.00     0.000 C
ATOM     27  C4  IDS B   2      60.122   0.939  21.5160  0.00  0.00     0.000 C
ATOM     28  C5  IDS B   2      59.350  -0.247  22.1270  0.00  0.00     0.000 C
ATOM     29  O5  IDS B   2      58.095  -0.421  21.4850  0.00  0.00     0.000 O
ATOM     30   O  IDS B   2      59.781   3.146  20.7020  0.00  0.00     0.000 O
ATOM     32  HD  IDS B   2      60.159   3.395  21.4400  0.00  0.00     0.000 HD
BRANCH 25 32
ATOM     32   O  IDS B   2      56.963   2.900  20.6570  0.00  0.00     0.000 O
ATOM     33   S  IDS B   2      56.408   4.353  21.2070  0.00  0.00     0.000 S
ATOM     34   O  IDS B   2      55.446   4.818  20.2210  0.00  0.00     0.000 OA
ATOM     35   O  IDS B   2      55.787   4.172  22.5120  0.00  0.00     0.000 OA
ATOM     36   O  IDS B   2      57.565   5.217  21.2620  0.00  0.00     0.000 OA
ENDBRANCH 25 32
BRANCH 28 37
ATOM     37   C  IDS B   2      60.059  -1.616  22.1840  0.00  0.00     0.000 C
ATOM     38   O  IDS B   2      59.747  -2.343  21.2700  0.00  0.00     0.000 OA
ATOM     39   O  IDS B   2      60.926  -1.983  23.0140  0.00  0.00     0.000 OA
ENDBRANCH 28 37
BRANCH 24 40
ATOM     40  O4  SUS B   3      55.993   0.552  22.4060  0.00  0.00     0.000 O
BRANCH 40 44
ATOM     41  C1  SUS B   3      52.856  -2.192  21.9810  0.00  0.00     0.000 C
ATOM     42  C2  SUS B   3      54.014  -2.585  22.9200  0.00  0.00     0.000 C
ATOM     43  C3  SUS B   3      54.783  -1.329  23.3230  0.00  0.00     0.000 C
ATOM     44  C4  SUS B   3      55.228  -0.599  22.0650  0.00  0.00     0.000 C
ATOM     45  C5  SUS B   3      54.001  -0.187  21.2780  0.00  0.00     0.000 C
ATOM     46  O5  SUS B   3      53.297  -1.383  20.8850  0.00  0.00     0.000 O
BRANCH 42 49
ATOM     47   N  SUS B   3      54.762  -3.826  23.1890  0.00  0.00     0.000 N
ATOM     49  HD  SUS B   3      55.135  -4.208  22.5070  0.00  0.00     0.000 HD
ATOM     49   S  SUS B   3      53.881  -4.923  23.9550  0.00  0.00     0.000 S
ATOM     50   O  SUS B   3      52.725  -5.220  23.2060  0.00  0.00     0.000 OA
ATOM     51   O  SUS B   3      54.909  -6.079  23.8550  0.00  0.00     0.000 OA
ATOM     52   O  SUS B   3      53.706  -4.527  25.2960  0.00  0.00     0.000 OA
ENDBRANCH 42 49
BRANCH 43 53
ATOM     53   O  SUS B   3      55.964  -1.749  24.1030  0.00  0.00     0.000 O
ATOM     54   S  SUS B   3      56.071  -1.208  25.6510  0.00  0.00     0.000 S
ATOM     55   O  SUS B   3      55.056  -1.906  26.4290  0.00  0.00     0.000 OA
ATOM     56   O  SUS B   3      57.432  -1.528  26.0430  0.00  0.00     0.000 OA
ATOM     57   O  SUS B   3      55.806   0.233  25.6060  0.00  0.00     0.000 OA
ENDBRANCH 43 53
BRANCH 45 58
ATOM     58   C  SUS B   3      54.360   0.634  20.0590  0.00  0.00     0.000 C
ATOM     59   S  SUS B   3      54.775   0.448  17.5330  0.00  0.00     0.000 S
ATOM     60   O  SUS B   3      54.233  -0.181  18.8810  0.00  0.00     0.000 O
ATOM     61   O  SUS B   3      56.217   0.301  17.5990  0.00  0.00     0.000 OA
ATOM     62   O  SUS B   3      54.171  -0.429  16.5660  0.00  0.00     0.000 OA
ATOM     63   O  SUS B   3      54.300   1.786  17.5200  0.00  0.00     0.000 OA
ENDBRANCH 45 58
BRANCH 41 64
ATOM     64  O4  IDS B   4      51.755  -1.698  22.6370  0.00  0.00     0.000 O
BRANCH 64 68
ATOM     65  C1  IDS B   4      48.193  -1.704  23.4030  0.00  0.00     0.000 C
ATOM     66  C2  IDS B   4      48.897  -3.004  22.9930  0.00  0.00     0.000 C
ATOM     67  C3  IDS B   4      49.802  -2.871  21.7790  0.00  0.00     0.000 C
ATOM     68  C4  IDS B   4      50.600  -1.581  21.7770  0.00  0.00     0.000 C
ATOM     69  C5  IDS B   4      49.658  -0.436  22.1710  0.00  0.00     0.000 C
ATOM     70  O5  IDS B   4      49.158  -0.671  23.4890  0.00  0.00     0.000 O
ATOM     71   O  IDS B   4      48.977  -2.924  20.6330  0.00  0.00     0.000 O
ATOM     73  HD  IDS B   4      49.172  -3.039  21.4690  0.00  0.00     0.000 HD
BRANCH 66 73
ATOM     73   O  IDS B   4      49.775  -3.434  24.0900  0.00  0.00     0.000 O
ATOM     74   S  IDS B   4      49.360  -4.760  24.9180  0.00  0.00     0.000 S
ATOM     75   O  IDS B   4      48.025  -4.524  25.4270  0.00  0.00     0.000 OA
ATOM     76   O  IDS B   4      50.377  -4.803  25.9370  0.00  0.00     0.000 OA
ATOM     77   O  IDS B   4      49.425  -5.844  23.9670  0.00  0.00     0.000 OA
ENDBRANCH 66 73
BRANCH 69 78
ATOM     78   C  IDS B   4      50.254   0.955  22.0030  0.00  0.00     0.000 C
ATOM     79   O  IDS B   4      50.119   1.770  22.9150  0.00  0.00     0.000 OA
ATOM     80   O  IDS B   4      50.948   1.188  20.9960  0.00  0.00     0.000 OA
ENDBRANCH 69 78
BRANCH 65 81
ATOM     81  O4  SGN B   5      47.131  -1.485  22.5800  0.00  0.00     0.000 O
BRANCH 81 85
ATOM     82  C1  SGN B   5      43.402   0.427  22.2980  0.00  0.00     0.000 C
ATOM     83  C2  SGN B   5      44.639   1.327  22.4310  0.00  0.00     0.000 C
ATOM     84  C3  SGN B   5      45.897   0.530  22.0580  0.00  0.00     0.000 C
ATOM     85  C4  SGN B   5      45.972  -0.719  22.9170  0.00  0.00     0.000 C
ATOM     86  C5  SGN B   5      44.706  -1.540  22.6820  0.00  0.00     0.000 C
ATOM     87  O5  SGN B   5      43.565  -0.749  23.0680  0.00  0.00     0.000 O
ATOM     88   O  SGN B   5      47.043   1.334  22.2330  0.00  0.00     0.000 O
ATOM     90  HD  SGN B   5      46.664   1.158  21.4740  0.00  0.00     0.000 HD
BRANCH 83 92
ATOM     90   N  SGN B   5      43.556   2.322  22.5630  0.00  0.00     0.000 N
ATOM     92  HD  SGN B   5      43.057   2.148  23.2480  0.00  0.00     0.000 HD
ATOM     92   S  SGN B   5      43.926   3.864  22.3680  0.00  0.00     0.000 S
ATOM     93   O  SGN B   5      42.685   4.553  22.5620  0.00  0.00     0.000 OA
ATOM     94   O  SGN B   5      45.022   4.112  23.2410  0.00  0.00     0.000 OA
ATOM     95   O  SGN B   5      44.446   3.959  20.9510  0.00  0.00     0.000 OA
ENDBRANCH 83 92
BRANCH 86 96
ATOM     96   C  SGN B   5      44.648  -2.831  23.4720  0.00  0.00     0.000 C
ATOM     97   O  SGN B   5      44.178  -3.902  22.6490  0.00  0.00     0.000 O
ATOM     98   S  SGN B   5      45.071  -5.234  22.6460  0.00  0.00     0.000 S
ATOM     99   O  SGN B   5      44.249  -6.166  21.9110  0.00  0.00     0.000 OA
ATOM    100   O  SGN B   5      46.307  -4.917  22.0250  0.00  0.00     0.000 OA
ATOM    101   O  SGN B   5      45.212  -5.570  24.0250  0.00  0.00     0.000 OA
ENDBRANCH 86 96
BRANCH 82 102
ATOM    102  O4  IDS B   6      43.121   0.110  21.0020  0.00  0.00     0.000 O
BRANCH 102 106
ATOM    103  C1  IDS B   6      41.154   0.107  17.9380  0.00  0.00     0.000 C
ATOM    104  C2  IDS B   6      41.426   1.416  18.6960  0.00  0.00     0.000 C
ATOM    105  C3  IDS B   6      41.189   1.353  20.1920  0.00  0.00     0.000 C
ATOM    106  C4  IDS B   6      41.684   0.057  20.8100  0.00  0.00     0.000 C
ATOM    107  C5  IDS B   6      41.298  -1.124  19.9150  0.00  0.00     0.000 C
ATOM    108  O5  IDS B   6      41.800  -0.972  18.5860  0.00  0.00     0.000 O
ATOM    109   O  IDS B   6      39.801   1.525  20.4270  0.00  0.00     0.000 O
ATOM    111  HD  IDS B   6      39.433   1.290  19.6800  0.00  0.00     0.000 HD
BRANCH 104 111
ATOM    111   O  IDS B   6      42.844   1.773  18.5410  0.00  0.00     0.000 O
ATOM    112   S  IDS B   6      43.206   3.040  17.6320  0.00  0.00     0.000 S
ATOM    113   O  IDS B   6      42.649   2.724  16.3260  0.00  0.00     0.000 OA
ATOM    114   O  IDS B   6      42.646   4.240  18.2630  0.00  0.00     0.000 OA
ATOM    115   O  IDS B   6      44.650   2.963  17.6890  0.00  0.00     0.000 OA
ENDBRANCH 104 111
BRANCH 107 116
ATOM    116   C  IDS B   6      41.830  -2.414  20.5250  0.00  0.00     0.000 C
ATOM    117   O  IDS B   6      41.343  -2.760  21.5710  0.00  0.00     0.000 OA
ATOM    118   O  IDS B   6      42.714  -3.057  19.9800  0.00  0.00     0.000 OA
ENDBRANCH 107 116
BRANCH 103 119
ATOM    119  O4  SGN B   7      39.809   0.116  17.7520  0.00  0.00     0.000 O
BRANCH 119 123
ATOM    120  C1  SGN B   7      38.119  -1.329  14.2100  0.00  0.00     0.000 C
ATOM    121  C2  SGN B   7      37.261  -1.392  15.4870  0.00  0.00     0.000 C
ATOM    122  C3  SGN B   7      37.845  -0.480  16.5740  0.00  0.00     0.000 C
ATOM    123  C4  SGN B   7      39.309  -0.822  16.7980  0.00  0.00     0.000 C
ATOM    124  C5  SGN B   7      40.075  -0.737  15.4680  0.00  0.00     0.000 C
ATOM    125  O5  SGN B   7      39.492  -1.612  14.4760  0.00  0.00     0.000 O
ATOM    126   O  SGN B   7      37.082  -0.638  17.7750  0.00  0.00     0.000 O
ATOM    128  HD  SGN B   7      37.161  -0.797  16.9270  0.00  0.00     0.000 HD
BRANCH 121 130
ATOM    128   N  SGN B   7      36.287  -2.441  15.1770  0.00  0.00     0.000 N
ATOM    130  HD  SGN B   7      35.962  -2.387  15.9780  0.00  0.00     0.000 HD
ATOM    130   S  SGN B   7      34.722  -2.125  14.9620  0.00  0.00     0.000 S
ATOM    131   O  SGN B   7      34.684  -1.055  14.0240  0.00  0.00     0.000 OA
ATOM    132   O  SGN B   7      34.054  -3.345  14.6850  0.00  0.00     0.000 OA
ATOM    133   O  SGN B   7      34.304  -1.768  16.4280  0.00  0.00     0.000 OA
ENDBRANCH 121 130
BRANCH 124 134
ATOM    134   C  SGN B   7      41.509  -1.170  15.5640  0.00  0.00     0.000 C
ATOM    135   O  SGN B   7      42.291  -0.366  14.6650  0.00  0.00     0.000 O
ATOM    136   S  SGN B   7      43.849  -0.559  14.7290  0.00  0.00     0.000 S
ATOM    137   O  SGN B   7      44.403   0.263  13.6800  0.00  0.00     0.000 OA
ATOM    138   O  SGN B   7      44.064  -1.972  14.5130  0.00  0.00     0.000 OA
ATOM    139   O  SGN B   7      44.167  -0.100  16.0720  0.00  0.00     0.000 OA
ENDBRANCH 124 134
BRANCH 120 140
ATOM    140  O4  IDS B   8      38.277  -0.296  13.3740  0.00  0.00     0.000 O
BRANCH 140 144
ATOM    141  C1  IDS B   8      39.289   2.572  11.4480  0.00  0.00     0.000 C
ATOM    142  C2  IDS B   8      37.955   2.576  12.2480  0.00  0.00     0.000 C
ATOM    143  C3  IDS B   8      37.103   1.316  12.0060  0.00  0.00     0.000 C
ATOM    144  C4  IDS B   8      37.947   0.042  12.0220  0.00  0.00     0.000 C
ATOM    145  C5  IDS B   8      39.229   0.246  11.2000  0.00  0.00     0.000 C
ATOM    146  O5  IDS B   8      39.989   1.355  11.6760  0.00  0.00     0.000 O
BRANCH 142 147
ATOM    147   O  IDS B   8      38.249   2.635  13.7030  0.00  0.00     0.000 O
ATOM    148   S  IDS B   8      37.346   3.538  14.7030  0.00  0.00     0.000 S
ATOM    149   O  IDS B   8      36.588   4.464  13.8920  0.00  0.00     0.000 OA
ATOM    150   O  IDS B   8      36.503   2.598  15.4180  0.00  0.00     0.000 OA
ATOM    151   O  IDS B   8      38.294   4.221  15.5630  0.00  0.00     0.000 OA
ENDBRANCH 142 147
BRANCH 145 152
ATOM    152   C  IDS B   8      40.156  -0.951  11.2600  0.00  0.00     0.000 C
ATOM    153   O  IDS B   8      41.330  -0.792  11.5750  0.00  0.00     0.000 OA
ATOM    154   O  IDS B   8      39.721  -2.062  11.0140  0.00  0.00     0.000 OA
ENDBRANCH 145 152
ENDBRANCH 140 144
ENDBRANCH 120 140
ENDBRANCH 119 123
ENDBRANCH 103 119
ENDBRANCH 102 106
ENDBRANCH 82 102
ENDBRANCH 81 85
ENDBRANCH 65 81
ENDBRANCH 64 68
ENDBRANCH 41 64
ENDBRANCH 40 44
ENDBRANCH 24 40
ENDBRANCH 23 27
ENDBRANCH 1 23
TORSDOF 31
ENDMDL
MODEL 36
REMARK VINA RESULT:      -6.8     14.966     24.360
ROOT
ATOM      1  C1  SGN B   1      62.886   0.742  20.9190  0.00  0.00     0.000 C
ATOM      2  C2  SGN B   1      64.169   0.057  20.4210  0.00  0.00     0.000 C
ATOM      3  C3  SGN B   1      65.244   0.060  21.5130  0.00  0.00     0.000 C
ATOM      4  C4  SGN B   1      65.506   1.485  21.9900  0.00  0.00     0.000 C
ATOM      5  C5  SGN B   1      64.175   2.149  22.3330  0.00  0.00     0.000 C
ATOM      6  O5  SGN B   1      63.293   2.075  21.1960  0.00  0.00     0.000 O
ATOM      7   O  SGN B   1      66.445  -0.535  21.0340  0.00  0.00     0.000 O
ATOM      9  HD  SGN B   1      66.354   0.138  20.4960  0.00  0.00     0.000 HD
ATOM      9   O  SGN B   1      66.344   1.452  23.1310  0.00  0.00     0.000 O
ATOM     11  HD  SGN B   1      66.254   2.124  22.5930  0.00  0.00     0.000 HD
ENDROOT
BRANCH 2 13
ATOM     11   N  SGN B   1      63.760  -0.308  19.0520  0.00  0.00     0.000 N
ATOM     13  HD  SGN B   1      63.299  -0.576  19.7350  0.00  0.00     0.000 HD
ATOM     13   S  SGN B   1      62.948  -1.659  18.7290  0.00  0.00     0.000 S
ATOM     14   O  SGN B   1      62.671  -2.356  19.9240  0.00  0.00     0.000 OA
ATOM     15   O  SGN B   1      61.881  -1.343  17.8400  0.00  0.00     0.000 OA
ATOM     16   O  SGN B   1      64.046  -2.384  17.8910  0.00  0.00     0.000 OA
ENDBRANCH 2 13
BRANCH 5 17
ATOM     17   C  SGN B   1      64.295   3.603  22.7160  0.00  0.00     0.000 C
ATOM     18   O  SGN B   1      63.642   4.446  21.7460  0.00  0.00     0.000 O
ATOM     19   S  SGN B   1      64.456   5.742  21.2820  0.00  0.00     0.000 S
ATOM     20   O  SGN B   1      63.512   6.523  20.5110  0.00  0.00     0.000 OA
ATOM     21   O  SGN B   1      64.852   6.372  22.5200  0.00  0.00     0.000 OA
ATOM     22   O  SGN B   1      65.562   5.234  20.5000  0.00  0.00     0.000 OA
ENDBRANCH 5 17
BRANCH 1 23
ATOM     23  O4  IDS B   2      61.715   0.451  21.5550  0.00  0.00     0.000 O
BRANCH 23 27
ATOM     24  C1  IDS B   2      57.701  -0.264  22.3340  0.00  0.00     0.000 C
ATOM     25  C2  IDS B   2      58.055   0.008  20.8550  0.00  0.00     0.000 C
ATOM     26  C3  IDS B   2      59.565  -0.040  20.6380  0.00  0.00     0.000 C
ATOM     27  C4  IDS B   2      60.341   0.893  21.5580  0.00  0.00     0.000 C
ATOM     28  C5  IDS B   2      59.684   0.924  22.9530  0.00  0.00     0.000 C
ATOM     29  O5  IDS B   2      58.874  -0.223  23.1570  0.00  0.00     0.000 O
ATOM     30   O  IDS B   2      59.858   0.337  19.2980  0.00  0.00     0.000 O
ATOM     32  HD  IDS B   2      59.837   1.193  19.1710  0.00  0.00     0.000 HD
BRANCH 25 32
ATOM     32   O  IDS B   2      57.439  -0.983  19.9390  0.00  0.00     0.000 O
ATOM     33   S  IDS B   2      56.466  -0.526  18.6870  0.00  0.00     0.000 S
ATOM     34   O  IDS B   2      55.877  -1.749  18.1640  0.00  0.00     0.000 OA
ATOM     35   O  IDS B   2      55.444   0.389  19.1780  0.00  0.00     0.000 OA
ATOM     36   O  IDS B   2      57.340   0.093  17.7190  0.00  0.00     0.000 OA
ENDBRANCH 25 32
BRANCH 28 37
ATOM     37   C  IDS B   2      60.605   1.093  24.1790  0.00  0.00     0.000 C
ATOM     38   O  IDS B   2      60.669   0.094  24.8560  0.00  0.00     0.000 OA
ATOM     39   O  IDS B   2      61.297   2.098  24.4710  0.00  0.00     0.000 OA
ENDBRANCH 28 37
BRANCH 24 40
ATOM     40  O4  SUS B   3      56.416  -0.197  22.7400  0.00  0.00     0.000 O
BRANCH 40 44
ATOM     41  C1  SUS B   3      54.467  -2.546  25.6090  0.00  0.00     0.000 C
ATOM     42  C2  SUS B   3      54.965  -1.157  26.0560  0.00  0.00     0.000 C
ATOM     43  C3  SUS B   3      55.193  -0.285  24.8230  0.00  0.00     0.000 C
ATOM     44  C4  SUS B   3      56.141  -1.007  23.8790  0.00  0.00     0.000 C
ATOM     45  C5  SUS B   3      55.501  -2.309  23.4420  0.00  0.00     0.000 C
ATOM     46  O5  SUS B   3      55.311  -3.131  24.6120  0.00  0.00     0.000 O
BRANCH 42 49
ATOM     47   N  SUS B   3      53.986  -0.726  27.0690  0.00  0.00     0.000 N
ATOM     49  HD  SUS B   3      53.544  -0.001  26.8960  0.00  0.00     0.000 HD
ATOM     49   S  SUS B   3      54.631  -0.580  28.5280  0.00  0.00     0.000 S
ATOM     50   O  SUS B   3      55.705   0.332  28.4890  0.00  0.00     0.000 OA
ATOM     51   O  SUS B   3      53.394   0.061  29.2080  0.00  0.00     0.000 OA
ATOM     52   O  SUS B   3      54.881  -1.861  29.0580  0.00  0.00     0.000 OA
ENDBRANCH 42 49
BRANCH 43 53
ATOM     53   O  SUS B   3      55.800   0.984  25.2700  0.00  0.00     0.000 O
ATOM     54   S  SUS B   3      54.864   2.333  25.1890  0.00  0.00     0.000 S
ATOM     55   O  SUS B   3      53.846   2.220  26.2240  0.00  0.00     0.000 OA
ATOM     56   O  SUS B   3      55.798   3.423  25.4020  0.00  0.00     0.000 OA
ATOM     57   O  SUS B   3      54.262   2.340  23.8520  0.00  0.00     0.000 OA
ENDBRANCH 43 53
BRANCH 45 58
ATOM     58   C  SUS B   3      56.344  -3.040  22.4200  0.00  0.00     0.000 C
ATOM     59   S  SUS B   3      57.267  -5.361  21.8320  0.00  0.00     0.000 S
ATOM     60   O  SUS B   3      56.275  -4.454  22.6700  0.00  0.00     0.000 O
ATOM     61   O  SUS B   3      58.557  -5.209  22.4780  0.00  0.00     0.000 OA
ATOM     62   O  SUS B   3      56.687  -6.659  22.0470  0.00  0.00     0.000 OA
ATOM     63   O  SUS B   3      57.193  -4.875  20.5000  0.00  0.00     0.000 OA
ENDBRANCH 45 58
BRANCH 41 64
ATOM     64  O4  IDS B   4      53.128  -2.583  25.3040  0.00  0.00     0.000 O
BRANCH 64 68
ATOM     65  C1  IDS B   4      49.619  -3.557  25.4080  0.00  0.00     0.000 C
ATOM     66  C2  IDS B   4      50.304  -3.005  26.6640  0.00  0.00     0.000 C
ATOM     67  C3  IDS B   4      51.665  -3.614  26.9550  0.00  0.00     0.000 C
ATOM     68  C4  IDS B   4      52.499  -3.820  25.7050  0.00  0.00     0.000 C
ATOM     69  C5  IDS B   4      51.595  -4.424  24.6220  0.00  0.00     0.000 C
ATOM     70  O5  IDS B   4      50.536  -3.509  24.3290  0.00  0.00     0.000 O
ATOM     71   O  IDS B   4      51.442  -4.856  27.5900  0.00  0.00     0.000 O
ATOM     73  HD  IDS B   4      51.229  -4.064  27.3130  0.00  0.00     0.000 HD
BRANCH 66 73
ATOM     73   O  IDS B   4      50.551  -1.568  26.4760  0.00  0.00     0.000 O
ATOM     74   S  IDS B   4      49.716  -0.530  27.3930  0.00  0.00     0.000 S
ATOM     75   O  IDS B   4      48.316  -0.816  27.1660  0.00  0.00     0.000 OA
ATOM     76   O  IDS B   4      50.147   0.741  26.8680  0.00  0.00     0.000 OA
ATOM     77   O  IDS B   4      50.139  -0.787  28.7490  0.00  0.00     0.000 OA
ENDBRANCH 66 73
BRANCH 69 78
ATOM     78   C  IDS B   4      52.333  -4.894  23.3760  0.00  0.00     0.000 C
ATOM     79   O  IDS B   4      53.364  -5.552  23.5130  0.00  0.00     0.000 OA
ATOM     80   O  IDS B   4      51.813  -4.690  22.2630  0.00  0.00     0.000 OA
ENDBRANCH 69 78
BRANCH 65 81
ATOM     81  O4  SGN B   5      49.065  -4.769  25.6890  0.00  0.00     0.000 O
BRANCH 81 85
ATOM     82  C1  SGN B   5      45.825  -7.265  24.7360  0.00  0.00     0.000 C
ATOM     83  C2  SGN B   5      47.095  -7.415  23.8850  0.00  0.00     0.000 C
ATOM     84  C3  SGN B   5      48.288  -6.802  24.6320  0.00  0.00     0.000 C
ATOM     85  C4  SGN B   5      47.972  -5.359  24.9830  0.00  0.00     0.000 C
ATOM     86  C5  SGN B   5      46.711  -5.341  25.8440  0.00  0.00     0.000 C
ATOM     87  O5  SGN B   5      45.626  -5.909  25.0860  0.00  0.00     0.000 O
ATOM     88   O  SGN B   5      49.448  -6.885  23.8320  0.00  0.00     0.000 O
ATOM     90  HD  SGN B   5      49.257  -7.408  24.4950  0.00  0.00     0.000 HD
BRANCH 83 92
ATOM     90   N  SGN B   5      46.158  -8.272  23.1340  0.00  0.00     0.000 N
ATOM     92  HD  SGN B   5      45.486  -7.813  22.8380  0.00  0.00     0.000 HD
ATOM     92   S  SGN B   5      46.768  -9.323  22.0950  0.00  0.00     0.000 S
ATOM     93   O  SGN B   5      45.623  -9.978  21.5400  0.00  0.00     0.000 OA
ATOM     94   O  SGN B   5      47.639  -8.574  21.2550  0.00  0.00     0.000 OA
ATOM     95   O  SGN B   5      47.630 -10.239  22.9370  0.00  0.00     0.000 OA
ENDBRANCH 83 92
BRANCH 86 96
ATOM     96   C  SGN B   5      46.279  -3.957  26.2830  0.00  0.00     0.000 C
ATOM     97   O  SGN B   5      46.257  -3.061  25.1690  0.00  0.00     0.000 O
ATOM     98   S  SGN B   5      44.909  -2.215  24.9710  0.00  0.00     0.000 S
ATOM     99   O  SGN B   5      45.267  -1.286  23.9260  0.00  0.00     0.000 OA
ATOM    100   O  SGN B   5      43.880  -3.128  24.6250  0.00  0.00     0.000 OA
ATOM    101   O  SGN B   5      44.694  -1.589  26.2350  0.00  0.00     0.000 OA
ENDBRANCH 86 96
BRANCH 82 102
ATOM    102  O4  IDS B   6      45.848  -8.045  25.8540  0.00  0.00     0.000 O
BRANCH 102 106
ATOM    103  C1  IDS B   6      44.526 -10.662  28.0140  0.00  0.00     0.000 C
ATOM    104  C2  IDS B   6      44.484 -10.809  26.4840  0.00  0.00     0.000 C
ATOM    105  C3  IDS B   6      43.973  -9.594  25.7350  0.00  0.00     0.000 C
ATOM    106  C4  IDS B   6      44.493  -8.289  26.3100  0.00  0.00     0.000 C
ATOM    107  C5  IDS B   6      44.433  -8.337  27.8390  0.00  0.00     0.000 C
ATOM    108  O5  IDS B   6      45.160  -9.447  28.3670  0.00  0.00     0.000 O
ATOM    109   O  IDS B   6      42.555  -9.626  25.7590  0.00  0.00     0.000 O
ATOM    111  HD  IDS B   6      42.369 -10.116  26.4480  0.00  0.00     0.000 HD
BRANCH 104 111
ATOM    111   O  IDS B   6      45.852 -11.025  25.9870  0.00  0.00     0.000 O
ATOM    112   S  IDS B   6      46.232 -12.480  25.4380  0.00  0.00     0.000 S
ATOM    113   O  IDS B   6      45.987 -13.371  26.5610  0.00  0.00     0.000 OA
ATOM    114   O  IDS B   6      45.418 -12.755  24.2480  0.00  0.00     0.000 OA
ATOM    115   O  IDS B   6      47.635 -12.263  25.1550  0.00  0.00     0.000 OA
ENDBRANCH 104 111
BRANCH 107 116
ATOM    116   C  IDS B   6      44.990  -7.037  28.4070  0.00  0.00     0.000 C
ATOM    117   O  IDS B   6      46.074  -7.095  28.9300  0.00  0.00     0.000 OA
ATOM    118   O  IDS B   6      44.361  -5.993  28.3400  0.00  0.00     0.000 OA
ENDBRANCH 107 116
BRANCH 103 119
ATOM    119  O4  SGN B   7      43.251 -10.930  28.3970  0.00  0.00     0.000 O
BRANCH 119 123
ATOM    120  C1  SGN B   7      41.363 -12.296  31.8700  0.00  0.00     0.000 C
ATOM    121  C2  SGN B   7      41.678 -10.791  31.7730  0.00  0.00     0.000 C
ATOM    122  C3  SGN B   7      41.983 -10.397  30.3220  0.00  0.00     0.000 C
ATOM    123  C4  SGN B   7      43.079 -11.292  29.7670  0.00  0.00     0.000 C
ATOM    124  C5  SGN B   7      42.674 -12.767  29.9150  0.00  0.00     0.000 C
ATOM    125  O5  SGN B   7      42.398 -13.094  31.2960  0.00  0.00     0.000 O
ATOM    126   O  SGN B   7      42.366  -9.018  30.2850  0.00  0.00     0.000 O
ATOM    128  HD  SGN B   7      42.038  -9.678  30.7400  0.00  0.00     0.000 HD
BRANCH 121 130
ATOM    128   N  SGN B   7      40.485 -10.358  32.5050  0.00  0.00     0.000 N
ATOM    130  HD  SGN B   7      40.685 -10.888  33.1600  0.00  0.00     0.000 HD
ATOM    130   S  SGN B   7      40.570  -9.398  33.7960  0.00  0.00     0.000 S
ATOM    131   O  SGN B   7      41.386  -8.304  33.3930  0.00  0.00     0.000 OA
ATOM    132   O  SGN B   7      39.253  -9.173  34.2720  0.00  0.00     0.000 OA
ATOM    133   O  SGN B   7      41.205 -10.382  34.8360  0.00  0.00     0.000 OA
ENDBRANCH 121 130
BRANCH 124 134
ATOM    134   C  SGN B   7      43.743 -13.735  29.5000  0.00  0.00     0.000 C
ATOM    135   O  SGN B   7      44.265 -14.374  30.6770  0.00  0.00     0.000 O
ATOM    136   S  SGN B   7      45.293 -15.539  30.4440  0.00  0.00     0.000 S
ATOM    137   O  SGN B   7      45.747 -15.947  31.7520  0.00  0.00     0.000 OA
ATOM    138   O  SGN B   7      46.343 -14.961  29.6370  0.00  0.00     0.000 OA
ATOM    139   O  SGN B   7      44.485 -16.536  29.7590  0.00  0.00     0.000 OA
ENDBRANCH 124 134
BRANCH 120 140
ATOM    140  O4  IDS B   8      40.302 -12.948  31.3820  0.00  0.00     0.000 O
BRANCH 140 144
ATOM    141  C1  IDS B   8      37.789 -15.178  30.0890  0.00  0.00     0.000 C
ATOM    142  C2  IDS B   8      38.852 -14.539  29.1490  0.00  0.00     0.000 C
ATOM    143  C3  IDS B   8      38.996 -13.019  29.3470  0.00  0.00     0.000 C
ATOM    144  C4  IDS B   8      39.019 -12.634  30.8260  0.00  0.00     0.000 C
ATOM    145  C5  IDS B   8      37.916 -13.384  31.5860  0.00  0.00     0.000 C
ATOM    146  O5  IDS B   8      38.040 -14.797  31.4360  0.00  0.00     0.000 O
BRANCH 142 147
ATOM    147   O  IDS B   8      40.181 -15.147  29.4190  0.00  0.00     0.000 O
ATOM    148   S  IDS B   8      40.675 -16.468  28.6190  0.00  0.00     0.000 S
ATOM    149   O  IDS B   8      39.513 -17.067  28.0020  0.00  0.00     0.000 OA
ATOM    150   O  IDS B   8      41.644 -15.993  27.6480  0.00  0.00     0.000 OA
ATOM    151   O  IDS B   8      41.257 -17.331  29.6290  0.00  0.00     0.000 OA
ENDBRANCH 142 147
BRANCH 145 152
ATOM    152   C  IDS B   8      37.951 -13.119  33.0770  0.00  0.00     0.000 C
ATOM    153   O  IDS B   8      37.964 -11.963  33.4850  0.00  0.00     0.000 OA
ATOM    154   O  IDS B   8      37.945 -14.056  33.8560  0.00  0.00     0.000 OA
ENDBRANCH 145 152
ENDBRANCH 140 144
ENDBRANCH 120 140
ENDBRANCH 119 123
ENDBRANCH 103 119
ENDBRANCH 102 106
ENDBRANCH 82 102
ENDBRANCH 81 85
ENDBRANCH 65 81
ENDBRANCH 64 68
ENDBRANCH 41 64
ENDBRANCH 40 44
ENDBRANCH 24 40
ENDBRANCH 23 27
ENDBRANCH 1 23
TORSDOF 31
ENDMDL
MODEL 37
REMARK VINA RESULT:      -6.7     15.417     24.453
ROOT
ATOM      1  C1  SGN B   1      62.211   1.145  20.5880  0.00  0.00     0.000 C
ATOM      2  C2  SGN B   1      63.504   0.569  19.9880  0.00  0.00     0.000 C
ATOM      3  C3  SGN B   1      64.684   0.774  20.9430  0.00  0.00     0.000 C
ATOM      4  C4  SGN B   1      64.826   2.252  21.2940  0.00  0.00     0.000 C
ATOM      5  C5  SGN B   1      63.471   2.791  21.7470  0.00  0.00     0.000 C
ATOM      6  O5  SGN B   1      62.485   2.532  20.7280  0.00  0.00     0.000 O
ATOM      7   O  SGN B   1      65.887   0.280  20.3660  0.00  0.00     0.000 O
ATOM      9  HD  SGN B   1      65.659   0.895  19.8000  0.00  0.00     0.000 HD
ATOM      9   O  SGN B   1      65.782   2.400  22.3280  0.00  0.00     0.000 O
ATOM     11  HD  SGN B   1      65.554   3.015  21.7620  0.00  0.00     0.000 HD
ENDROOT
BRANCH 2 13
ATOM     11   N  SGN B   1      62.957   0.070  18.7110  0.00  0.00     0.000 N
ATOM     13  HD  SGN B   1      62.647  -0.219  19.4660  0.00  0.00     0.000 HD
ATOM     13   S  SGN B   1      62.317  -1.398  18.5660  0.00  0.00     0.000 S
ATOM     14   O  SGN B   1      62.324  -2.057  19.8130  0.00  0.00     0.000 OA
ATOM     15   O  SGN B   1      61.097  -1.287  17.8390  0.00  0.00     0.000 OA
ATOM     16   O  SGN B   1      63.376  -2.008  17.5960  0.00  0.00     0.000 OA
ENDBRANCH 2 13
BRANCH 5 17
ATOM     17   C  SGN B   1      63.460   4.275  22.0170  0.00  0.00     0.000 C
ATOM     18   O  SGN B   1      64.708   4.880  21.6240  0.00  0.00     0.000 O
ATOM     19   S  SGN B   1      65.347   5.911  22.6660  0.00  0.00     0.000 S
ATOM     20   O  SGN B   1      66.437   6.540  21.9500  0.00  0.00     0.000 OA
ATOM     21   O  SGN B   1      64.263   6.813  22.9780  0.00  0.00     0.000 OA
ATOM     22   O  SGN B   1      65.778   5.100  23.7830  0.00  0.00     0.000 OA
ENDBRANCH 5 17
BRANCH 1 23
ATOM     23  O4  IDS B   2      61.159   0.777  21.3740  0.00  0.00     0.000 O
BRANCH 23 27
ATOM     24  C1  IDS B   2      57.379  -0.286  22.7210  0.00  0.00     0.000 C
ATOM     25  C2  IDS B   2      57.526  -0.144  21.1900  0.00  0.00     0.000 C
ATOM     26  C3  IDS B   2      58.996  -0.048  20.7890  0.00  0.00     0.000 C
ATOM     27  C4  IDS B   2      59.751   1.062  21.5080  0.00  0.00     0.000 C
ATOM     28  C5  IDS B   2      59.259   1.176  22.9650  0.00  0.00     0.000 C
ATOM     29  O5  IDS B   2      58.624  -0.024  23.3810  0.00  0.00     0.000 O
ATOM     30   O  IDS B   2      59.085   0.207  19.3920  0.00  0.00     0.000 O
ATOM     32  HD  IDS B   2      58.944   1.036  19.1860  0.00  0.00     0.000 HD
BRANCH 25 32
ATOM     32   O  IDS B   2      56.936  -1.293  20.4600  0.00  0.00     0.000 O
ATOM     33   S  IDS B   2      55.706  -1.099  19.3770  0.00  0.00     0.000 S
ATOM     34   O  IDS B   2      55.247  -2.438  19.0430  0.00  0.00     0.000 OA
ATOM     35   O  IDS B   2      54.645  -0.309  19.9860  0.00  0.00     0.000 OA
ATOM     36   O  IDS B   2      56.294  -0.443  18.2320  0.00  0.00     0.000 OA
ENDBRANCH 25 32
BRANCH 28 37
ATOM     37   C  IDS B   2      60.285   1.581  24.0420  0.00  0.00     0.000 C
ATOM     38   O  IDS B   2      60.560   0.674  24.7910  0.00  0.00     0.000 OA
ATOM     39   O  IDS B   2      60.867   2.688  24.1530  0.00  0.00     0.000 OA
ENDBRANCH 28 37
BRANCH 24 40
ATOM     40  O4  SUS B   3      56.151  -0.317  23.2790  0.00  0.00     0.000 O
BRANCH 40 44
ATOM     41  C1  SUS B   3      54.666  -2.732  26.3620  0.00  0.00     0.000 C
ATOM     42  C2  SUS B   3      55.409  -1.444  26.7710  0.00  0.00     0.000 C
ATOM     43  C3  SUS B   3      55.443  -0.485  25.5830  0.00  0.00     0.000 C
ATOM     44  C4  SUS B   3      56.057  -1.200  24.3900  0.00  0.00     0.000 C
ATOM     45  C5  SUS B   3      55.189  -2.389  24.0320  0.00  0.00     0.000 C
ATOM     46  O5  SUS B   3      55.184  -3.297  25.1520  0.00  0.00     0.000 O
BRANCH 42 49
ATOM     47   N  SUS B   3      54.811  -0.866  27.9870  0.00  0.00     0.000 N
ATOM     49  HD  SUS B   3      54.585  -0.031  27.9480  0.00  0.00     0.000 HD
ATOM     49   S  SUS B   3      55.726  -1.075  29.2850  0.00  0.00     0.000 S
ATOM     50   O  SUS B   3      56.999  -0.511  29.0690  0.00  0.00     0.000 OA
ATOM     51   O  SUS B   3      54.889  -0.186  30.2390  0.00  0.00     0.000 OA
ATOM     52   O  SUS B   3      55.669  -2.425  29.6840  0.00  0.00     0.000 OA
ENDBRANCH 42 49
BRANCH 43 53
ATOM     53   O  SUS B   3      56.278   0.673  25.9580  0.00  0.00     0.000 O
ATOM     54   S  SUS B   3      55.524   2.127  26.0960  0.00  0.00     0.000 S
ATOM     55   O  SUS B   3      54.697   2.078  27.2940  0.00  0.00     0.000 OA
ATOM     56   O  SUS B   3      56.614   3.083  26.1750  0.00  0.00     0.000 OA
ATOM     57   O  SUS B   3      54.703   2.285  24.8920  0.00  0.00     0.000 OA
ENDBRANCH 43 53
BRANCH 45 58
ATOM     58   C  SUS B   3      55.683  -3.096  22.7880  0.00  0.00     0.000 C
ATOM     59   S  SUS B   3      56.928  -5.198  22.0040  0.00  0.00     0.000 S
ATOM     60   O  SUS B   3      56.174  -4.399  23.1450  0.00  0.00     0.000 O
ATOM     61   O  SUS B   3      58.252  -4.609  21.9400  0.00  0.00     0.000 OA
ATOM     62   O  SUS B   3      56.937  -6.522  22.5660  0.00  0.00     0.000 OA
ATOM     63   O  SUS B   3      56.134  -5.038  20.8390  0.00  0.00     0.000 OA
ENDBRANCH 45 58
BRANCH 41 64
ATOM     64  O4  IDS B   4      53.298  -2.613  26.3870  0.00  0.00     0.000 O
BRANCH 64 68
ATOM     65  C1  IDS B   4      50.025  -3.873  27.3740  0.00  0.00     0.000 C
ATOM     66  C2  IDS B   4      51.275  -4.261  28.1740  0.00  0.00     0.000 C
ATOM     67  C3  IDS B   4      52.455  -4.697  27.3220  0.00  0.00     0.000 C
ATOM     68  C4  IDS B   4      52.626  -3.853  26.0730  0.00  0.00     0.000 C
ATOM     69  C5  IDS B   4      51.243  -3.655  25.4390  0.00  0.00     0.000 C
ATOM     70  O5  IDS B   4      50.398  -2.959  26.3590  0.00  0.00     0.000 O
ATOM     71   O  IDS B   4      52.236  -6.045  26.9620  0.00  0.00     0.000 O
ATOM     73  HD  IDS B   4      52.115  -5.325  27.4270  0.00  0.00     0.000 HD
BRANCH 66 73
ATOM     73   O  IDS B   4      51.744  -3.083  28.9180  0.00  0.00     0.000 O
ATOM     74   S  IDS B   4      51.790  -3.176  30.5320  0.00  0.00     0.000 S
ATOM     75   O  IDS B   4      50.452  -3.521  30.9620  0.00  0.00     0.000 OA
ATOM     76   O  IDS B   4      52.196  -1.841  30.8940  0.00  0.00     0.000 OA
ATOM     77   O  IDS B   4      52.767  -4.196  30.8320  0.00  0.00     0.000 OA
ENDBRANCH 66 73
BRANCH 69 78
ATOM     78   C  IDS B   4      51.270  -3.013  24.0580  0.00  0.00     0.000 C
ATOM     79   O  IDS B   4      52.013  -3.488  23.2010  0.00  0.00     0.000 OA
ATOM     80   O  IDS B   4      50.463  -2.098  23.8100  0.00  0.00     0.000 OA
ENDBRANCH 69 78
BRANCH 65 81
ATOM     81  O4  SGN B   5      49.376  -5.002  26.9740  0.00  0.00     0.000 O
BRANCH 81 85
ATOM     82  C1  SGN B   5      45.490  -6.366  26.1500  0.00  0.00     0.000 C
ATOM     83  C2  SGN B   5      46.433  -6.182  24.9520  0.00  0.00     0.000 C
ATOM     84  C3  SGN B   5      47.887  -6.142  25.4440  0.00  0.00     0.000 C
ATOM     85  C4  SGN B   5      48.031  -5.052  26.4920  0.00  0.00     0.000 C
ATOM     86  C5  SGN B   5      47.067  -5.355  27.6360  0.00  0.00     0.000 C
ATOM     87  O5  SGN B   5      45.723  -5.360  27.1180  0.00  0.00     0.000 O
ATOM     88   O  SGN B   5      48.755  -5.915  24.3560  0.00  0.00     0.000 O
ATOM     90  HD  SGN B   5      48.612  -6.682  24.7330  0.00  0.00     0.000 HD
BRANCH 83 92
ATOM     90   N  SGN B   5      45.709  -7.227  24.2030  0.00  0.00     0.000 N
ATOM     92  HD  SGN B   5      45.120  -7.617  24.7050  0.00  0.00     0.000 HD
ATOM     92   S  SGN B   5      45.216  -6.885  22.7220  0.00  0.00     0.000 S
ATOM     93   O  SGN B   5      44.557  -8.079  22.2830  0.00  0.00     0.000 OA
ATOM     94   O  SGN B   5      44.488  -5.668  22.8290  0.00  0.00     0.000 OA
ATOM     95   O  SGN B   5      46.485  -6.587  21.9540  0.00  0.00     0.000 OA
ENDBRANCH 83 92
BRANCH 86 96
ATOM     96   C  SGN B   5      47.111  -4.350  28.7670  0.00  0.00     0.000 C
ATOM     97   O  SGN B   5      46.484  -3.126  28.3760  0.00  0.00     0.000 O
ATOM     98   S  SGN B   5      45.373  -2.549  29.3790  0.00  0.00     0.000 S
ATOM     99   O  SGN B   5      45.091  -1.247  28.8260  0.00  0.00     0.000 OA
ATOM    100   O  SGN B   5      44.277  -3.450  29.3630  0.00  0.00     0.000 OA
ATOM    101   O  SGN B   5      46.031  -2.496  30.6440  0.00  0.00     0.000 OA
ENDBRANCH 86 96
BRANCH 82 102
ATOM    102  O4  IDS B   6      45.596  -7.602  26.7160  0.00  0.00     0.000 O
BRANCH 102 106
ATOM    103  C1  IDS B   6      44.399 -10.843  27.8660  0.00  0.00     0.000 C
ATOM    104  C2  IDS B   6      44.049 -10.329  26.4610  0.00  0.00     0.000 C
ATOM    105  C3  IDS B   6      43.557  -8.896  26.4040  0.00  0.00     0.000 C
ATOM    106  C4  IDS B   6      44.333  -7.972  27.3260  0.00  0.00     0.000 C
ATOM    107  C5  IDS B   6      44.561  -8.660  28.6750  0.00  0.00     0.000 C
ATOM    108  O5  IDS B   6      45.234  -9.912  28.5280  0.00  0.00     0.000 O
ATOM    109   O  IDS B   6      42.177  -8.890  26.7310  0.00  0.00     0.000 O
ATOM    111  HD  IDS B   6      42.067  -9.619  27.1850  0.00  0.00     0.000 HD
BRANCH 104 111
ATOM    111   O  IDS B   6      45.259 -10.358  25.6250  0.00  0.00     0.000 O
ATOM    112   S  IDS B   6      45.299 -11.380  24.3940  0.00  0.00     0.000 S
ATOM    113   O  IDS B   6      45.106 -12.689  24.9980  0.00  0.00     0.000 OA
ATOM    114   O  IDS B   6      44.262 -10.990  23.4320  0.00  0.00     0.000 OA
ATOM    115   O  IDS B   6      46.650 -11.139  23.9340  0.00  0.00     0.000 OA
ENDBRANCH 104 111
BRANCH 107 116
ATOM    116   C  IDS B   6      45.372  -7.740  29.5790  0.00  0.00     0.000 C
ATOM    117   O  IDS B   6      44.815  -6.753  29.9880  0.00  0.00     0.000 OA
ATOM    118   O  IDS B   6      46.533  -7.991  29.8640  0.00  0.00     0.000 OA
ENDBRANCH 107 116
BRANCH 103 119
ATOM    119  O4  SGN B   7      43.198 -11.207  28.3840  0.00  0.00     0.000 O
BRANCH 119 123
ATOM    120  C1  SGN B   7      42.099 -14.029  31.2680  0.00  0.00     0.000 C
ATOM    121  C2  SGN B   7      41.908 -12.541  31.6170  0.00  0.00     0.000 C
ATOM    122  C3  SGN B   7      41.967 -11.679  30.3490  0.00  0.00     0.000 C
ATOM    123  C4  SGN B   7      43.249 -11.974  29.5880  0.00  0.00     0.000 C
ATOM    124  C5  SGN B   7      43.348 -13.480  29.2940  0.00  0.00     0.000 C
ATOM    125  O5  SGN B   7      43.290 -14.251  30.5150  0.00  0.00     0.000 O
ATOM    126   O  SGN B   7      41.886 -10.298  30.7200  0.00  0.00     0.000 O
ATOM    128  HD  SGN B   7      41.820 -11.129  30.9570  0.00  0.00     0.000 HD
BRANCH 121 130
ATOM    128   N  SGN B   7      40.883 -12.998  32.5590  0.00  0.00     0.000 N
ATOM    130  HD  SGN B   7      41.497 -13.259  33.1110  0.00  0.00     0.000 HD
ATOM    130   S  SGN B   7      40.561 -12.211  33.9270  0.00  0.00     0.000 S
ATOM    131   O  SGN B   7      40.376 -10.854  33.5410  0.00  0.00     0.000 OA
ATOM    132   O  SGN B   7      39.533 -12.909  34.6110  0.00  0.00     0.000 OA
ATOM    133   O  SGN B   7      41.861 -12.522  34.7430  0.00  0.00     0.000 OA
ENDBRANCH 121 130
BRANCH 124 134
ATOM    134   C  SGN B   7      44.638 -13.888  28.6450  0.00  0.00     0.000 C
ATOM    135   O  SGN B   7      45.195 -14.987  29.3850  0.00  0.00     0.000 O
ATOM    136   S  SGN B   7      46.475 -15.664  28.7750  0.00  0.00     0.000 S
ATOM    137   O  SGN B   7      46.905 -16.655  29.7320  0.00  0.00     0.000 OA
ATOM    138   O  SGN B   7      47.428 -14.590  28.6080  0.00  0.00     0.000 OA
ATOM    139   O  SGN B   7      45.971 -16.222  27.5300  0.00  0.00     0.000 OA
ENDBRANCH 124 134
BRANCH 120 140
ATOM    140  O4  IDS B   8      41.269 -14.827  30.5870  0.00  0.00     0.000 O
BRANCH 140 144
ATOM    141  C1  IDS B   8      38.765 -16.384  28.5210  0.00  0.00     0.000 C
ATOM    142  C2  IDS B   8      38.363 -15.471  29.7140  0.00  0.00     0.000 C
ATOM    143  C3  IDS B   8      39.106 -15.819  31.0180  0.00  0.00     0.000 C
ATOM    144  C4  IDS B   8      40.593 -16.076  30.7790  0.00  0.00     0.000 C
ATOM    145  C5  IDS B   8      40.784 -16.974  29.5470  0.00  0.00     0.000 C
ATOM    146  O5  IDS B   8      40.181 -16.410  28.3850  0.00  0.00     0.000 O
BRANCH 142 147
ATOM    147   O  IDS B   8      38.686 -14.057  29.3880  0.00  0.00     0.000 O
ATOM    148   S  IDS B   8      37.724 -12.846  29.8750  0.00  0.00     0.000 S
ATOM    149   O  IDS B   8      36.454 -13.421  30.2560  0.00  0.00     0.000 OA
ATOM    150   O  IDS B   8      38.416 -12.226  30.9890  0.00  0.00     0.000 OA
ATOM    151   O  IDS B   8      37.599 -11.972  28.7240  0.00  0.00     0.000 OA
ENDBRANCH 142 147
BRANCH 145 152
ATOM    152   C  IDS B   8      42.244 -17.184  29.1990  0.00  0.00     0.000 C
ATOM    153   O  IDS B   8      42.661 -16.827  28.1040  0.00  0.00     0.000 OA
ATOM    154   O  IDS B   8      42.991 -17.687  30.0190  0.00  0.00     0.000 OA
ENDBRANCH 145 152
ENDBRANCH 140 144
ENDBRANCH 120 140
ENDBRANCH 119 123
ENDBRANCH 103 119
ENDBRANCH 102 106
ENDBRANCH 82 102
ENDBRANCH 81 85
ENDBRANCH 65 81
ENDBRANCH 64 68
ENDBRANCH 41 64
ENDBRANCH 40 44
ENDBRANCH 24 40
ENDBRANCH 23 27
ENDBRANCH 1 23
TORSDOF 31
ENDMDL
MODEL 38
REMARK VINA RESULT:      -6.7     11.769     22.364
ROOT
ATOM      1  C1  SGN B   1      67.931   2.807  23.6870  0.00  0.00     0.000 C
ATOM      2  C2  SGN B   1      69.267   2.164  24.0920  0.00  0.00     0.000 C
ATOM      3  C3  SGN B   1      69.255   1.774  25.5740  0.00  0.00     0.000 C
ATOM      4  C4  SGN B   1      68.923   2.988  26.4350  0.00  0.00     0.000 C
ATOM      5  C5  SGN B   1      67.664   3.658  25.8890  0.00  0.00     0.000 C
ATOM      6  O5  SGN B   1      67.852   3.974  24.4960  0.00  0.00     0.000 O
ATOM      7   O  SGN B   1      70.509   1.220  25.9550  0.00  0.00     0.000 O
ATOM      9  HD  SGN B   1      70.737   2.017  25.7060  0.00  0.00     0.000 HD
ATOM      9   O  SGN B   1      68.714   2.573  27.7720  0.00  0.00     0.000 O
ATOM     11  HD  SGN B   1      68.943   3.371  27.5230  0.00  0.00     0.000 HD
ENDROOT
BRANCH 2 13
ATOM     11   N  SGN B   1      69.867   2.283  22.7490  0.00  0.00     0.000 N
ATOM     13  HD  SGN B   1      69.189   1.761  22.8840  0.00  0.00     0.000 HD
ATOM     13   S  SGN B   1      69.817   1.084  21.6770  0.00  0.00     0.000 S
ATOM     14   O  SGN B   1      69.095  -0.008  22.2020  0.00  0.00     0.000 OA
ATOM     15   O  SGN B   1      69.445   1.626  20.4130  0.00  0.00     0.000 OA
ATOM     16   O  SGN B   1      71.345   0.777  21.6140  0.00  0.00     0.000 OA
ENDBRANCH 2 13
BRANCH 5 17
ATOM     17   C  SGN B   1      67.295   4.939  26.5940  0.00  0.00     0.000 C
ATOM     18   O  SGN B   1      67.052   5.997  25.6460  0.00  0.00     0.000 O
ATOM     19   S  SGN B   1      67.718   7.411  25.9860  0.00  0.00     0.000 S
ATOM     20   O  SGN B   1      67.142   8.336  25.0340  0.00  0.00     0.000 OA
ATOM     21   O  SGN B   1      67.324   7.666  27.3520  0.00  0.00     0.000 OA
ATOM     22   O  SGN B   1      69.140   7.210  25.8120  0.00  0.00     0.000 OA
ENDBRANCH 5 17
BRANCH 1 23
ATOM     23  O4  IDS B   2      66.701   2.468  23.2060  0.00  0.00     0.000 O
BRANCH 23 27
ATOM     24  C1  IDS B   2      63.136   2.053  21.1200  0.00  0.00     0.000 C
ATOM     25  C2  IDS B   2      64.300   1.161  20.6360  0.00  0.00     0.000 C
ATOM     26  C3  IDS B   2      65.450   1.170  21.6400  0.00  0.00     0.000 C
ATOM     27  C4  IDS B   2      65.948   2.568  21.9790  0.00  0.00     0.000 C
ATOM     28  C5  IDS B   2      64.761   3.551  22.0380  0.00  0.00     0.000 C
ATOM     29  O5  IDS B   2      63.538   2.858  22.2360  0.00  0.00     0.000 O
ATOM     30   O  IDS B   2      66.548   0.442  21.1020  0.00  0.00     0.000 O
ATOM     32  HD  IDS B   2      67.008   0.894  20.5250  0.00  0.00     0.000 HD
BRANCH 25 32
ATOM     32   O  IDS B   2      63.884  -0.251  20.4440  0.00  0.00     0.000 O
ATOM     33   S  IDS B   2      63.988  -0.999  18.9770  0.00  0.00     0.000 S
ATOM     34   O  IDS B   2      63.294  -2.269  19.1200  0.00  0.00     0.000 OA
ATOM     35   O  IDS B   2      63.364  -0.162  17.9620  0.00  0.00     0.000 OA
ATOM     36   O  IDS B   2      65.400  -1.194  18.7390  0.00  0.00     0.000 OA
ENDBRANCH 25 32
BRANCH 28 37
ATOM     37   C  IDS B   2      64.834   4.708  23.0550  0.00  0.00     0.000 C
ATOM     38   O  IDS B   2      64.195   4.490  24.0580  0.00  0.00     0.000 OA
ATOM     39   O  IDS B   2      65.512   5.760  22.9560  0.00  0.00     0.000 OA
ENDBRANCH 28 37
BRANCH 24 40
ATOM     40  O4  SUS B   3      62.052   2.228  20.3360  0.00  0.00     0.000 O
BRANCH 40 44
ATOM     41  C1  SUS B   3      57.998   2.526  21.3490  0.00  0.00     0.000 C
ATOM     42  C2  SUS B   3      58.950   3.593  21.9270  0.00  0.00     0.000 C
ATOM     43  C3  SUS B   3      60.233   3.624  21.1000  0.00  0.00     0.000 C
ATOM     44  C4  SUS B   3      60.826   2.224  21.0590  0.00  0.00     0.000 C
ATOM     45  C5  SUS B   3      59.837   1.292  20.3890  0.00  0.00     0.000 C
ATOM     46  O5  SUS B   3      58.639   1.255  21.1920  0.00  0.00     0.000 O
BRANCH 42 49
ATOM     47   N  SUS B   3      58.160   4.833  22.0160  0.00  0.00     0.000 N
ATOM     49  HD  SUS B   3      58.460   5.515  21.5750  0.00  0.00     0.000 HD
ATOM     49   S  SUS B   3      57.898   5.292  23.5280  0.00  0.00     0.000 S
ATOM     50   O  SUS B   3      59.127   5.465  24.1960  0.00  0.00     0.000 OA
ATOM     51   O  SUS B   3      57.262   6.665  23.1910  0.00  0.00     0.000 OA
ATOM     52   O  SUS B   3      56.949   4.435  24.1190  0.00  0.00     0.000 OA
ENDBRANCH 42 49
BRANCH 43 53
ATOM     53   O  SUS B   3      61.176   4.549  21.7580  0.00  0.00     0.000 O
ATOM     54   S  SUS B   3      61.412   6.011  21.0450  0.00  0.00     0.000 S
ATOM     55   O  SUS B   3      60.197   6.791  21.2360  0.00  0.00     0.000 OA
ATOM     56   O  SUS B   3      62.571   6.554  21.7300  0.00  0.00     0.000 OA
ATOM     57   O  SUS B   3      61.653   5.746  19.6240  0.00  0.00     0.000 OA
ENDBRANCH 43 53
BRANCH 45 58
ATOM     58   C  SUS B   3      60.397  -0.103  20.2210  0.00  0.00     0.000 C
ATOM     59   S  SUS B   3      60.333  -2.456  21.2420  0.00  0.00     0.000 S
ATOM     60   O  SUS B   3      59.728  -0.997  21.1250  0.00  0.00     0.000 O
ATOM     61   O  SUS B   3      61.502  -2.315  22.0900  0.00  0.00     0.000 OA
ATOM     62   O  SUS B   3      59.252  -3.143  21.8950  0.00  0.00     0.000 OA
ATOM     63   O  SUS B   3      60.596  -2.866  19.9080  0.00  0.00     0.000 OA
ENDBRANCH 45 58
BRANCH 41 64
ATOM     64  O4  IDS B   4      57.304   2.946  20.2420  0.00  0.00     0.000 O
BRANCH 64 68
ATOM     65  C1  IDS B   4      54.769   3.062  17.6270  0.00  0.00     0.000 C
ATOM     66  C2  IDS B   4      54.802   4.139  18.7180  0.00  0.00     0.000 C
ATOM     67  C3  IDS B   4      54.960   3.599  20.1290  0.00  0.00     0.000 C
ATOM     68  C4  IDS B   4      55.947   2.449  20.2140  0.00  0.00     0.000 C
ATOM     69  C5  IDS B   4      55.670   1.495  19.0440  0.00  0.00     0.000 C
ATOM     70  O5  IDS B   4      55.871   2.191  17.8110  0.00  0.00     0.000 O
ATOM     71   O  IDS B   4      53.686   3.166  20.5580  0.00  0.00     0.000 O
ATOM     73  HD  IDS B   4      54.242   3.602  20.0580  0.00  0.00     0.000 HD
BRANCH 66 73
ATOM     73   O  IDS B   4      55.971   5.001  18.4960  0.00  0.00     0.000 O
ATOM     74   S  IDS B   4      55.942   6.494  19.1190  0.00  0.00     0.000 S
ATOM     75   O  IDS B   4      54.758   7.135  18.5900  0.00  0.00     0.000 OA
ATOM     76   O  IDS B   4      57.179   7.045  18.6250  0.00  0.00     0.000 OA
ATOM     77   O  IDS B   4      55.903   6.313  20.5510  0.00  0.00     0.000 OA
ENDBRANCH 66 73
BRANCH 69 78
ATOM     78   C  IDS B   4      56.431   0.179  19.1120  0.00  0.00     0.000 C
ATOM     79   O  IDS B   4      56.041  -0.690  19.8900  0.00  0.00     0.000 OA
ATOM     80   O  IDS B   4      57.357  -0.016  18.3030  0.00  0.00     0.000 OA
ENDBRANCH 69 78
BRANCH 65 81
ATOM     81  O4  SGN B   5      53.533   2.489  17.5940  0.00  0.00     0.000 O
BRANCH 81 85
ATOM     82  C1  SGN B   5      50.611   0.891  15.0350  0.00  0.00     0.000 C
ATOM     83  C2  SGN B   5      51.876   0.049  15.2620  0.00  0.00     0.000 C
ATOM     84  C3  SGN B   5      52.591   0.529  16.5330  0.00  0.00     0.000 C
ATOM     85  C4  SGN B   5      52.876   2.016  16.4160  0.00  0.00     0.000 C
ATOM     86  C5  SGN B   5      51.550   2.745  16.2170  0.00  0.00     0.000 C
ATOM     87  O5  SGN B   5      50.938   2.268  15.0040  0.00  0.00     0.000 O
ATOM     88   O  SGN B   5      53.783  -0.202  16.7170  0.00  0.00     0.000 O
ATOM     90  HD  SGN B   5      53.041  -0.336  17.1430  0.00  0.00     0.000 HD
BRANCH 83 92
ATOM     90   N  SGN B   5      51.161  -0.754  14.2510  0.00  0.00     0.000 N
ATOM     92  HD  SGN B   5      50.974  -0.278  13.5520  0.00  0.00     0.000 HD
ATOM     92   S  SGN B   5      51.700  -2.226  13.9420  0.00  0.00     0.000 S
ATOM     93   O  SGN B   5      50.813  -2.725  12.9340  0.00  0.00     0.000 OA
ATOM     94   O  SGN B   5      53.087  -2.079  13.6620  0.00  0.00     0.000 OA
ATOM     95   O  SGN B   5      51.581  -2.963  15.2590  0.00  0.00     0.000 OA
ENDBRANCH 83 92
BRANCH 86 96
ATOM     96   C  SGN B   5      51.680   4.249  16.0960  0.00  0.00     0.000 C
ATOM     97   O  SGN B   5      50.668   4.904  16.8630  0.00  0.00     0.000 O
ATOM     98   S  SGN B   5      51.172   6.049  17.8670  0.00  0.00     0.000 S
ATOM     99   O  SGN B   5      49.937   6.639  18.3230  0.00  0.00     0.000 OA
ATOM    100   O  SGN B   5      51.938   5.419  18.8820  0.00  0.00     0.000 OA
ATOM    101   O  SGN B   5      51.948   6.923  17.0470  0.00  0.00     0.000 OA
ENDBRANCH 86 96
BRANCH 82 102
ATOM    102  O4  IDS B   6      49.648   0.653  15.9690  0.00  0.00     0.000 O
BRANCH 102 106
ATOM    103  C1  IDS B   6      46.416  -0.473  17.2130  0.00  0.00     0.000 C
ATOM    104  C2  IDS B   6      47.280  -1.388  16.3300  0.00  0.00     0.000 C
ATOM    105  C3  IDS B   6      47.848  -0.731  15.0860  0.00  0.00     0.000 C
ATOM    106  C4  IDS B   6      48.340   0.683  15.3420  0.00  0.00     0.000 C
ATOM    107  C5  IDS B   6      47.332   1.430  16.2210  0.00  0.00     0.000 C
ATOM    108  O5  IDS B   6      47.090   0.747  17.4520  0.00  0.00     0.000 O
ATOM    109   O  IDS B   6      46.845  -0.742  14.0850  0.00  0.00     0.000 O
ATOM    111  HD  IDS B   6      46.105  -0.806  14.5310  0.00  0.00     0.000 HD
BRANCH 104 111
ATOM    111   O  IDS B   6      48.450  -1.833  17.1030  0.00  0.00     0.000 O
ATOM    112   S  IDS B   6      48.366  -3.247  17.8490  0.00  0.00     0.000 S
ATOM    113   O  IDS B   6      47.224  -3.122  18.7410  0.00  0.00     0.000 OA
ATOM    114   O  IDS B   6      48.239  -4.300  16.8350  0.00  0.00     0.000 OA
ATOM    115   O  IDS B   6      49.645  -3.230  18.5250  0.00  0.00     0.000 OA
ENDBRANCH 104 111
BRANCH 107 116
ATOM    116   C  IDS B   6      47.852   2.834  16.5020  0.00  0.00     0.000 C
ATOM    117   O  IDS B   6      48.108   3.098  17.6490  0.00  0.00     0.000 OA
ATOM    118   O  IDS B   6      47.991   3.651  15.6050  0.00  0.00     0.000 OA
ENDBRANCH 107 116
BRANCH 103 119
ATOM    119  O4  SGN B   7      45.200  -0.502  16.6100  0.00  0.00     0.000 O
BRANCH 119 123
ATOM    120  C1  SGN B   7      41.373   0.857  17.6100  0.00  0.00     0.000 C
ATOM    121  C2  SGN B   7      42.228   1.748  16.6890  0.00  0.00     0.000 C
ATOM    122  C3  SGN B   7      43.400   0.948  16.1040  0.00  0.00     0.000 C
ATOM    123  C4  SGN B   7      44.184   0.290  17.2270  0.00  0.00     0.000 C
ATOM    124  C5  SGN B   7      43.244  -0.568  18.0890  0.00  0.00     0.000 C
ATOM    125  O5  SGN B   7      42.158   0.225  18.6190  0.00  0.00     0.000 O
ATOM    126   O  SGN B   7      44.227   1.829  15.3350  0.00  0.00     0.000 O
ATOM    128  HD  SGN B   7      43.484   1.703  15.7620  0.00  0.00     0.000 HD
BRANCH 121 130
ATOM    128   N  SGN B   7      41.688   3.101  16.8460  0.00  0.00     0.000 N
ATOM    130  HD  SGN B   7      42.275   3.407  16.2880  0.00  0.00     0.000 HD
ATOM    130   S  SGN B   7      40.820   3.818  15.6960  0.00  0.00     0.000 S
ATOM    131   O  SGN B   7      39.817   2.872  15.3420  0.00  0.00     0.000 OA
ATOM    132   O  SGN B   7      40.457   5.111  16.1510  0.00  0.00     0.000 OA
ATOM    133   O  SGN B   7      41.932   4.074  14.6230  0.00  0.00     0.000 OA
ENDBRANCH 121 130
BRANCH 124 134
ATOM    134   C  SGN B   7      43.904  -1.168  19.2950  0.00  0.00     0.000 C
ATOM    135   O  SGN B   7      42.980  -1.118  20.3950  0.00  0.00     0.000 O
ATOM    136   S  SGN B   7      43.427  -1.840  21.7170  0.00  0.00     0.000 S
ATOM    137   O  SGN B   7      42.401  -1.568  22.6950  0.00  0.00     0.000 OA
ATOM    138   O  SGN B   7      44.702  -1.250  22.0580  0.00  0.00     0.000 OA
ATOM    139   O  SGN B   7      43.499  -3.233  21.3050  0.00  0.00     0.000 OA
ENDBRANCH 124 134
BRANCH 120 140
ATOM    140  O4  IDS B   8      40.601  -0.180  17.2660  0.00  0.00     0.000 O
BRANCH 140 144
ATOM    141  C1  IDS B   8      38.867  -2.869  15.6160  0.00  0.00     0.000 C
ATOM    142  C2  IDS B   8      38.864  -1.432  15.0210  0.00  0.00     0.000 C
ATOM    143  C3  IDS B   8      38.512  -0.350  16.0590  0.00  0.00     0.000 C
ATOM    144  C4  IDS B   8      39.229  -0.577  17.3890  0.00  0.00     0.000 C
ATOM    145  C5  IDS B   8      39.142  -2.056  17.7930  0.00  0.00     0.000 C
ATOM    146  O5  IDS B   8      39.677  -2.910  16.7840  0.00  0.00     0.000 O
BRANCH 142 147
ATOM    147   O  IDS B   8      40.217  -1.112  14.4930  0.00  0.00     0.000 O
ATOM    148   S  IDS B   8      40.496  -1.041  12.8970  0.00  0.00     0.000 S
ATOM    149   O  IDS B   8      39.393  -1.696  12.2300  0.00  0.00     0.000 OA
ATOM    150   O  IDS B   8      40.583   0.373  12.5820  0.00  0.00     0.000 OA
ATOM    151   O  IDS B   8      41.747  -1.746  12.6970  0.00  0.00     0.000 OA
ENDBRANCH 142 147
BRANCH 145 152
ATOM    152   C  IDS B   8      39.921  -2.363  19.0560  0.00  0.00     0.000 C
ATOM    153   O  IDS B   8      40.838  -3.176  19.0180  0.00  0.00     0.000 OA
ATOM    154   O  IDS B   8      39.642  -1.784  20.0900  0.00  0.00     0.000 OA
ENDBRANCH 145 152
ENDBRANCH 140 144
ENDBRANCH 120 140
ENDBRANCH 119 123
ENDBRANCH 103 119
ENDBRANCH 102 106
ENDBRANCH 82 102
ENDBRANCH 81 85
ENDBRANCH 65 81
ENDBRANCH 64 68
ENDBRANCH 41 64
ENDBRANCH 40 44
ENDBRANCH 24 40
ENDBRANCH 23 27
ENDBRANCH 1 23
TORSDOF 31
ENDMDL
MODEL 39
REMARK VINA RESULT:      -6.7      3.807      7.921
ROOT
ATOM      1  C1  SGN B   1      35.586   1.338  11.1890  0.00  0.00     0.000 C
ATOM      2  C2  SGN B   1      34.079   1.343  10.8840  0.00  0.00     0.000 C
ATOM      3  C3  SGN B   1      33.582  -0.073  10.5770  0.00  0.00     0.000 C
ATOM      4  C4  SGN B   1      34.393  -0.680   9.4360  0.00  0.00     0.000 C
ATOM      5  C5  SGN B   1      35.881  -0.523   9.7430  0.00  0.00     0.000 C
ATOM      6  O5  SGN B   1      36.179   0.865   9.9870  0.00  0.00     0.000 O
ATOM      7   O  SGN B   1      32.197  -0.058  10.2510  0.00  0.00     0.000 O
ATOM      9  HD  SGN B   1      32.530   0.442   9.6280  0.00  0.00     0.000 HD
ATOM      9   O  SGN B   1      34.064  -2.050   9.3020  0.00  0.00     0.000 O
ATOM     11  HD  SGN B   1      34.397  -1.550   8.6780  0.00  0.00     0.000 HD
ENDROOT
BRANCH 2 13
ATOM     11   N  SGN B   1      33.735   2.770  11.0280  0.00  0.00     0.000 N
ATOM     13  HD  SGN B   1      34.149   2.352  11.6630  0.00  0.00     0.000 HD
ATOM     13   S  SGN B   1      33.467   3.449  12.4620  0.00  0.00     0.000 S
ATOM     14   O  SGN B   1      33.664   2.504  13.4910  0.00  0.00     0.000 OA
ATOM     15   O  SGN B   1      34.164   4.691  12.5100  0.00  0.00     0.000 OA
ATOM     16   O  SGN B   1      31.954   3.778  12.2750  0.00  0.00     0.000 OA
ENDBRANCH 2 13
BRANCH 5 17
ATOM     17   C  SGN B   1      36.789  -0.990   8.6330  0.00  0.00     0.000 C
ATOM     18   O  SGN B   1      36.357  -0.468   7.3600  0.00  0.00     0.000 O
ATOM     19   S  SGN B   1      36.327  -1.510   6.1480  0.00  0.00     0.000 S
ATOM     20   O  SGN B   1      36.096  -0.706   4.9670  0.00  0.00     0.000 OA
ATOM     21   O  SGN B   1      37.632  -2.128   6.1820  0.00  0.00     0.000 OA
ATOM     22   O  SGN B   1      35.240  -2.415   6.4550  0.00  0.00     0.000 OA
ENDBRANCH 5 17
BRANCH 1 23
ATOM     23  O4  IDS B   2      36.448   1.207  12.2380  0.00  0.00     0.000 O
BRANCH 23 27
ATOM     24  C1  IDS B   2      40.048   0.929  14.2850  0.00  0.00     0.000 C
ATOM     25  C2  IDS B   2      40.152   0.892  12.7440  0.00  0.00     0.000 C
ATOM     26  C3  IDS B   2      38.830   1.296  12.0980  0.00  0.00     0.000 C
ATOM     27  C4  IDS B   2      37.643   0.473  12.5780  0.00  0.00     0.000 C
ATOM     28  C5  IDS B   2      37.792   0.158  14.0800  0.00  0.00     0.000 C
ATOM     29  O5  IDS B   2      38.684   1.070  14.7030  0.00  0.00     0.000 O
ATOM     30   O  IDS B   2      38.928   1.129  10.6880  0.00  0.00     0.000 O
ATOM     32  HD  IDS B   2      38.835   0.306  10.4350  0.00  0.00     0.000 HD
BRANCH 25 32
ATOM     32   O  IDS B   2      41.201   1.807  12.2300  0.00  0.00     0.000 O
ATOM     33   S  IDS B   2      42.375   1.291  11.1920  0.00  0.00     0.000 S
ATOM     34   O  IDS B   2      43.333   2.381  11.0910  0.00  0.00     0.000 OA
ATOM     35   O  IDS B   2      42.995   0.085  11.7230  0.00  0.00     0.000 OA
ATOM     36   O  IDS B   2      41.707   1.059   9.9320  0.00  0.00     0.000 OA
ENDBRANCH 25 32
BRANCH 28 37
ATOM     37   C  IDS B   2      36.508   0.077  14.9300  0.00  0.00     0.000 C
ATOM     38   O  IDS B   2      35.995  -1.017  14.9000  0.00  0.00     0.000 OA
ATOM     39   O  IDS B   2      36.024   0.981  15.6550  0.00  0.00     0.000 OA
ENDBRANCH 28 37
BRANCH 24 40
ATOM     40  O4  SUS B   3      41.096   0.539  15.0400  0.00  0.00     0.000 O
BRANCH 40 44
ATOM     41  C1  SUS B   3      42.761   2.342  18.4340  0.00  0.00     0.000 C
ATOM     42  C2  SUS B   3      41.608   1.343  18.6600  0.00  0.00     0.000 C
ATOM     43  C3  SUS B   3      41.464   0.455  17.4270  0.00  0.00     0.000 C
ATOM     44  C4  SUS B   3      41.285   1.338  16.2020  0.00  0.00     0.000 C
ATOM     45  C5  SUS B   3      42.518   2.203  16.0380  0.00  0.00     0.000 C
ATOM     46  O5  SUS B   3      42.630   3.052  17.1980  0.00  0.00     0.000 O
BRANCH 42 49
ATOM     47   N  SUS B   3      40.740   0.563  19.5590  0.00  0.00     0.000 N
ATOM     49  HD  SUS B   3      39.906   0.505  19.3370  0.00  0.00     0.000 HD
ATOM     49   S  SUS B   3      40.817   1.064  21.0790  0.00  0.00     0.000 S
ATOM     50   O  SUS B   3      40.471   2.428  21.1530  0.00  0.00     0.000 OA
ATOM     51   O  SUS B   3      39.664   0.178  21.6180  0.00  0.00     0.000 OA
ATOM     52   O  SUS B   3      42.049   0.672  21.6390  0.00  0.00     0.000 OA
ENDBRANCH 42 49
BRANCH 43 53
ATOM     53   O  SUS B   3      40.269  -0.392  17.6140  0.00  0.00     0.000 O
ATOM     54   S  SUS B   3      40.496  -2.020  17.6060  0.00  0.00     0.000 S
ATOM     55   O  SUS B   3      41.186  -2.371  18.8390  0.00  0.00     0.000 OA
ATOM     56   O  SUS B   3      39.152  -2.562  17.5130  0.00  0.00     0.000 OA
ATOM     57   O  SUS B   3      41.321  -2.318  16.4320  0.00  0.00     0.000 OA
ENDBRANCH 43 53
BRANCH 45 58
ATOM     58   C  SUS B   3      42.458   3.042  14.7800  0.00  0.00     0.000 C
ATOM     59   S  SUS B   3      41.566   5.265  13.8590  0.00  0.00     0.000 S
ATOM     60   O  SUS B   3      41.905   4.331  15.0920  0.00  0.00     0.000 O
ATOM     61   O  SUS B   3      40.320   4.751  13.3240  0.00  0.00     0.000 OA
ATOM     62   O  SUS B   3      41.407   6.533  14.5190  0.00  0.00     0.000 OA
ATOM     63   O  SUS B   3      42.686   5.168  12.9910  0.00  0.00     0.000 OA
ENDBRANCH 45 58
BRANCH 41 64
ATOM     64  O4  IDS B   4      44.007   1.806  18.6450  0.00  0.00     0.000 O
BRANCH 64 68
ATOM     65  C1  IDS B   4      47.589   1.661  19.2960  0.00  0.00     0.000 C
ATOM     66  C2  IDS B   4      46.663   2.439  20.2400  0.00  0.00     0.000 C
ATOM     67  C3  IDS B   4      45.668   3.346  19.5370  0.00  0.00     0.000 C
ATOM     68  C4  IDS B   4      45.073   2.716  18.2920  0.00  0.00     0.000 C
ATOM     69  C5  IDS B   4      46.208   2.051  17.5030  0.00  0.00     0.000 C
ATOM     70  O5  IDS B   4      46.802   1.027  18.3050  0.00  0.00     0.000 O
ATOM     71   O  IDS B   4      46.354   4.532  19.1900  0.00  0.00     0.000 O
ATOM     73  HD  IDS B   4      46.232   3.790  19.6190  0.00  0.00     0.000 HD
BRANCH 66 73
ATOM     73   O  IDS B   4      45.849   1.480  21.0000  0.00  0.00     0.000 O
ATOM     74   S  IDS B   4      46.359   1.053  22.4740  0.00  0.00     0.000 S
ATOM     75   O  IDS B   4      47.698   0.529  22.3090  0.00  0.00     0.000 OA
ATOM     76   O  IDS B   4      45.383   0.061  22.8500  0.00  0.00     0.000 OA
ATOM     77   O  IDS B   4      46.312   2.261  23.2640  0.00  0.00     0.000 OA
ENDBRANCH 66 73
BRANCH 69 78
ATOM     78   C  IDS B   4      45.810   1.562  16.1170  0.00  0.00     0.000 C
ATOM     79   O  IDS B   4      45.352   0.426  16.0010  0.00  0.00     0.000 OA
ATOM     80   O  IDS B   4      45.862   2.362  15.1660  0.00  0.00     0.000 OA
ENDBRANCH 69 78
BRANCH 65 81
ATOM     81  O4  SGN B   5      48.582   2.484  18.8570  0.00  0.00     0.000 O
BRANCH 81 85
ATOM     82  C1  SGN B   5      51.450   0.267  16.7360  0.00  0.00     0.000 C
ATOM     83  C2  SGN B   5      51.538   0.235  18.2700  0.00  0.00     0.000 C
ATOM     84  C3  SGN B   5      50.197   0.681  18.8700  0.00  0.00     0.000 C
ATOM     85  C4  SGN B   5      49.834   2.050  18.3210  0.00  0.00     0.000 C
ATOM     86  C5  SGN B   5      49.755   1.951  16.7990  0.00  0.00     0.000 C
ATOM     87  O5  SGN B   5      51.042   1.548  16.2950  0.00  0.00     0.000 O
ATOM     88   O  SGN B   5      50.287   0.709  20.2770  0.00  0.00     0.000 O
ATOM     90  HD  SGN B   5      49.910   0.085  19.8100  0.00  0.00     0.000 HD
BRANCH 83 92
ATOM     90   N  SGN B   5      52.864  -0.336  17.9660  0.00  0.00     0.000 N
ATOM     92  HD  SGN B   5      53.399   0.270  17.6530  0.00  0.00     0.000 HD
ATOM     92   S  SGN B   5      53.518  -1.329  19.0330  0.00  0.00     0.000 S
ATOM     93   O  SGN B   5      54.777  -1.693  18.4560  0.00  0.00     0.000 OA
ATOM     94   O  SGN B   5      53.476  -0.640  20.2770  0.00  0.00     0.000 OA
ATOM     95   O  SGN B   5      52.547  -2.487  19.1250  0.00  0.00     0.000 OA
ENDBRANCH 83 92
BRANCH 86 96
ATOM     96   C  SGN B   5      49.386   3.249  16.1110  0.00  0.00     0.000 C
ATOM     97   O  SGN B   5      50.482   4.166  16.1500  0.00  0.00     0.000 O
ATOM     98   S  SGN B   5      50.901   4.826  14.7490  0.00  0.00     0.000 S
ATOM     99   O  SGN B   5      51.864   5.825  15.1440  0.00  0.00     0.000 OA
ATOM    100   O  SGN B   5      51.423   3.791  13.9300  0.00  0.00     0.000 OA
ATOM    101   O  SGN B   5      49.688   5.379  14.2410  0.00  0.00     0.000 OA
ENDBRANCH 86 96
BRANCH 82 102
ATOM    102  O4  IDS B   6      50.621  -0.693  16.2380  0.00  0.00     0.000 O
BRANCH 102 106
ATOM    103  C1  IDS B   6      49.734  -3.656  14.3160  0.00  0.00     0.000 C
ATOM    104  C2  IDS B   6      50.922  -3.678  15.2910  0.00  0.00     0.000 C
ATOM    105  C3  IDS B   6      51.868  -2.498  15.1790  0.00  0.00     0.000 C
ATOM    106  C4  IDS B   6      51.140  -1.181  14.9740  0.00  0.00     0.000 C
ATOM    107  C5  IDS B   6      50.010  -1.367  13.9570  0.00  0.00     0.000 C
ATOM    108  O5  IDS B   6      49.098  -2.393  14.3550  0.00  0.00     0.000 O
ATOM    109   O  IDS B   6      52.763  -2.750  14.1090  0.00  0.00     0.000 O
ATOM    111  HD  IDS B   6      52.340  -3.320  13.6130  0.00  0.00     0.000 HD
BRANCH 104 111
ATOM    111   O  IDS B   6      50.411  -3.637  16.6700  0.00  0.00     0.000 O
ATOM    112   S  IDS B   6      50.450  -4.988  17.5270  0.00  0.00     0.000 S
ATOM    113   O  IDS B   6      49.661  -5.935  16.7550  0.00  0.00     0.000 OA
ATOM    114   O  IDS B   6      51.852  -5.375  17.7230  0.00  0.00     0.000 OA
ATOM    115   O  IDS B   6      49.794  -4.521  18.7300  0.00  0.00     0.000 OA
ENDBRANCH 104 111
BRANCH 107 116
ATOM    116   C  IDS B   6      49.264  -0.050  13.7860  0.00  0.00     0.000 C
ATOM    117   O  IDS B   6      49.890   0.872  13.3300  0.00  0.00     0.000 OA
ATOM    118   O  IDS B   6      48.091   0.062  14.1070  0.00  0.00     0.000 OA
ENDBRANCH 107 116
BRANCH 103 119
ATOM    119  O4  SGN B   7      50.255  -4.150  13.1640  0.00  0.00     0.000 O
BRANCH 119 123
ATOM    120  C1  SGN B   7      48.812  -6.173   9.8000  0.00  0.00     0.000 C
ATOM    121  C2  SGN B   7      48.523  -4.664   9.9030  0.00  0.00     0.000 C
ATOM    122  C3  SGN B   7      49.438  -4.011  10.9470  0.00  0.00     0.000 C
ATOM    123  C4  SGN B   7      49.319  -4.752  12.2690  0.00  0.00     0.000 C
ATOM    124  C5  SGN B   7      49.619  -6.245  12.0590  0.00  0.00     0.000 C
ATOM    125  O5  SGN B   7      48.735  -6.818  11.0700  0.00  0.00     0.000 O
ATOM    126   O  SGN B   7      49.075  -2.632  11.0880  0.00  0.00     0.000 O
ATOM    128  HD  SGN B   7      48.991  -3.374  10.6480  0.00  0.00     0.000 HD
BRANCH 121 130
ATOM    128   N  SGN B   7      47.347  -4.454   9.0550  0.00  0.00     0.000 N
ATOM    130  HD  SGN B   7      47.339  -3.613   9.2610  0.00  0.00     0.000 HD
ATOM    130   S  SGN B   7      47.432  -3.689   7.6410  0.00  0.00     0.000 S
ATOM    131   O  SGN B   7      48.500  -4.318   6.9410  0.00  0.00     0.000 OA
ATOM    132   O  SGN B   7      46.132  -3.647   7.0770  0.00  0.00     0.000 OA
ATOM    133   O  SGN B   7      47.699  -2.225   8.1290  0.00  0.00     0.000 OA
ENDBRANCH 121 130
BRANCH 124 134
ATOM    134   C  SGN B   7      49.415  -7.083  13.2870  0.00  0.00     0.000 C
ATOM    135   O  SGN B   7      48.905  -8.366  12.8860  0.00  0.00     0.000 O
ATOM    136   S  SGN B   7      48.768  -9.449  14.0150  0.00  0.00     0.000 S
ATOM    137   O  SGN B   7      48.147 -10.599  13.4020  0.00  0.00     0.000 OA
ATOM    138   O  SGN B   7      47.941  -8.835  15.0290  0.00  0.00     0.000 OA
ATOM    139   O  SGN B   7      50.150  -9.664  14.4130  0.00  0.00     0.000 OA
ENDBRANCH 124 134
BRANCH 120 140
ATOM    140  O4  IDS B   8      49.913  -6.770   9.3300  0.00  0.00     0.000 O
BRANCH 140 144
ATOM    141  C1  IDS B   8      53.075  -7.406   7.7300  0.00  0.00     0.000 C
ATOM    142  C2  IDS B   8      52.004  -6.503   7.0540  0.00  0.00     0.000 C
ATOM    143  C3  IDS B   8      50.601  -7.137   7.0400  0.00  0.00     0.000 C
ATOM    144  C4  IDS B   8      50.253  -7.787   8.3790  0.00  0.00     0.000 C
ATOM    145  C5  IDS B   8      51.441  -8.613   8.8920  0.00  0.00     0.000 C
ATOM    146  O5  IDS B   8      52.621  -7.822   9.0120  0.00  0.00     0.000 O
BRANCH 142 147
ATOM    147   O  IDS B   8      51.899  -5.219   7.7960  0.00  0.00     0.000 O
ATOM    148   S  IDS B   8      52.674  -3.890   7.2800  0.00  0.00     0.000 S
ATOM    149   O  IDS B   8      53.680  -4.310   6.3310  0.00  0.00     0.000 OA
ATOM    150   O  IDS B   8      51.650  -3.054   6.6810  0.00  0.00     0.000 OA
ATOM    151   O  IDS B   8      53.262  -3.306   8.4700  0.00  0.00     0.000 OA
ENDBRANCH 142 147
BRANCH 145 152
ATOM    152   C  IDS B   8      51.193  -9.202  10.2660  0.00  0.00     0.000 C
ATOM    153   O  IDS B   8      50.316 -10.047  10.4110  0.00  0.00     0.000 OA
ATOM    154   O  IDS B   8      51.879  -8.847  11.2060  0.00  0.00     0.000 OA
ENDBRANCH 145 152
ENDBRANCH 140 144
ENDBRANCH 120 140
ENDBRANCH 119 123
ENDBRANCH 103 119
ENDBRANCH 102 106
ENDBRANCH 82 102
ENDBRANCH 81 85
ENDBRANCH 65 81
ENDBRANCH 64 68
ENDBRANCH 41 64
ENDBRANCH 40 44
ENDBRANCH 24 40
ENDBRANCH 23 27
ENDBRANCH 1 23
TORSDOF 31
ENDMDL
MODEL 40
REMARK VINA RESULT:      -6.7     14.814     24.196
ROOT
ATOM      1  C1  SGN B   1      61.944   0.841  20.1530  0.00  0.00     0.000 C
ATOM      2  C2  SGN B   1      63.451   0.754  19.8590  0.00  0.00     0.000 C
ATOM      3  C3  SGN B   1      64.263   1.369  21.0040  0.00  0.00     0.000 C
ATOM      4  C4  SGN B   1      63.813   2.804  21.2570  0.00  0.00     0.000 C
ATOM      5  C5  SGN B   1      62.293   2.833  21.3980  0.00  0.00     0.000 C
ATOM      6  O5  SGN B   1      61.690   2.237  20.2330  0.00  0.00     0.000 O
ATOM      7   O  SGN B   1      65.654   1.327  20.7090  0.00  0.00     0.000 O
ATOM      9  HD  SGN B   1      65.352   1.818  20.0630  0.00  0.00     0.000 HD
ATOM      9   O  SGN B   1      64.423   3.287  22.4400  0.00  0.00     0.000 O
ATOM     11  HD  SGN B   1      64.120   3.778  21.7940  0.00  0.00     0.000 HD
ENDROOT
BRANCH 2 13
ATOM     11   N  SGN B   1      63.368   0.087  18.5460  0.00  0.00     0.000 N
ATOM     13  HD  SGN B   1      63.047  -0.294  19.2540  0.00  0.00     0.000 HD
ATOM     13   S  SGN B   1      63.335  -1.515  18.3960  0.00  0.00     0.000 S
ATOM     14   O  SGN B   1      63.344  -2.122  19.6700  0.00  0.00     0.000 OA
ATOM     15   O  SGN B   1      62.315  -1.859  17.4640  0.00  0.00     0.000 OA
ATOM     16   O  SGN B   1      64.703  -1.699  17.6700  0.00  0.00     0.000 OA
ENDBRANCH 2 13
BRANCH 5 17
ATOM     17   C  SGN B   1      61.716   4.219  21.5430  0.00  0.00     0.000 C
ATOM     18   O  SGN B   1      62.105   5.057  20.4360  0.00  0.00     0.000 O
ATOM     19   S  SGN B   1      62.606   6.528  20.8130  0.00  0.00     0.000 S
ATOM     20   O  SGN B   1      62.705   7.226  19.5490  0.00  0.00     0.000 OA
ATOM     21   O  SGN B   1      61.570   7.043  21.6780  0.00  0.00     0.000 OA
ATOM     22   O  SGN B   1      63.880   6.336  21.4700  0.00  0.00     0.000 OA
ENDBRANCH 5 17
BRANCH 1 23
ATOM     23  O4  IDS B   2      60.944   0.131  20.7490  0.00  0.00     0.000 O
BRANCH 23 27
ATOM     24  C1  IDS B   2      57.364  -1.691  21.7950  0.00  0.00     0.000 C
ATOM     25  C2  IDS B   2      58.421  -2.616  21.1510  0.00  0.00     0.000 C
ATOM     26  C3  IDS B   2      59.781  -1.927  21.0830  0.00  0.00     0.000 C
ATOM     27  C4  IDS B   2      59.744  -0.579  20.3770  0.00  0.00     0.000 C
ATOM     28  C5  IDS B   2      58.435   0.160  20.7200  0.00  0.00     0.000 C
ATOM     29  O5  IDS B   2      57.861  -0.352  21.9140  0.00  0.00     0.000 O
ATOM     30   O  IDS B   2      60.692  -2.759  20.3740  0.00  0.00     0.000 O
ATOM     32  HD  IDS B   2      60.595  -2.717  19.5150  0.00  0.00     0.000 HD
BRANCH 25 32
ATOM     32   O  IDS B   2      58.596  -3.881  21.9080  0.00  0.00     0.000 O
ATOM     33   S  IDS B   2      58.136  -5.339  21.2870  0.00  0.00     0.000 S
ATOM     34   O  IDS B   2      58.247  -6.296  22.3760  0.00  0.00     0.000 OA
ATOM     35   O  IDS B   2      56.768  -5.247  20.7970  0.00  0.00     0.000 OA
ATOM     36   O  IDS B   2      59.080  -5.629  20.2320  0.00  0.00     0.000 OA
ENDBRANCH 25 32
BRANCH 28 37
ATOM     37   C  IDS B   2      58.481   1.698  20.8240  0.00  0.00     0.000 C
ATOM     38   O  IDS B   2      58.348   2.244  19.7540  0.00  0.00     0.000 OA
ATOM     39   O  IDS B   2      58.574   2.382  21.8730  0.00  0.00     0.000 OA
ENDBRANCH 28 37
BRANCH 24 40
ATOM     40  O4  SUS B   3      56.080  -2.096  21.8830  0.00  0.00     0.000 O
BRANCH 40 44
ATOM     41  C1  SUS B   3      53.176  -1.285  24.7910  0.00  0.00     0.000 C
ATOM     42  C2  SUS B   3      53.712  -0.090  23.9780  0.00  0.00     0.000 C
ATOM     43  C3  SUS B   3      54.360  -0.605  22.6940  0.00  0.00     0.000 C
ATOM     44  C4  SUS B   3      55.421  -1.632  23.0570  0.00  0.00     0.000 C
ATOM     45  C5  SUS B   3      54.757  -2.793  23.7670  0.00  0.00     0.000 C
ATOM     46  O5  SUS B   3      54.169  -2.298  24.9870  0.00  0.00     0.000 O
BRANCH 42 49
ATOM     47   N  SUS B   3      52.544   0.806  23.9430  0.00  0.00     0.000 N
ATOM     49  HD  SUS B   3      52.196   0.959  23.1640  0.00  0.00     0.000 HD
ATOM     49   S  SUS B   3      52.826   2.217  24.6470  0.00  0.00     0.000 S
ATOM     50   O  SUS B   3      53.926   2.849  24.0310  0.00  0.00     0.000 OA
ATOM     51   O  SUS B   3      51.499   2.897  24.2240  0.00  0.00     0.000 OA
ATOM     52   O  SUS B   3      52.872   2.041  26.0440  0.00  0.00     0.000 OA
ENDBRANCH 42 49
BRANCH 43 53
ATOM     53   O  SUS B   3      54.985   0.542  22.0080  0.00  0.00     0.000 O
ATOM     54   S  SUS B   3      54.258   1.083  20.6370  0.00  0.00     0.000 S
ATOM     55   O  SUS B   3      53.016   1.734  21.0280  0.00  0.00     0.000 OA
ATOM     56   O  SUS B   3      55.235   1.985  20.0530  0.00  0.00     0.000 OA
ATOM     57   O  SUS B   3      53.999  -0.101  19.8110  0.00  0.00     0.000 OA
ENDBRANCH 43 53
BRANCH 45 58
ATOM     58   C  SUS B   3      55.736  -3.906  24.0720  0.00  0.00     0.000 C
ATOM     59   S  SUS B   3      57.458  -4.678  25.8120  0.00  0.00     0.000 S
ATOM     60   O  SUS B   3      56.257  -3.731  25.4010  0.00  0.00     0.000 O
ATOM     61   O  SUS B   3      58.628  -4.108  25.1710  0.00  0.00     0.000 OA
ATOM     62   O  SUS B   3      57.463  -4.500  27.2390  0.00  0.00     0.000 OA
ATOM     63   O  SUS B   3      57.090  -5.974  25.3630  0.00  0.00     0.000 OA
ENDBRANCH 45 58
BRANCH 41 64
ATOM     64  O4  IDS B   4      51.968  -1.762  24.3440  0.00  0.00     0.000 O
BRANCH 64 68
ATOM     65  C1  IDS B   4      48.749  -3.464  24.4540  0.00  0.00     0.000 C
ATOM     66  C2  IDS B   4      49.130  -2.461  25.5500  0.00  0.00     0.000 C
ATOM     67  C3  IDS B   4      50.533  -2.639  26.1040  0.00  0.00     0.000 C
ATOM     68  C4  IDS B   4      51.555  -2.963  25.0310  0.00  0.00     0.000 C
ATOM     69  C5  IDS B   4      50.948  -4.022  24.0990  0.00  0.00     0.000 C
ATOM     70  O5  IDS B   4      49.776  -3.487  23.4790  0.00  0.00     0.000 O
ATOM     71   O  IDS B   4      50.481  -3.689  27.0470  0.00  0.00     0.000 O
ATOM     73  HD  IDS B   4      50.152  -3.069  26.5410  0.00  0.00     0.000 HD
BRANCH 66 73
ATOM     73   O  IDS B   4      49.103  -1.106  24.9800  0.00  0.00     0.000 O
ATOM     74   S  IDS B   4      47.912  -0.113  25.4420  0.00  0.00     0.000 S
ATOM     75   O  IDS B   4      46.671  -0.792  25.1380  0.00  0.00     0.000 OA
ATOM     76   O  IDS B   4      48.161   1.048  24.6240  0.00  0.00     0.000 OA
ATOM     77   O  IDS B   4      48.115   0.101  26.8550  0.00  0.00     0.000 OA
ENDBRANCH 66 73
BRANCH 69 78
ATOM     78   C  IDS B   4      51.930  -4.615  23.0980  0.00  0.00     0.000 C
ATOM     79   O  IDS B   4      52.035  -4.089  21.9910  0.00  0.00     0.000 OA
ATOM     80   O  IDS B   4      52.669  -5.546  23.4680  0.00  0.00     0.000 OA
ENDBRANCH 69 78
BRANCH 65 81
ATOM     81  O4  SGN B   5      48.420  -4.656  25.0260  0.00  0.00     0.000 O
BRANCH 81 85
ATOM     82  C1  SGN B   5      45.715  -7.856  24.7480  0.00  0.00     0.000 C
ATOM     83  C2  SGN B   5      47.024  -7.978  23.9540  0.00  0.00     0.000 C
ATOM     84  C3  SGN B   5      48.059  -6.994  24.5150  0.00  0.00     0.000 C
ATOM     85  C4  SGN B   5      47.477  -5.591  24.4970  0.00  0.00     0.000 C
ATOM     86  C5  SGN B   5      46.200  -5.590  25.3340  0.00  0.00     0.000 C
ATOM     87  O5  SGN B   5      45.264  -6.515  24.7490  0.00  0.00     0.000 O
ATOM     88   O  SGN B   5      49.245  -7.059  23.7540  0.00  0.00     0.000 O
ATOM     90  HD  SGN B   5      49.124  -7.428  24.5290  0.00  0.00     0.000 HD
BRANCH 83 92
ATOM     90   N  SGN B   5      46.348  -9.252  23.6390  0.00  0.00     0.000 N
ATOM     92  HD  SGN B   5      45.515  -9.122  23.4410  0.00  0.00     0.000 HD
ATOM     92   S  SGN B   5      47.112 -10.295  22.6990  0.00  0.00     0.000 S
ATOM     93   O  SGN B   5      46.206 -11.399  22.5850  0.00  0.00     0.000 OA
ATOM     94   O  SGN B   5      47.494  -9.563  21.5410  0.00  0.00     0.000 OA
ATOM     95   O  SGN B   5      48.378 -10.638  23.4540  0.00  0.00     0.000 OA
ENDBRANCH 83 92
BRANCH 86 96
ATOM     96   C  SGN B   5      45.512  -4.243  25.4160  0.00  0.00     0.000 C
ATOM     97   O  SGN B   5      45.270  -3.723  24.1060  0.00  0.00     0.000 O
ATOM     98   S  SGN B   5      43.772  -3.233  23.8080  0.00  0.00     0.000 S
ATOM     99   O  SGN B   5      43.898  -2.592  22.5210  0.00  0.00     0.000 OA
ATOM    100   O  SGN B   5      42.938  -4.380  23.8190  0.00  0.00     0.000 OA
ATOM    101   O  SGN B   5      43.479  -2.322  24.8670  0.00  0.00     0.000 OA
ENDBRANCH 86 96
BRANCH 82 102
ATOM    102  O4  IDS B   6      45.831  -8.319  26.0250  0.00  0.00     0.000 O
BRANCH 102 106
ATOM    103  C1  IDS B   6      44.664 -10.650  28.5660  0.00  0.00     0.000 C
ATOM    104  C2  IDS B   6      44.504 -10.972  27.0720  0.00  0.00     0.000 C
ATOM    105  C3  IDS B   6      43.943  -9.843  26.2280  0.00  0.00     0.000 C
ATOM    106  C4  IDS B   6      44.514  -8.488  26.6080  0.00  0.00     0.000 C
ATOM    107  C5  IDS B   6      44.572  -8.359  28.1330  0.00  0.00     0.000 C
ATOM    108  O5  IDS B   6      45.332  -9.413  28.7270  0.00  0.00     0.000 O
ATOM    109   O  IDS B   6      42.531  -9.850  26.3640  0.00  0.00     0.000 O
ATOM    111  HD  IDS B   6      42.396 -10.255  27.1170  0.00  0.00     0.000 HD
BRANCH 104 111
ATOM    111   O  IDS B   6      45.827 -11.263  26.5000  0.00  0.00     0.000 O
ATOM    112   S  IDS B   6      46.151 -12.775  26.0850  0.00  0.00     0.000 S
ATOM    113   O  IDS B   6      45.985 -13.536  27.3140  0.00  0.00     0.000 OA
ATOM    114   O  IDS B   6      45.246 -13.163  24.9970  0.00  0.00     0.000 OA
ATOM    115   O  IDS B   6      47.530 -12.615  25.6760  0.00  0.00     0.000 OA
ENDBRANCH 104 111
BRANCH 107 116
ATOM    116   C  IDS B   6      45.180  -7.012  28.5020  0.00  0.00     0.000 C
ATOM    117   O  IDS B   6      46.302  -7.026  28.9410  0.00  0.00     0.000 OA
ATOM    118   O  IDS B   6      44.552  -5.974  28.3670  0.00  0.00     0.000 OA
ENDBRANCH 107 116
BRANCH 103 119
ATOM    119  O4  SGN B   7      43.421 -10.854  29.0730  0.00  0.00     0.000 O
BRANCH 119 123
ATOM    120  C1  SGN B   7      41.844 -11.967  32.7830  0.00  0.00     0.000 C
ATOM    121  C2  SGN B   7      42.041 -10.463  32.5140  0.00  0.00     0.000 C
ATOM    122  C3  SGN B   7      42.232 -10.206  31.0140  0.00  0.00     0.000 C
ATOM    123  C4  SGN B   7      43.356 -11.079  30.4820  0.00  0.00     0.000 C
ATOM    124  C5  SGN B   7      43.070 -12.554  30.8050  0.00  0.00     0.000 C
ATOM    125  O5  SGN B   7      42.898 -12.751  32.2270  0.00  0.00     0.000 O
ATOM    126   O  SGN B   7      42.511  -8.815  30.8120  0.00  0.00     0.000 O
ATOM    128  HD  SGN B   7      42.259  -9.444  31.3510  0.00  0.00     0.000 HD
BRANCH 121 130
ATOM    128   N  SGN B   7      41.167 -10.339  33.6830  0.00  0.00     0.000 N
ATOM    130  HD  SGN B   7      41.857 -10.268  34.2010  0.00  0.00     0.000 HD
ATOM    130   S  SGN B   7      40.955  -8.941  34.4530  0.00  0.00     0.000 S
ATOM    131   O  SGN B   7      40.635  -8.000  33.4350  0.00  0.00     0.000 OA
ATOM    132   O  SGN B   7      40.063  -9.158  35.5350  0.00  0.00     0.000 OA
ATOM    133   O  SGN B   7      42.359  -8.775  35.1260  0.00  0.00     0.000 OA
ENDBRANCH 121 130
BRANCH 124 134
ATOM    134   C  SGN B   7      44.180 -13.487  30.4210  0.00  0.00     0.000 C
ATOM    135   O  SGN B   7      45.007 -13.715  31.5750  0.00  0.00     0.000 O
ATOM    136   S  SGN B   7      46.143 -14.788  31.4220  0.00  0.00     0.000 S
ATOM    137   O  SGN B   7      46.893 -14.765  32.6550  0.00  0.00     0.000 OA
ATOM    138   O  SGN B   7      46.919 -14.358  30.2810  0.00  0.00     0.000 OA
ATOM    139   O  SGN B   7      45.389 -16.014  31.2100  0.00  0.00     0.000 OA
ENDBRANCH 124 134
BRANCH 120 140
ATOM    140  O4  IDS B   8      40.806 -12.736  32.4350  0.00  0.00     0.000 O
BRANCH 140 144
ATOM    141  C1  IDS B   8      38.004 -14.976  32.1280  0.00  0.00     0.000 C
ATOM    142  C2  IDS B   8      39.323 -15.232  31.3440  0.00  0.00     0.000 C
ATOM    143  C3  IDS B   8      39.837 -13.983  30.6040  0.00  0.00     0.000 C
ATOM    144  C4  IDS B   8      39.748 -12.727  31.4690  0.00  0.00     0.000 C
ATOM    145  C5  IDS B   8      38.386 -12.668  32.1780  0.00  0.00     0.000 C
ATOM    146  O5  IDS B   8      38.150 -13.834  32.9640  0.00  0.00     0.000 O
BRANCH 142 147
ATOM    147   O  IDS B   8      40.389 -15.653  32.2900  0.00  0.00     0.000 O
ATOM    148   S  IDS B   8      40.981 -17.163  32.2650  0.00  0.00     0.000 S
ATOM    149   O  IDS B   8      40.054 -17.984  31.5190  0.00  0.00     0.000 OA
ATOM    150   O  IDS B   8      42.279 -17.059  31.6270  0.00  0.00     0.000 OA
ATOM    151   O  IDS B   8      41.061 -17.564  33.6570  0.00  0.00     0.000 OA
ENDBRANCH 142 147
BRANCH 145 152
ATOM    152   C  IDS B   8      38.275 -11.494  33.1300  0.00  0.00     0.000 C
ATOM    153   O  IDS B   8      38.248 -11.697  34.3390  0.00  0.00     0.000 OA
ATOM    154   O  IDS B   8      38.234 -10.361  32.6860  0.00  0.00     0.000 OA
ENDBRANCH 145 152
ENDBRANCH 140 144
ENDBRANCH 120 140
ENDBRANCH 119 123
ENDBRANCH 103 119
ENDBRANCH 102 106
ENDBRANCH 82 102
ENDBRANCH 81 85
ENDBRANCH 65 81
ENDBRANCH 64 68
ENDBRANCH 41 64
ENDBRANCH 40 44
ENDBRANCH 24 40
ENDBRANCH 23 27
ENDBRANCH 1 23
TORSDOF 31
ENDMDL
MODEL 41
REMARK VINA RESULT:      -6.7      9.520     14.908
ROOT
ATOM      1  C1  SGN B   1      37.198   0.893  13.1460  0.00  0.00     0.000 C
ATOM      2  C2  SGN B   1      37.005   2.060  12.1630  0.00  0.00     0.000 C
ATOM      3  C3  SGN B   1      35.744   2.858  12.5100  0.00  0.00     0.000 C
ATOM      4  C4  SGN B   1      34.530   1.936  12.5470  0.00  0.00     0.000 C
ATOM      5  C5  SGN B   1      34.846   0.730  13.4280  0.00  0.00     0.000 C
ATOM      6  O5  SGN B   1      36.044   0.086  12.9530  0.00  0.00     0.000 O
ATOM      7   O  SGN B   1      35.544   3.909  11.5730  0.00  0.00     0.000 O
ATOM      9  HD  SGN B   1      35.503   3.210  11.0640  0.00  0.00     0.000 HD
ATOM      9   O  SGN B   1      33.418   2.642  13.0650  0.00  0.00     0.000 O
ATOM     11  HD  SGN B   1      33.376   1.942  12.5560  0.00  0.00     0.000 HD
ENDROOT
BRANCH 2 13
ATOM     11   N  SGN B   1      38.174   1.892  11.2790  0.00  0.00     0.000 N
ATOM     13  HD  SGN B   1      38.277   1.957  12.1370  0.00  0.00     0.000 HD
ATOM     13   S  SGN B   1      39.630   2.460  11.6620  0.00  0.00     0.000 S
ATOM     14   O  SGN B   1      39.597   3.060  12.9390  0.00  0.00     0.000 OA
ATOM     15   O  SGN B   1      40.594   1.448  11.3890  0.00  0.00     0.000 OA
ATOM     16   O  SGN B   1      39.755   3.531  10.5350  0.00  0.00     0.000 OA
ENDBRANCH 2 13
BRANCH 5 17
ATOM     17   C  SGN B   1      33.756  -0.314  13.4550  0.00  0.00     0.000 C
ATOM     18   O  SGN B   1      33.269  -0.583  12.1260  0.00  0.00     0.000 O
ATOM     19   S  SGN B   1      31.680  -0.658  11.9630  0.00  0.00     0.000 S
ATOM     20   O  SGN B   1      31.464  -1.164  10.6240  0.00  0.00     0.000 OA
ATOM     21   O  SGN B   1      31.262  -1.572  13.0000  0.00  0.00     0.000 OA
ATOM     22   O  SGN B   1      31.217   0.699  12.1520  0.00  0.00     0.000 OA
ENDBRANCH 5 17
BRANCH 1 23
ATOM     23  O4  IDS B   2      37.795   0.609  14.3390  0.00  0.00     0.000 O
BRANCH 23 27
ATOM     24  C1  IDS B   2      40.862  -0.502  16.9060  0.00  0.00     0.000 C
ATOM     25  C2  IDS B   2      41.113  -0.780  15.4080  0.00  0.00     0.000 C
ATOM     26  C3  IDS B   2      40.074  -0.073  14.5400  0.00  0.00     0.000 C
ATOM     27  C4  IDS B   2      38.638  -0.410  14.9170  0.00  0.00     0.000 C
ATOM     28  C5  IDS B   2      38.513  -0.548  16.4480  0.00  0.00     0.000 C
ATOM     29  O5  IDS B   2      39.583   0.114  17.1060  0.00  0.00     0.000 O
ATOM     30   O  IDS B   2      40.262  -0.453  13.1820  0.00  0.00     0.000 O
ATOM     32  HD  IDS B   2      39.932  -1.231  12.9960  0.00  0.00     0.000 HD
BRANCH 25 32
ATOM     32   O  IDS B   2      42.453  -0.318  14.9680  0.00  0.00     0.000 O
ATOM     33   S  IDS B   2      43.633  -1.378  14.5120  0.00  0.00     0.000 S
ATOM     34   O  IDS B   2      44.849  -0.593  14.3710  0.00  0.00     0.000 OA
ATOM     35   O  IDS B   2      43.780  -2.407  15.5310  0.00  0.00     0.000 OA
ATOM     36   O  IDS B   2      43.204  -1.917  13.2420  0.00  0.00     0.000 OA
ENDBRANCH 25 32
BRANCH 28 37
ATOM     37   C  IDS B   2      37.190  -0.106  17.1060  0.00  0.00     0.000 C
ATOM     38   O  IDS B   2      36.404  -1.015  17.2320  0.00  0.00     0.000 OA
ATOM     39   O  IDS B   2      36.912   1.035  17.5500  0.00  0.00     0.000 OA
ENDBRANCH 28 37
BRANCH 24 40
ATOM     40  O4  SUS B   3      41.636  -1.095  17.8390  0.00  0.00     0.000 O
BRANCH 40 44
ATOM     41  C1  SUS B   3      43.632   0.704  21.0520  0.00  0.00     0.000 C
ATOM     42  C2  SUS B   3      42.330  -0.060  21.3690  0.00  0.00     0.000 C
ATOM     43  C3  SUS B   3      42.019  -1.021  20.2240  0.00  0.00     0.000 C
ATOM     44  C4  SUS B   3      41.974  -0.236  18.9220  0.00  0.00     0.000 C
ATOM     45  C5  SUS B   3      43.332   0.389  18.6790  0.00  0.00     0.000 C
ATOM     46  O5  SUS B   3      43.604   1.309  19.7550  0.00  0.00     0.000 O
BRANCH 42 49
ATOM     47   N  SUS B   3      41.526   0.692  22.3480  0.00  0.00     0.000 N
ATOM     49  HD  SUS B   3      41.713   1.533  22.4370  0.00  0.00     0.000 HD
ATOM     49   S  SUS B   3      41.539   0.022  23.8030  0.00  0.00     0.000 S
ATOM     50   O  SUS B   3      42.866  -0.092  24.2670  0.00  0.00     0.000 OA
ATOM     51   O  SUS B   3      40.801   1.170  24.5360  0.00  0.00     0.000 OA
ATOM     52   O  SUS B   3      40.752  -1.146  23.7870  0.00  0.00     0.000 OA
ENDBRANCH 42 49
BRANCH 43 53
ATOM     53   O  SUS B   3      40.702  -1.632  20.4880  0.00  0.00     0.000 O
ATOM     54   S  SUS B   3      40.647  -3.270  20.6090  0.00  0.00     0.000 S
ATOM     55   O  SUS B   3      41.294  -3.637  21.8610  0.00  0.00     0.000 OA
ATOM     56   O  SUS B   3      39.228  -3.578  20.5710  0.00  0.00     0.000 OA
ATOM     57   O  SUS B   3      41.384  -3.797  19.4570  0.00  0.00     0.000 OA
ENDBRANCH 43 53
BRANCH 45 58
ATOM     58   C  SUS B   3      43.396   1.106  17.3480  0.00  0.00     0.000 C
ATOM     59   S  SUS B   3      42.805   3.327  16.2060  0.00  0.00     0.000 S
ATOM     60   O  SUS B   3      43.007   2.478  17.5280  0.00  0.00     0.000 O
ATOM     61   O  SUS B   3      41.511   2.924  15.6890  0.00  0.00     0.000 OA
ATOM     62   O  SUS B   3      42.799   4.661  16.7430  0.00  0.00     0.000 OA
ATOM     63   O  SUS B   3      43.915   3.010  15.3780  0.00  0.00     0.000 OA
ENDBRANCH 45 58
BRANCH 41 64
ATOM     64  O4  IDS B   4      44.773  -0.015  21.3120  0.00  0.00     0.000 O
BRANCH 64 68
ATOM     65  C1  IDS B   4      48.249  -0.746  22.1200  0.00  0.00     0.000 C
ATOM     66  C2  IDS B   4      47.385   0.067  23.0920  0.00  0.00     0.000 C
ATOM     67  C3  IDS B   4      46.576   1.173  22.4370  0.00  0.00     0.000 C
ATOM     68  C4  IDS B   4      45.976   0.758  21.1070  0.00  0.00     0.000 C
ATOM     69  C5  IDS B   4      47.054   0.009  20.3110  0.00  0.00     0.000 C
ATOM     70  O5  IDS B   4      47.444  -1.162  21.0320  0.00  0.00     0.000 O
ATOM     71   O  IDS B   4      47.444   2.272  22.2470  0.00  0.00     0.000 O
ATOM     73  HD  IDS B   4      47.190   1.519  22.5930  0.00  0.00     0.000 HD
BRANCH 66 73
ATOM     73   O  IDS B   4      46.397  -0.828  23.7090  0.00  0.00     0.000 O
ATOM     74   S  IDS B   4      46.385  -0.948  25.3220  0.00  0.00     0.000 S
ATOM     75   O  IDS B   4      47.719  -1.354  25.7130  0.00  0.00     0.000 OA
ATOM     76   O  IDS B   4      45.379  -1.957  25.5370  0.00  0.00     0.000 OA
ATOM     77   O  IDS B   4      46.023   0.364  25.8040  0.00  0.00     0.000 OA
ENDBRANCH 66 73
BRANCH 69 78
ATOM     78   C  IDS B   4      46.679  -0.283  18.8650  0.00  0.00     0.000 C
ATOM     79   O  IDS B   4      46.939   0.558  18.0050  0.00  0.00     0.000 OA
ATOM     80   O  IDS B   4      46.219  -1.405  18.5840  0.00  0.00     0.000 OA
ENDBRANCH 69 78
BRANCH 65 81
ATOM     81  O4  SGN B   5      49.375  -0.042  21.8170  0.00  0.00     0.000 O
BRANCH 81 85
ATOM     82  C1  SGN B   5      53.303  -0.486  20.4000  0.00  0.00     0.000 C
ATOM     83  C2  SGN B   5      52.211  -0.213  19.3550  0.00  0.00     0.000 C
ATOM     84  C3  SGN B   5      50.973   0.372  20.0470  0.00  0.00     0.000 C
ATOM     85  C4  SGN B   5      50.523  -0.571  21.1490  0.00  0.00     0.000 C
ATOM     86  C5  SGN B   5      51.677  -0.744  22.1330  0.00  0.00     0.000 C
ATOM     87  O5  SGN B   5      52.800  -1.313  21.4320  0.00  0.00     0.000 O
ATOM     88   O  SGN B   5      49.944   0.572  19.1020  0.00  0.00     0.000 O
ATOM     90  HD  SGN B   5      50.459   1.190  19.4220  0.00  0.00     0.000 HD
BRANCH 83 92
ATOM     90   N  SGN B   5      52.386  -0.831  18.0260  0.00  0.00     0.000 N
ATOM     92  HD  SGN B   5      51.635  -1.141  17.7260  0.00  0.00     0.000 HD
ATOM     92   S  SGN B   5      53.277  -0.057  16.9480  0.00  0.00     0.000 S
ATOM     93   O  SGN B   5      53.244  -0.899  15.7900  0.00  0.00     0.000 OA
ATOM     94   O  SGN B   5      52.748   1.262  16.8860  0.00  0.00     0.000 OA
ATOM     95   O  SGN B   5      54.649   0.036  17.5790  0.00  0.00     0.000 OA
ENDBRANCH 83 92
BRANCH 86 96
ATOM     96   C  SGN B   5      51.365  -1.657  23.3010  0.00  0.00     0.000 C
ATOM     97   O  SGN B   5      50.890  -2.923  22.8360  0.00  0.00     0.000 O
ATOM     98   S  SGN B   5      51.616  -4.217  23.4450  0.00  0.00     0.000 S
ATOM     99   O  SGN B   5      50.798  -5.300  22.9550  0.00  0.00     0.000 OA
ATOM    100   O  SGN B   5      52.952  -4.220  22.9670  0.00  0.00     0.000 OA
ATOM    101   O  SGN B   5      51.531  -4.039  24.8580  0.00  0.00     0.000 OA
ENDBRANCH 86 96
BRANCH 82 102
ATOM    102  O4  IDS B   6      53.827   0.659  20.9220  0.00  0.00     0.000 O
BRANCH 102 106
ATOM    103  C1  IDS B   6      56.447   3.078  21.6590  0.00  0.00     0.000 C
ATOM    104  C2  IDS B   6      56.264   2.527  20.2360  0.00  0.00     0.000 C
ATOM    105  C3  IDS B   6      56.106   1.021  20.1450  0.00  0.00     0.000 C
ATOM    106  C4  IDS B   6      55.226   0.456  21.2450  0.00  0.00     0.000 C
ATOM    107  C5  IDS B   6      55.578   1.118  22.5810  0.00  0.00     0.000 C
ATOM    108  O5  IDS B   6      55.460   2.540  22.5180  0.00  0.00     0.000 O
ATOM    109   O  IDS B   6      57.399   0.439  20.1840  0.00  0.00     0.000 O
ATOM    111  HD  IDS B   6      57.886   1.040  20.5730  0.00  0.00     0.000 HD
BRANCH 104 111
ATOM    111   O  IDS B   6      55.028   3.082  19.6630  0.00  0.00     0.000 O
ATOM    112   S  IDS B   6      55.147   3.984  18.3450  0.00  0.00     0.000 S
ATOM    113   O  IDS B   6      56.028   5.076  18.7280  0.00  0.00     0.000 OA
ATOM    114   O  IDS B   6      55.651   3.144  17.2520  0.00  0.00     0.000 OA
ATOM    115   O  IDS B   6      53.761   4.371  18.2010  0.00  0.00     0.000 OA
ENDBRANCH 104 111
BRANCH 107 116
ATOM    116   C  IDS B   6      54.666   0.571  23.6710  0.00  0.00     0.000 C
ATOM    117   O  IDS B   6      54.822  -0.583  23.9800  0.00  0.00     0.000 OA
ATOM    118   O  IDS B   6      53.813   1.270  24.1950  0.00  0.00     0.000 OA
ENDBRANCH 107 116
BRANCH 103 119
ATOM    119  O4  SGN B   7      57.771   2.898  21.9040  0.00  0.00     0.000 O
BRANCH 119 123
ATOM    120  C1  SGN B   7      60.555   4.664  24.4770  0.00  0.00     0.000 C
ATOM    121  C2  SGN B   7      59.937   3.321  24.9080  0.00  0.00     0.000 C
ATOM    122  C3  SGN B   7      59.272   2.626  23.7130  0.00  0.00     0.000 C
ATOM    123  C4  SGN B   7      58.285   3.574  23.0520  0.00  0.00     0.000 C
ATOM    124  C5  SGN B   7      58.994   4.882  22.6670  0.00  0.00     0.000 C
ATOM    125  O5  SGN B   7      59.604   5.502  23.8210  0.00  0.00     0.000 O
ATOM    126   O  SGN B   7      58.625   1.433  24.1690  0.00  0.00     0.000 O
ATOM    128  HD  SGN B   7      59.162   2.090  24.3410  0.00  0.00     0.000 HD
BRANCH 121 130
ATOM    128   N  SGN B   7      60.760   3.524  26.1030  0.00  0.00     0.000 N
ATOM    130  HD  SGN B   7      60.062   3.433  26.6080  0.00  0.00     0.000 HD
ATOM    130   S  SGN B   7      61.135   2.319  27.1030  0.00  0.00     0.000 S
ATOM    131   O  SGN B   7      61.641   1.285  26.2660  0.00  0.00     0.000 OA
ATOM    132   O  SGN B   7      61.929   2.842  28.1560  0.00  0.00     0.000 OA
ATOM    133   O  SGN B   7      59.737   2.050  27.7570  0.00  0.00     0.000 OA
ENDBRANCH 121 130
BRANCH 124 134
ATOM    134   C  SGN B   7      58.076   5.930  22.1100  0.00  0.00     0.000 C
ATOM    135   O  SGN B   7      57.130   6.298  23.1290  0.00  0.00     0.000 O
ATOM    136   S  SGN B   7      56.172   7.497  22.7950  0.00  0.00     0.000 S
ATOM    137   O  SGN B   7      55.260   7.610  23.9080  0.00  0.00     0.000 OA
ATOM    138   O  SGN B   7      55.516   7.125  21.5620  0.00  0.00     0.000 OA
ATOM    139   O  SGN B   7      57.098   8.612  22.6730  0.00  0.00     0.000 OA
ENDBRANCH 124 134
BRANCH 120 140
ATOM    140  O4  IDS B   8      61.603   4.867  23.6700  0.00  0.00     0.000 O
BRANCH 140 144
ATOM    141  C1  IDS B   8      64.342   5.989  21.6210  0.00  0.00     0.000 C
ATOM    142  C2  IDS B   8      63.012   5.500  20.9800  0.00  0.00     0.000 C
ATOM    143  C3  IDS B   8      62.526   4.155  21.5510  0.00  0.00     0.000 C
ATOM    144  C4  IDS B   8      62.654   4.099  23.0720  0.00  0.00     0.000 C
ATOM    145  C5  IDS B   8      64.022   4.645  23.5090  0.00  0.00     0.000 C
ATOM    146  O5  IDS B   8      64.232   5.974  23.0390  0.00  0.00     0.000 O
BRANCH 142 147
ATOM    147   O  IDS B   8      61.941   6.499  21.2370  0.00  0.00     0.000 O
ATOM    148   S  IDS B   8      61.474   7.539  20.0820  0.00  0.00     0.000 S
ATOM    149   O  IDS B   8      62.495   7.546  19.0590  0.00  0.00     0.000 OA
ATOM    150   O  IDS B   8      60.200   7.036  19.6010  0.00  0.00     0.000 OA
ATOM    151   O  IDS B   8      61.364   8.823  20.7470  0.00  0.00     0.000 OA
ENDBRANCH 142 147
BRANCH 145 152
ATOM    152   C  IDS B   8      64.171   4.707  25.0160  0.00  0.00     0.000 C
ATOM    153   O  IDS B   8      64.401   5.783  25.5570  0.00  0.00     0.000 OA
ATOM    154   O  IDS B   8      64.040   3.692  25.6760  0.00  0.00     0.000 OA
ENDBRANCH 145 152
ENDBRANCH 140 144
ENDBRANCH 120 140
ENDBRANCH 119 123
ENDBRANCH 103 119
ENDBRANCH 102 106
ENDBRANCH 82 102
ENDBRANCH 81 85
ENDBRANCH 65 81
ENDBRANCH 64 68
ENDBRANCH 41 64
ENDBRANCH 40 44
ENDBRANCH 24 40
ENDBRANCH 23 27
ENDBRANCH 1 23
TORSDOF 31
ENDMDL
MODEL 42
REMARK VINA RESULT:      -6.6     15.285     24.749
ROOT
ATOM      1  C1  SGN B   1      61.572   0.177  19.9490  0.00  0.00     0.000 C
ATOM      2  C2  SGN B   1      63.073   0.286  19.6330  0.00  0.00     0.000 C
ATOM      3  C3  SGN B   1      63.819   0.982  20.7760  0.00  0.00     0.000 C
ATOM      4  C4  SGN B   1      63.196   2.345  21.0580  0.00  0.00     0.000 C
ATOM      5  C5  SGN B   1      61.687   2.179  21.2210  0.00  0.00     0.000 C
ATOM      6  O5  SGN B   1      61.145   1.528  20.0550  0.00  0.00     0.000 O
ATOM      7   O  SGN B   1      65.200   1.121  20.4610  0.00  0.00     0.000 O
ATOM      9  HD  SGN B   1      64.828   1.579  19.8270  0.00  0.00     0.000 HD
ATOM      9   O  SGN B   1      63.758   2.884  22.2410  0.00  0.00     0.000 O
ATOM     11  HD  SGN B   1      63.386   3.342  21.6070  0.00  0.00     0.000 HD
ENDROOT
BRANCH 2 13
ATOM     11   N  SGN B   1      62.943  -0.385  18.3250  0.00  0.00     0.000 N
ATOM     13  HD  SGN B   1      62.812  -0.824  19.0600  0.00  0.00     0.000 HD
ATOM     13   S  SGN B   1      63.222  -1.958  18.1350  0.00  0.00     0.000 S
ATOM     14   O  SGN B   1      63.538  -2.549  19.3760  0.00  0.00     0.000 OA
ATOM     15   O  SGN B   1      62.172  -2.509  17.3450  0.00  0.00     0.000 OA
ATOM     16   O  SGN B   1      64.480  -1.853  17.2190  0.00  0.00     0.000 OA
ENDBRANCH 2 13
BRANCH 5 17
ATOM     17   C  SGN B   1      60.941   3.479  21.3970  0.00  0.00     0.000 C
ATOM     18   O  SGN B   1      61.417   4.475  20.4690  0.00  0.00     0.000 O
ATOM     19   S  SGN B   1      61.678   5.931  21.0760  0.00  0.00     0.000 S
ATOM     20   O  SGN B   1      61.912   6.780  19.9270  0.00  0.00     0.000 OA
ATOM     21   O  SGN B   1      60.459   6.241  21.7850  0.00  0.00     0.000 OA
ATOM     22   O  SGN B   1      62.835   5.782  21.9310  0.00  0.00     0.000 OA
ENDBRANCH 5 17
BRANCH 1 23
ATOM     23  O4  IDS B   2      60.680  -0.662  20.5480  0.00  0.00     0.000 O
BRANCH 23 27
ATOM     24  C1  IDS B   2      57.618  -3.273  21.5670  0.00  0.00     0.000 C
ATOM     25  C2  IDS B   2      58.903  -3.933  21.0200  0.00  0.00     0.000 C
ATOM     26  C3  IDS B   2      60.051  -2.928  20.9620  0.00  0.00     0.000 C
ATOM     27  C4  IDS B   2      59.715  -1.668  20.1750  0.00  0.00     0.000 C
ATOM     28  C5  IDS B   2      58.247  -1.267  20.4230  0.00  0.00     0.000 C
ATOM     29  O5  IDS B   2      57.758  -1.847  21.6230  0.00  0.00     0.000 O
ATOM     30   O  IDS B   2      61.175  -3.537  20.3390  0.00  0.00     0.000 O
ATOM     32  HD  IDS B   2      61.115  -3.564  19.4750  0.00  0.00     0.000 HD
BRANCH 25 32
ATOM     32   O  IDS B   2      59.349  -5.074  21.8580  0.00  0.00     0.000 O
ATOM     33   S  IDS B   2      59.188  -6.638  21.3560  0.00  0.00     0.000 S
ATOM     34   O  IDS B   2      59.514  -7.467  22.5060  0.00  0.00     0.000 OA
ATOM     35   O  IDS B   2      57.822  -6.865  20.9070  0.00  0.00     0.000 OA
ATOM     36   O  IDS B   2      60.153  -6.808  20.2950  0.00  0.00     0.000 OA
ENDBRANCH 25 32
BRANCH 28 37
ATOM     37   C  IDS B   2      57.903   0.236  20.4350  0.00  0.00     0.000 C
ATOM     38   O  IDS B   2      57.881   0.702  21.5510  0.00  0.00     0.000 OA
ATOM     39   O  IDS B   2      57.722   0.978  19.4390  0.00  0.00     0.000 OA
ENDBRANCH 28 37
BRANCH 24 40
ATOM     40  O4  SUS B   3      56.472  -3.983  21.6310  0.00  0.00     0.000 O
BRANCH 40 44
ATOM     41  C1  SUS B   3      53.269  -3.727  24.3170  0.00  0.00     0.000 C
ATOM     42  C2  SUS B   3      53.511  -2.518  23.3920  0.00  0.00     0.000 C
ATOM     43  C3  SUS B   3      54.359  -2.958  22.2010  0.00  0.00     0.000 C
ATOM     44  C4  SUS B   3      55.634  -3.606  22.7180  0.00  0.00     0.000 C
ATOM     45  C5  SUS B   3      55.267  -4.829  23.5330  0.00  0.00     0.000 C
ATOM     46  O5  SUS B   3      54.485  -4.397  24.6650  0.00  0.00     0.000 O
BRANCH 42 49
ATOM     47   N  SUS B   3      52.982  -1.575  24.3920  0.00  0.00     0.000 N
ATOM     49  HD  SUS B   3      52.596  -1.923  25.0850  0.00  0.00     0.000 HD
ATOM     49   S  SUS B   3      51.984  -0.495  23.7570  0.00  0.00     0.000 S
ATOM     50   O  SUS B   3      50.916  -1.150  23.1110  0.00  0.00     0.000 OA
ATOM     51   O  SUS B   3      51.515   0.126  25.0970  0.00  0.00     0.000 OA
ATOM     52   O  SUS B   3      52.725   0.440  23.0070  0.00  0.00     0.000 OA
ENDBRANCH 42 49
BRANCH 43 53
ATOM     53   O  SUS B   3      54.692  -1.757  21.4100  0.00  0.00     0.000 O
ATOM     54   S  SUS B   3      54.002  -1.623  19.9240  0.00  0.00     0.000 S
ATOM     55   O  SUS B   3      52.586  -1.348  20.1230  0.00  0.00     0.000 OA
ATOM     56   O  SUS B   3      54.728  -0.533  19.2960  0.00  0.00     0.000 OA
ATOM     57   O  SUS B   3      54.203  -2.912  19.2560  0.00  0.00     0.000 OA
ENDBRANCH 43 53
BRANCH 45 58
ATOM     58   C  SUS B   3      56.490  -5.587  24.0000  0.00  0.00     0.000 C
ATOM     59   S  SUS B   3      58.281  -5.621  25.8380  0.00  0.00     0.000 S
ATOM     60   O  SUS B   3      56.892  -5.094  25.2890  0.00  0.00     0.000 O
ATOM     61   O  SUS B   3      59.286  -4.857  25.1230  0.00  0.00     0.000 OA
ATOM     62   O  SUS B   3      58.181  -5.249  27.2230  0.00  0.00     0.000 OA
ATOM     63   O  SUS B   3      58.285  -7.018  25.5830  0.00  0.00     0.000 OA
ENDBRANCH 45 58
BRANCH 41 64
ATOM     64  O4  IDS B   4      52.270  -4.564  23.8840  0.00  0.00     0.000 O
BRANCH 64 68
ATOM     65  C1  IDS B   4      49.295  -6.667  23.9100  0.00  0.00     0.000 C
ATOM     66  C2  IDS B   4      49.179  -5.162  24.1840  0.00  0.00     0.000 C
ATOM     67  C3  IDS B   4      50.203  -4.623  25.1690  0.00  0.00     0.000 C
ATOM     68  C4  IDS B   4      51.583  -5.221  24.9720  0.00  0.00     0.000 C
ATOM     69  C5  IDS B   4      51.424  -6.734  24.7690  0.00  0.00     0.000 C
ATOM     70  O5  IDS B   4      50.642  -6.971  23.5950  0.00  0.00     0.000 O
ATOM     71   O  IDS B   4      49.733  -4.923  26.4670  0.00  0.00     0.000 O
ATOM     73  HD  IDS B   4      49.664  -4.811  25.6110  0.00  0.00     0.000 HD
BRANCH 66 73
ATOM     73   O  IDS B   4      49.421  -4.433  22.9310  0.00  0.00     0.000 O
ATOM     74   S  IDS B   4      48.189  -3.609  22.2840  0.00  0.00     0.000 S
ATOM     75   O  IDS B   4      47.114  -4.560  22.0940  0.00  0.00     0.000 OA
ATOM     76   O  IDS B   4      48.768  -3.125  21.0560  0.00  0.00     0.000 OA
ATOM     77   O  IDS B   4      47.873  -2.574  23.2400  0.00  0.00     0.000 OA
ENDBRANCH 66 73
BRANCH 69 78
ATOM     78   C  IDS B   4      52.733  -7.512  24.7760  0.00  0.00     0.000 C
ATOM     79   O  IDS B   4      53.600  -7.200  25.5900  0.00  0.00     0.000 OA
ATOM     80   O  IDS B   4      52.841  -8.503  24.0310  0.00  0.00     0.000 OA
ENDBRANCH 69 78
BRANCH 65 81
ATOM     81  O4  SGN B   5      48.734  -7.360  24.9390  0.00  0.00     0.000 O
BRANCH 81 85
ATOM     82  C1  SGN B   5      46.764 -10.932  25.9390  0.00  0.00     0.000 C
ATOM     83  C2  SGN B   5      48.170 -11.056  25.3320  0.00  0.00     0.000 C
ATOM     84  C3  SGN B   5      48.906  -9.716  25.4630  0.00  0.00     0.000 C
ATOM     85  C4  SGN B   5      48.073  -8.621  24.8200  0.00  0.00     0.000 C
ATOM     86  C5  SGN B   5      46.716  -8.579  25.5190  0.00  0.00     0.000 C
ATOM     87  O5  SGN B   5      46.067  -9.853  25.3450  0.00  0.00     0.000 O
ATOM     88   O  SGN B   5      50.177  -9.805  24.8570  0.00  0.00     0.000 O
ATOM     90  HD  SGN B   5      50.023  -9.844  25.7090  0.00  0.00     0.000 HD
BRANCH 83 92
ATOM     90   N  SGN B   5      47.799 -12.437  24.9640  0.00  0.00     0.000 N
ATOM     92  HD  SGN B   5      47.399 -12.457  24.1960  0.00  0.00     0.000 HD
ATOM     92   S  SGN B   5      48.879 -13.592  25.1960  0.00  0.00     0.000 S
ATOM     93   O  SGN B   5      48.226 -14.783  24.7430  0.00  0.00     0.000 OA
ATOM     94   O  SGN B   5      50.068 -13.143  24.5570  0.00  0.00     0.000 OA
ATOM     95   O  SGN B   5      49.137 -13.583  26.6870  0.00  0.00     0.000 OA
ENDBRANCH 83 92
BRANCH 86 96
ATOM     96   C  SGN B   5      45.776  -7.518  24.9850  0.00  0.00     0.000 C
ATOM     97   O  SGN B   5      44.576  -8.114  24.4870  0.00  0.00     0.000 O
ATOM     98   S  SGN B   5      43.201  -7.491  25.0270  0.00  0.00     0.000 S
ATOM     99   O  SGN B   5      42.211  -8.147  24.2080  0.00  0.00     0.000 OA
ATOM    100   O  SGN B   5      43.114  -7.787  26.4120  0.00  0.00     0.000 OA
ATOM    101   O  SGN B   5      43.317  -6.093  24.7640  0.00  0.00     0.000 OA
ENDBRANCH 86 96
BRANCH 82 102
ATOM    102  O4  IDS B   6      46.789 -10.792  27.2940  0.00  0.00     0.000 O
BRANCH 102 106
ATOM    103  C1  IDS B   6      44.608 -11.884  29.9980  0.00  0.00     0.000 C
ATOM    104  C2  IDS B   6      44.362 -12.349  28.5540  0.00  0.00     0.000 C
ATOM    105  C3  IDS B   6      44.407 -11.250  27.5090  0.00  0.00     0.000 C
ATOM    106  C4  IDS B   6      45.524 -10.252  27.7550  0.00  0.00     0.000 C
ATOM    107  C5  IDS B   6      45.590  -9.906  29.2450  0.00  0.00     0.000 C
ATOM    108  O5  IDS B   6      45.764 -11.070  30.0550  0.00  0.00     0.000 O
ATOM    109   O  IDS B   6      43.146 -10.602  27.4970  0.00  0.00     0.000 O
ATOM    111  HD  IDS B   6      42.818 -10.769  28.2810  0.00  0.00     0.000 HD
BRANCH 104 111
ATOM    111   O  IDS B   6      45.421 -13.295  28.1680  0.00  0.00     0.000 O
ATOM    112   S  IDS B   6      45.072 -14.409  27.0730  0.00  0.00     0.000 S
ATOM    113   O  IDS B   6      43.956 -15.147  27.6440  0.00  0.00     0.000 OA
ATOM    114   O  IDS B   6      44.775 -13.735  25.8030  0.00  0.00     0.000 OA
ATOM    115   O  IDS B   6      46.322 -15.138  27.0750  0.00  0.00     0.000 OA
ENDBRANCH 104 111
BRANCH 107 116
ATOM    116   C  IDS B   6      46.737  -8.933  29.4870  0.00  0.00     0.000 C
ATOM    117   O  IDS B   6      46.638  -7.843  28.9820  0.00  0.00     0.000 OA
ATOM    118   O  IDS B   6      47.710  -9.250  30.1520  0.00  0.00     0.000 OA
ENDBRANCH 107 116
BRANCH 103 119
ATOM    119  O4  SGN B   7      43.396 -11.420  30.3970  0.00  0.00     0.000 O
BRANCH 119 123
ATOM    120  C1  SGN B   7      41.541 -11.027  34.1240  0.00  0.00     0.000 C
ATOM    121  C2  SGN B   7      42.036  -9.742  33.4350  0.00  0.00     0.000 C
ATOM    122  C3  SGN B   7      42.310 -10.001  31.9480  0.00  0.00     0.000 C
ATOM    123  C4  SGN B   7      43.254 -11.182  31.7980  0.00  0.00     0.000 C
ATOM    124  C5  SGN B   7      42.676 -12.408  32.5230  0.00  0.00     0.000 C
ATOM    125  O5  SGN B   7      42.435 -12.120  33.9180  0.00  0.00     0.000 O
ATOM    126   O  SGN B   7      42.861  -8.815  31.3630  0.00  0.00     0.000 O
ATOM    128  HD  SGN B   7      42.478  -9.190  32.0430  0.00  0.00     0.000 HD
BRANCH 121 130
ATOM    128   N  SGN B   7      42.103  -8.867  34.6090  0.00  0.00     0.000 N
ATOM    130  HD  SGN B   7      42.541  -8.276  34.1520  0.00  0.00     0.000 HD
ATOM    130   S  SGN B   7      41.222  -7.525  34.7310  0.00  0.00     0.000 S
ATOM    131   O  SGN B   7      39.890  -7.925  34.4290  0.00  0.00     0.000 OA
ATOM    132   O  SGN B   7      41.521  -6.907  35.9720  0.00  0.00     0.000 OA
ATOM    133   O  SGN B   7      41.929  -6.626  33.6610  0.00  0.00     0.000 OA
ENDBRANCH 121 130
BRANCH 124 134
ATOM    134   C  SGN B   7      43.591 -13.597  32.5300  0.00  0.00     0.000 C
ATOM    135   O  SGN B   7      43.067 -14.584  31.6250  0.00  0.00     0.000 O
ATOM    136   S  SGN B   7      43.964 -15.848  31.3720  0.00  0.00     0.000 S
ATOM    137   O  SGN B   7      43.194 -16.730  30.5270  0.00  0.00     0.000 OA
ATOM    138   O  SGN B   7      44.218 -16.401  32.6830  0.00  0.00     0.000 OA
ATOM    139   O  SGN B   7      45.133 -15.277  30.7220  0.00  0.00     0.000 OA
ENDBRANCH 124 134
BRANCH 120 140
ATOM    140  O4  IDS B   8      40.382 -11.668  33.9370  0.00  0.00     0.000 O
BRANCH 140 144
ATOM    141  C1  IDS B   8      37.577 -13.735  33.0310  0.00  0.00     0.000 C
ATOM    142  C2  IDS B   8      38.106 -12.637  32.0650  0.00  0.00     0.000 C
ATOM    143  C3  IDS B   8      38.310 -11.274  32.7540  0.00  0.00     0.000 C
ATOM    144  C4  IDS B   8      38.983 -11.417  34.1180  0.00  0.00     0.000 C
ATOM    145  C5  IDS B   8      38.338 -12.565  34.9090  0.00  0.00     0.000 C
ATOM    146  O5  IDS B   8      38.396 -13.796  34.1930  0.00  0.00     0.000 O
BRANCH 142 147
ATOM    147   O  IDS B   8      39.423 -13.053  31.5160  0.00  0.00     0.000 O
ATOM    148   S  IDS B   8      39.652 -13.203  29.9170  0.00  0.00     0.000 S
ATOM    149   O  IDS B   8      38.350 -13.257  29.2910  0.00  0.00     0.000 OA
ATOM    150   O  IDS B   8      40.416 -12.035  29.5230  0.00  0.00     0.000 OA
ATOM    151   O  IDS B   8      40.383 -14.445  29.7510  0.00  0.00     0.000 OA
ENDBRANCH 142 147
BRANCH 145 152
ATOM    152   C  IDS B   8      39.029 -12.820  36.2340  0.00  0.00     0.000 C
ATOM    153   O  IDS B   8      39.462 -13.940  36.4830  0.00  0.00     0.000 OA
ATOM    154   O  IDS B   8      39.167 -11.907  37.0270  0.00  0.00     0.000 OA
ENDBRANCH 145 152
ENDBRANCH 140 144
ENDBRANCH 120 140
ENDBRANCH 119 123
ENDBRANCH 103 119
ENDBRANCH 102 106
ENDBRANCH 82 102
ENDBRANCH 81 85
ENDBRANCH 65 81
ENDBRANCH 64 68
ENDBRANCH 41 64
ENDBRANCH 40 44
ENDBRANCH 24 40
ENDBRANCH 23 27
ENDBRANCH 1 23
TORSDOF 31
ENDMDL
MODEL 43
REMARK VINA RESULT:      -6.6     15.523     24.723
ROOT
ATOM      1  C1  SGN B   1      62.057   1.371  21.1220  0.00  0.00     0.000 C
ATOM      2  C2  SGN B   1      63.017   0.693  20.1310  0.00  0.00     0.000 C
ATOM      3  C3  SGN B   1      64.444   0.666  20.6900  0.00  0.00     0.000 C
ATOM      4  C4  SGN B   1      64.896   2.078  21.0460  0.00  0.00     0.000 C
ATOM      5  C5  SGN B   1      63.828   2.740  21.9150  0.00  0.00     0.000 C
ATOM      6  O5  SGN B   1      62.559   2.696  21.2350  0.00  0.00     0.000 O
ATOM      7   O  SGN B   1      65.337   0.077  19.7520  0.00  0.00     0.000 O
ATOM      9  HD  SGN B   1      65.044   0.762  19.3100  0.00  0.00     0.000 HD
ATOM      9   O  SGN B   1      66.125   2.016  21.7460  0.00  0.00     0.000 O
ATOM     11  HD  SGN B   1      65.832   2.701  21.3040  0.00  0.00     0.000 HD
ENDROOT
BRANCH 2 13
ATOM     11   N  SGN B   1      62.110   0.340  19.0220  0.00  0.00     0.000 N
ATOM     13  HD  SGN B   1      61.932   0.091  19.8330  0.00  0.00     0.000 HD
ATOM     13   S  SGN B   1      61.191  -0.980  19.0510  0.00  0.00     0.000 S
ATOM     14   O  SGN B   1      61.360  -1.663  20.2740  0.00  0.00     0.000 OA
ATOM     15   O  SGN B   1      59.879  -0.625  18.6230  0.00  0.00     0.000 OA
ATOM     16   O  SGN B   1      61.867  -1.748  17.8740  0.00  0.00     0.000 OA
ENDBRANCH 2 13
BRANCH 5 17
ATOM     17   C  SGN B   1      64.113   4.185  22.2430  0.00  0.00     0.000 C
ATOM     18   O  SGN B   1      62.894   4.953  22.2830  0.00  0.00     0.000 O
ATOM     19   S  SGN B   1      62.929   6.365  21.5340  0.00  0.00     0.000 S
ATOM     20   O  SGN B   1      61.698   7.024  21.9160  0.00  0.00     0.000 OA
ATOM     21   O  SGN B   1      64.114   7.009  22.0520  0.00  0.00     0.000 OA
ATOM     22   O  SGN B   1      63.002   6.044  20.1260  0.00  0.00     0.000 OA
ENDBRANCH 5 17
BRANCH 1 23
ATOM     23  O4  IDS B   2      61.243   1.070  22.1740  0.00  0.00     0.000 O
BRANCH 23 27
ATOM     24  C1  IDS B   2      57.502  -0.284  23.3590  0.00  0.00     0.000 C
ATOM     25  C2  IDS B   2      57.525   0.572  22.0730  0.00  0.00     0.000 C
ATOM     26  C3  IDS B   2      58.954   0.761  21.5690  0.00  0.00     0.000 C
ATOM     27  C4  IDS B   2      59.896   1.338  22.6170  0.00  0.00     0.000 C
ATOM     28  C5  IDS B   2      59.555   0.763  24.0060  0.00  0.00     0.000 C
ATOM     29  O5  IDS B   2      58.825  -0.449  23.8880  0.00  0.00     0.000 O
ATOM     30   O  IDS B   2      58.945   1.653  20.4610  0.00  0.00     0.000 O
ATOM     32  HD  IDS B   2      58.884   2.486  20.6930  0.00  0.00     0.000 HD
BRANCH 25 32
ATOM     32   O  IDS B   2      56.741  -0.044  20.9750  0.00  0.00     0.000 O
ATOM     33   S  IDS B   2      55.466   0.733  20.2720  0.00  0.00     0.000 S
ATOM     34   O  IDS B   2      54.816  -0.247  19.4160  0.00  0.00     0.000 OA
ATOM     35   O  IDS B   2      54.563   1.217  21.3080  0.00  0.00     0.000 OA
ATOM     36   O  IDS B   2      56.043   1.808  19.4990  0.00  0.00     0.000 OA
ENDBRANCH 25 32
BRANCH 28 37
ATOM     37   C  IDS B   2      60.716   0.535  24.9960  0.00  0.00     0.000 C
ATOM     38   O  IDS B   2      61.003  -0.633  25.1200  0.00  0.00     0.000 OA
ATOM     39   O  IDS B   2      61.384   1.415  25.5920  0.00  0.00     0.000 OA
ENDBRANCH 28 37
BRANCH 24 40
ATOM     40  O4  SUS B   3      56.335  -0.507  23.9980  0.00  0.00     0.000 O
BRANCH 40 44
ATOM     41  C1  SUS B   3      55.011  -3.877  26.1050  0.00  0.00     0.000 C
ATOM     42  C2  SUS B   3      55.974  -2.921  26.8370  0.00  0.00     0.000 C
ATOM     43  C3  SUS B   3      55.962  -1.563  26.1390  0.00  0.00     0.000 C
ATOM     44  C4  SUS B   3      56.288  -1.762  24.6680  0.00  0.00     0.000 C
ATOM     45  C5  SUS B   3      55.223  -2.640  24.0440  0.00  0.00     0.000 C
ATOM     46  O5  SUS B   3      55.260  -3.926  24.6960  0.00  0.00     0.000 O
BRANCH 42 49
ATOM     47   N  SUS B   3      55.552  -3.055  28.2410  0.00  0.00     0.000 N
ATOM     49  HD  SUS B   3      55.232  -2.344  28.6190  0.00  0.00     0.000 HD
ATOM     49   S  SUS B   3      56.710  -3.640  29.1820  0.00  0.00     0.000 S
ATOM     50   O  SUS B   3      57.851  -2.815  29.1070  0.00  0.00     0.000 OA
ATOM     51   O  SUS B   3      55.971  -3.429  30.5280  0.00  0.00     0.000 OA
ATOM     52   O  SUS B   3      56.878  -5.013  28.9160  0.00  0.00     0.000 OA
ENDBRANCH 42 49
BRANCH 43 53
ATOM     53   O  SUS B   3      56.993  -0.717  26.7720  0.00  0.00     0.000 O
ATOM     54   S  SUS B   3      56.470   0.531  27.7050  0.00  0.00     0.000 S
ATOM     55   O  SUS B   3      55.904  -0.039  28.9190  0.00  0.00     0.000 OA
ATOM     56   O  SUS B   3      57.664   1.325  27.9320  0.00  0.00     0.000 OA
ATOM     57   O  SUS B   3      55.449   1.234  26.9220  0.00  0.00     0.000 OA
ENDBRANCH 43 53
BRANCH 45 58
ATOM     58   C  SUS B   3      55.424  -2.803  22.5530  0.00  0.00     0.000 C
ATOM     59   S  SUS B   3      56.826  -4.073  20.8180  0.00  0.00     0.000 S
ATOM     60   O  SUS B   3      56.329  -3.894  22.3110  0.00  0.00     0.000 O
ATOM     61   O  SUS B   3      57.844  -3.057  20.6330  0.00  0.00     0.000 OA
ATOM     62   O  SUS B   3      57.371  -5.403  20.8750  0.00  0.00     0.000 OA
ATOM     63   O  SUS B   3      55.666  -3.925  20.0120  0.00  0.00     0.000 OA
ENDBRANCH 45 58
BRANCH 41 64
ATOM     64  O4  IDS B   4      53.691  -3.691  26.4360  0.00  0.00     0.000 O
BRANCH 64 68
ATOM     65  C1  IDS B   4      50.197  -4.380  27.2060  0.00  0.00     0.000 C
ATOM     66  C2  IDS B   4      51.295  -4.739  28.2150  0.00  0.00     0.000 C
ATOM     67  C3  IDS B   4      52.492  -5.455  27.6110  0.00  0.00     0.000 C
ATOM     68  C4  IDS B   4      52.900  -4.889  26.2640  0.00  0.00     0.000 C
ATOM     69  C5  IDS B   4      51.629  -4.667  25.4340  0.00  0.00     0.000 C
ATOM     70  O5  IDS B   4      50.789  -3.721  26.1010  0.00  0.00     0.000 O
ATOM     71   O  IDS B   4      52.139  -6.816  27.4700  0.00  0.00     0.000 O
ATOM     73  HD  IDS B   4      52.064  -6.011  27.7810  0.00  0.00     0.000 HD
BRANCH 66 73
ATOM     73   O  IDS B   4      51.832  -3.499  28.7920  0.00  0.00     0.000 O
ATOM     74   S  IDS B   4      51.732  -3.303  30.3940  0.00  0.00     0.000 S
ATOM     75   O  IDS B   4      50.331  -3.432  30.7360  0.00  0.00     0.000 OA
ATOM     76   O  IDS B   4      52.256  -1.971  30.5630  0.00  0.00     0.000 OA
ATOM     77   O  IDS B   4      52.557  -4.343  30.9620  0.00  0.00     0.000 OA
ENDBRANCH 66 73
BRANCH 69 78
ATOM     78   C  IDS B   4      51.883  -4.309  23.9760  0.00  0.00     0.000 C
ATOM     79   O  IDS B   4      51.570  -3.187  23.5800  0.00  0.00     0.000 OA
ATOM     80   O  IDS B   4      52.495  -5.122  23.2610  0.00  0.00     0.000 OA
ENDBRANCH 69 78
BRANCH 65 81
ATOM     81  O4  SGN B   5      49.453  -5.487  26.9330  0.00  0.00     0.000 O
BRANCH 81 85
ATOM     82  C1  SGN B   5      45.494  -6.605  26.0850  0.00  0.00     0.000 C
ATOM     83  C2  SGN B   5      46.493  -6.636  24.9190  0.00  0.00     0.000 C
ATOM     84  C3  SGN B   5      47.925  -6.663  25.4700  0.00  0.00     0.000 C
ATOM     85  C4  SGN B   5      48.127  -5.478  26.3980  0.00  0.00     0.000 C
ATOM     86  C5  SGN B   5      47.099  -5.569  27.5220  0.00  0.00     0.000 C
ATOM     87  O5  SGN B   5      45.779  -5.519  26.9470  0.00  0.00     0.000 O
ATOM     88   O  SGN B   5      48.850  -6.634  24.4050  0.00  0.00     0.000 O
ATOM     90  HD  SGN B   5      48.626  -7.339  24.8560  0.00  0.00     0.000 HD
BRANCH 83 92
ATOM     90   N  SGN B   5      45.698  -7.690  24.2590  0.00  0.00     0.000 N
ATOM     92  HD  SGN B   5      45.054  -7.960  24.7710  0.00  0.00     0.000 HD
ATOM     92   S  SGN B   5      45.300  -7.481  22.7250  0.00  0.00     0.000 S
ATOM     93   O  SGN B   5      44.544  -8.651  22.3930  0.00  0.00     0.000 OA
ATOM     94   O  SGN B   5      44.694  -6.196  22.6550  0.00  0.00     0.000 OA
ATOM     95   O  SGN B   5      46.622  -7.398  21.9930  0.00  0.00     0.000 OA
ENDBRANCH 83 92
BRANCH 86 96
ATOM     96   C  SGN B   5      47.190  -4.449  28.5390  0.00  0.00     0.000 C
ATOM     97   O  SGN B   5      46.985  -3.182  27.9100  0.00  0.00     0.000 O
ATOM     98   S  SGN B   5      45.894  -2.224  28.5910  0.00  0.00     0.000 S
ATOM     99   O  SGN B   5      46.066  -0.985  27.8720  0.00  0.00     0.000 OA
ATOM    100   O  SGN B   5      44.625  -2.836  28.4240  0.00  0.00     0.000 OA
ATOM    101   O  SGN B   5      46.297  -2.145  29.9580  0.00  0.00     0.000 OA
ENDBRANCH 86 96
BRANCH 82 102
ATOM    102  O4  IDS B   6      45.469  -7.773  26.7860  0.00  0.00     0.000 O
BRANCH 102 106
ATOM    103  C1  IDS B   6      44.009 -10.746  28.2980  0.00  0.00     0.000 C
ATOM    104  C2  IDS B   6      43.812 -10.447  26.8040  0.00  0.00     0.000 C
ATOM    105  C3  IDS B   6      43.401  -9.023  26.4830  0.00  0.00     0.000 C
ATOM    106  C4  IDS B   6      44.140  -7.996  27.3220  0.00  0.00     0.000 C
ATOM    107  C5  IDS B   6      44.212  -8.472  28.7760  0.00  0.00     0.000 C
ATOM    108  O5  IDS B   6      44.829  -9.755  28.8870  0.00  0.00     0.000 O
ATOM    109   O  IDS B   6      42.000  -8.914  26.6720  0.00  0.00     0.000 O
ATOM    111  HD  IDS B   6      41.813  -9.558  27.2190  0.00  0.00     0.000 HD
BRANCH 104 111
ATOM    111   O  IDS B   6      45.088 -10.651  26.1010  0.00  0.00     0.000 O
ATOM    112   S  IDS B   6      45.169 -11.823  25.0130  0.00  0.00     0.000 S
ATOM    113   O  IDS B   6      44.831 -13.031  25.7500  0.00  0.00     0.000 OA
ATOM    114   O  IDS B   6      44.253 -11.500  23.9140  0.00  0.00     0.000 OA
ATOM    115   O  IDS B   6      46.569 -11.720  24.6640  0.00  0.00     0.000 OA
ENDBRANCH 104 111
BRANCH 107 116
ATOM    116   C  IDS B   6      44.987  -7.453  29.6020  0.00  0.00     0.000 C
ATOM    117   O  IDS B   6      46.077  -7.787  29.9920  0.00  0.00     0.000 OA
ATOM    118   O  IDS B   6      44.517  -6.356  29.8610  0.00  0.00     0.000 OA
ENDBRANCH 107 116
BRANCH 103 119
ATOM    119  O4  SGN B   7      42.750 -10.980  28.7480  0.00  0.00     0.000 O
BRANCH 119 123
ATOM    120  C1  SGN B   7      41.043 -12.756  32.1280  0.00  0.00     0.000 C
ATOM    121  C2  SGN B   7      41.397 -11.260  32.2110  0.00  0.00     0.000 C
ATOM    122  C3  SGN B   7      41.623 -10.682  30.8080  0.00  0.00     0.000 C
ATOM    123  C4  SGN B   7      42.653 -11.518  30.0680  0.00  0.00     0.000 C
ATOM    124  C5  SGN B   7      42.213 -12.991  30.0460  0.00  0.00     0.000 C
ATOM    125  O5  SGN B   7      42.014 -13.493  31.3860  0.00  0.00     0.000 O
ATOM    126   O  SGN B   7      42.045  -9.319  30.9270  0.00  0.00     0.000 O
ATOM    128  HD  SGN B   7      41.726 -10.026  31.3110  0.00  0.00     0.000 HD
BRANCH 121 130
ATOM    128   N  SGN B   7      40.854 -11.399  33.5640  0.00  0.00     0.000 N
ATOM    130  HD  SGN B   7      41.605 -11.130  33.9010  0.00  0.00     0.000 HD
ATOM    130   S  SGN B   7      40.462 -10.126  34.4680  0.00  0.00     0.000 S
ATOM    131   O  SGN B   7      39.639  -9.317  33.6350  0.00  0.00     0.000 OA
ATOM    132   O  SGN B   7      39.977 -10.596  35.7160  0.00  0.00     0.000 OA
ATOM    133   O  SGN B   7      41.886  -9.557  34.7860  0.00  0.00     0.000 OA
ENDBRANCH 121 130
BRANCH 124 134
ATOM    134   C  SGN B   7      43.224 -13.918  29.4360  0.00  0.00     0.000 C
ATOM    135   O  SGN B   7      44.412 -13.896  30.2450  0.00  0.00     0.000 O
ATOM    136   S  SGN B   7      45.539 -14.919  29.8610  0.00  0.00     0.000 S
ATOM    137   O  SGN B   7      46.655 -14.641  30.7330  0.00  0.00     0.000 OA
ATOM    138   O  SGN B   7      45.831 -14.656  28.4700  0.00  0.00     0.000 OA
ATOM    139   O  SGN B   7      44.898 -16.201  30.1100  0.00  0.00     0.000 OA
ENDBRANCH 124 134
BRANCH 120 140
ATOM    140  O4  IDS B   8      39.933 -13.313  31.6300  0.00  0.00     0.000 O
BRANCH 140 144
ATOM    141  C1  IDS B   8      37.194 -15.327  30.4460  0.00  0.00     0.000 C
ATOM    142  C2  IDS B   8      38.206 -14.690  29.4520  0.00  0.00     0.000 C
ATOM    143  C3  IDS B   8      38.454 -13.194  29.7200  0.00  0.00     0.000 C
ATOM    144  C4  IDS B   8      38.627 -12.900  31.2090  0.00  0.00     0.000 C
ATOM    145  C5  IDS B   8      37.553 -13.636  32.0230  0.00  0.00     0.000 C
ATOM    146  O5  IDS B   8      37.581 -15.041  31.7850  0.00  0.00     0.000 O
BRANCH 142 147
ATOM    147   O  IDS B   8      39.516 -15.381  29.5670  0.00  0.00     0.000 O
ATOM    148   S  IDS B   8      39.920 -16.582  28.5550  0.00  0.00     0.000 S
ATOM    149   O  IDS B   8      38.710 -17.035  27.9070  0.00  0.00     0.000 OA
ATOM    150   O  IDS B   8      40.871 -16.001  27.6250  0.00  0.00     0.000 OA
ATOM    151   O  IDS B   8      40.502 -17.611  29.3950  0.00  0.00     0.000 OA
ENDBRANCH 142 147
BRANCH 145 152
ATOM    152   C  IDS B   8      37.732 -13.463  33.5180  0.00  0.00     0.000 C
ATOM    153   O  IDS B   8      37.927 -14.448  34.2210  0.00  0.00     0.000 OA
ATOM    154   O  IDS B   8      37.702 -12.346  34.0020  0.00  0.00     0.000 OA
ENDBRANCH 145 152
ENDBRANCH 140 144
ENDBRANCH 120 140
ENDBRANCH 119 123
ENDBRANCH 103 119
ENDBRANCH 102 106
ENDBRANCH 82 102
ENDBRANCH 81 85
ENDBRANCH 65 81
ENDBRANCH 64 68
ENDBRANCH 41 64
ENDBRANCH 40 44
ENDBRANCH 24 40
ENDBRANCH 23 27
ENDBRANCH 1 23
TORSDOF 31
ENDMDL
MODEL 44
REMARK VINA RESULT:      -6.6     10.420     13.911
ROOT
ATOM      1  C1  SGN B   1      40.018  -2.611  20.5520  0.00  0.00     0.000 C
ATOM      2  C2  SGN B   1      41.060  -3.565  19.9450  0.00  0.00     0.000 C
ATOM      3  C3  SGN B   1      41.400  -3.154  18.5080  0.00  0.00     0.000 C
ATOM      4  C4  SGN B   1      40.130  -3.085  17.6660  0.00  0.00     0.000 C
ATOM      5  C5  SGN B   1      39.091  -2.238  18.3970  0.00  0.00     0.000 C
ATOM      6  O5  SGN B   1      38.878  -2.772  19.7180  0.00  0.00     0.000 O
ATOM      7   O  SGN B   1      42.331  -4.064  17.9340  0.00  0.00     0.000 O
ATOM      9  HD  SGN B   1      41.658  -4.583  18.1020  0.00  0.00     0.000 HD
ATOM      9   O  SGN B   1      40.431  -2.510  16.4070  0.00  0.00     0.000 O
ATOM     11  HD  SGN B   1      39.758  -3.029  16.5750  0.00  0.00     0.000 HD
ENDROOT
BRANCH 2 13
ATOM     11   N  SGN B   1      41.101  -4.324  21.2090  0.00  0.00     0.000 N
ATOM     13  HD  SGN B   1      41.478  -3.547  21.1500  0.00  0.00     0.000 HD
ATOM     13   S  SGN B   1      42.300  -4.164  22.2690  0.00  0.00     0.000 S
ATOM     14   O  SGN B   1      43.216  -3.188  21.8230  0.00  0.00     0.000 OA
ATOM     15   O  SGN B   1      41.736  -4.051  23.5720  0.00  0.00     0.000 OA
ATOM     16   O  SGN B   1      42.897  -5.600  22.1490  0.00  0.00     0.000 OA
ENDBRANCH 2 13
BRANCH 5 17
ATOM     17   C  SGN B   1      37.748  -2.186  17.7110  0.00  0.00     0.000 C
ATOM     18   O  SGN B   1      37.426  -3.457  17.1130  0.00  0.00     0.000 O
ATOM     19   S  SGN B   1      36.844  -3.404  15.6240  0.00  0.00     0.000 S
ATOM     20   O  SGN B   1      36.390  -4.751  15.3500  0.00  0.00     0.000 OA
ATOM     21   O  SGN B   1      35.774  -2.437  15.6980  0.00  0.00     0.000 OA
ATOM     22   O  SGN B   1      37.957  -2.988  14.7980  0.00  0.00     0.000 OA
ENDBRANCH 5 17
BRANCH 1 23
ATOM     23  O4  IDS B   2      39.940  -1.449  21.2600  0.00  0.00     0.000 O
BRANCH 23 27
ATOM     24  C1  IDS B   2      43.571   0.546  21.0030  0.00  0.00     0.000 C
ATOM     25  C2  IDS B   2      43.161   0.086  22.4190  0.00  0.00     0.000 C
ATOM     26  C3  IDS B   2      41.982  -0.880  22.3600  0.00  0.00     0.000 C
ATOM     27  C4  IDS B   2      40.781  -0.328  21.6040  0.00  0.00     0.000 C
ATOM     28  C5  IDS B   2      41.256   0.507  20.3980  0.00  0.00     0.000 C
ATOM     29  O5  IDS B   2      42.585   0.164  20.0350  0.00  0.00     0.000 O
ATOM     30   O  IDS B   2      41.556  -1.181  23.6830  0.00  0.00     0.000 O
ATOM     32  HD  IDS B   2      41.066  -0.559  24.0340  0.00  0.00     0.000 HD
BRANCH 25 32
ATOM     32   O  IDS B   2      44.269  -0.600  23.1290  0.00  0.00     0.000 O
ATOM     33   S  IDS B   2      44.808  -0.090  24.6030  0.00  0.00     0.000 S
ATOM     34   O  IDS B   2      46.022  -0.844  24.8730  0.00  0.00     0.000 OA
ATOM     35   O  IDS B   2      45.072   1.341  24.5520  0.00  0.00     0.000 OA
ATOM     36   O  IDS B   2      43.761  -0.424  25.5390  0.00  0.00     0.000 OA
ENDBRANCH 25 32
BRANCH 28 37
ATOM     37   C  IDS B   2      40.386   0.493  19.1240  0.00  0.00     0.000 C
ATOM     38   O  IDS B   2      41.003   0.158  18.1400  0.00  0.00     0.000 OA
ATOM     39   O  IDS B   2      39.154   0.723  19.0490  0.00  0.00     0.000 OA
ENDBRANCH 28 37
BRANCH 24 40
ATOM     40  O4  SUS B   3      44.554   1.457  20.8490  0.00  0.00     0.000 O
BRANCH 40 44
ATOM     41  C1  SUS B   3      47.431   1.637  17.8100  0.00  0.00     0.000 C
ATOM     42  C2  SUS B   3      46.264   2.642  17.7360  0.00  0.00     0.000 C
ATOM     43  C3  SUS B   3      45.615   2.761  19.1130  0.00  0.00     0.000 C
ATOM     44  C4  SUS B   3      45.209   1.375  19.5880  0.00  0.00     0.000 C
ATOM     45  C5  SUS B   3      46.450   0.514  19.7070  0.00  0.00     0.000 C
ATOM     46  O5  SUS B   3      47.040   0.391  18.3960  0.00  0.00     0.000 O
BRANCH 42 49
ATOM     47   N  SUS B   3      46.881   3.814  17.0920  0.00  0.00     0.000 N
ATOM     49  HD  SUS B   3      46.913   4.541  17.5620  0.00  0.00     0.000 HD
ATOM     49   S  SUS B   3      46.215   4.164  15.6780  0.00  0.00     0.000 S
ATOM     50   O  SUS B   3      44.833   4.386  15.8400  0.00  0.00     0.000 OA
ATOM     51   O  SUS B   3      46.961   5.505  15.4550  0.00  0.00     0.000 OA
ATOM     52   O  SUS B   3      46.615   3.208  14.7240  0.00  0.00     0.000 OA
ENDBRANCH 42 49
BRANCH 43 53
ATOM     53   O  SUS B   3      44.420   3.617  18.9800  0.00  0.00     0.000 O
ATOM     54   S  SUS B   3      44.501   5.124  19.6300  0.00  0.00     0.000 S
ATOM     55   O  SUS B   3      45.404   5.909  18.8000  0.00  0.00     0.000 OA
ATOM     56   O  SUS B   3      43.127   5.592  19.6050  0.00  0.00     0.000 OA
ATOM     57   O  SUS B   3      45.032   4.963  20.9870  0.00  0.00     0.000 OA
ENDBRANCH 43 53
BRANCH 45 58
ATOM     58   C  SUS B   3      46.138  -0.854  20.2710  0.00  0.00     0.000 C
ATOM     59   S  SUS B   3      46.324  -3.360  19.7460  0.00  0.00     0.000 S
ATOM     60   O  SUS B   3      46.728  -1.861  19.4310  0.00  0.00     0.000 O
ATOM     61   O  SUS B   3      44.999  -3.523  19.1790  0.00  0.00     0.000 OA
ATOM     62   O  SUS B   3      47.335  -4.070  19.0100  0.00  0.00     0.000 OA
ATOM     63   O  SUS B   3      46.400  -3.485  21.1590  0.00  0.00     0.000 OA
ENDBRANCH 45 58
BRANCH 41 64
ATOM     64  O4  IDS B   4      48.585   2.167  18.3340  0.00  0.00     0.000 O
BRANCH 64 68
ATOM     65  C1  IDS B   4      52.169   2.515  18.8910  0.00  0.00     0.000 C
ATOM     66  C2  IDS B   4      51.626   2.285  17.4750  0.00  0.00     0.000 C
ATOM     67  C3  IDS B   4      50.591   1.178  17.3720  0.00  0.00     0.000 C
ATOM     68  C4  IDS B   4      49.614   1.173  18.5330  0.00  0.00     0.000 C
ATOM     69  C5  IDS B   4      50.412   1.371  19.8290  0.00  0.00     0.000 C
ATOM     70  O5  IDS B   4      51.076   2.636  19.7840  0.00  0.00     0.000 O
ATOM     71   O  IDS B   4      51.291  -0.049  17.3330  0.00  0.00     0.000 O
ATOM     73  HD  IDS B   4      51.203   0.810  17.2670  0.00  0.00     0.000 HD
BRANCH 66 73
ATOM     73   O  IDS B   4      50.940   3.505  17.0270  0.00  0.00     0.000 O
ATOM     74   S  IDS B   4      51.258   4.049  15.5370  0.00  0.00     0.000 S
ATOM     75   O  IDS B   4      52.690   4.244  15.4690  0.00  0.00     0.000 OA
ATOM     76   O  IDS B   4      50.497   5.273  15.5010  0.00  0.00     0.000 OA
ATOM     77   O  IDS B   4      50.778   3.024  14.6420  0.00  0.00     0.000 OA
ENDBRANCH 66 73
BRANCH 69 78
ATOM     78   C  IDS B   4      49.603   1.171  21.1030  0.00  0.00     0.000 C
ATOM     79   O  IDS B   4      49.096   2.155  21.6420  0.00  0.00     0.000 OA
ATOM     80   O  IDS B   4      49.392   0.010  21.4990  0.00  0.00     0.000 OA
ENDBRANCH 69 78
BRANCH 65 81
ATOM     81  O4  SGN B   5      53.096   1.561  19.1820  0.00  0.00     0.000 O
BRANCH 81 85
ATOM     82  C1  SGN B   5      55.693   0.393  22.2690  0.00  0.00     0.000 C
ATOM     83  C2  SGN B   5      54.441  -0.469  22.0470  0.00  0.00     0.000 C
ATOM     84  C3  SGN B   5      53.876  -0.202  20.6450  0.00  0.00     0.000 C
ATOM     85  C4  SGN B   5      53.613   1.285  20.4860  0.00  0.00     0.000 C
ATOM     86  C5  SGN B   5      54.927   2.031  20.7050  0.00  0.00     0.000 C
ATOM     87  O5  SGN B   5      55.396   1.758  22.0390  0.00  0.00     0.000 O
ATOM     88   O  SGN B   5      52.694  -0.948  20.4540  0.00  0.00     0.000 O
ATOM     90  HD  SGN B   5      53.474  -1.153  20.1380  0.00  0.00     0.000 HD
BRANCH 83 92
ATOM     90   N  SGN B   5      54.636  -0.941  23.4310  0.00  0.00     0.000 N
ATOM     92  HD  SGN B   5      54.262  -0.404  23.9980  0.00  0.00     0.000 HD
ATOM     92   S  SGN B   5      54.425  -2.496  23.7320  0.00  0.00     0.000 S
ATOM     93   O  SGN B   5      54.677  -2.624  25.1360  0.00  0.00     0.000 OA
ATOM     94   O  SGN B   5      53.143  -2.821  23.2050  0.00  0.00     0.000 OA
ATOM     95   O  SGN B   5      55.456  -3.197  22.8740  0.00  0.00     0.000 OA
ENDBRANCH 83 92
BRANCH 86 96
ATOM     96   C  SGN B   5      54.818   3.535  20.5640  0.00  0.00     0.000 C
ATOM     97   O  SGN B   5      55.949   4.057  19.8630  0.00  0.00     0.000 O
ATOM     98   S  SGN B   5      55.628   5.025  18.6260  0.00  0.00     0.000 S
ATOM     99   O  SGN B   5      56.931   5.533  18.2720  0.00  0.00     0.000 OA
ATOM    100   O  SGN B   5      55.005   4.241  17.6210  0.00  0.00     0.000 OA
ATOM    101   O  SGN B   5      54.762   6.020  19.1700  0.00  0.00     0.000 OA
ENDBRANCH 86 96
BRANCH 82 102
ATOM    102  O4  IDS B   6      56.745  -0.000  21.4970  0.00  0.00     0.000 O
BRANCH 102 106
ATOM    103  C1  IDS B   6      60.108  -1.239  20.8550  0.00  0.00     0.000 C
ATOM    104  C2  IDS B   6      59.197  -1.934  21.8800  0.00  0.00     0.000 C
ATOM    105  C3  IDS B   6      58.500  -1.004  22.8540  0.00  0.00     0.000 C
ATOM    106  C4  IDS B   6      57.990   0.264  22.1930  0.00  0.00     0.000 C
ATOM    107  C5  IDS B   6      59.048   0.806  21.2280  0.00  0.00     0.000 C
ATOM    108  O5  IDS B   6      59.421  -0.163  20.2460  0.00  0.00     0.000 O
ATOM    109   O  IDS B   6      59.410  -0.696  23.8980  0.00  0.00     0.000 O
ATOM    111  HD  IDS B   6      60.188  -0.836  23.5440  0.00  0.00     0.000 HD
BRANCH 104 111
ATOM    111   O  IDS B   6      58.115  -2.629  21.1660  0.00  0.00     0.000 O
ATOM    112   S  IDS B   6      58.265  -4.204  20.9220  0.00  0.00     0.000 S
ATOM    113   O  IDS B   6      59.501  -4.342  20.1670  0.00  0.00     0.000 OA
ATOM    114   O  IDS B   6      58.265  -4.878  22.2250  0.00  0.00     0.000 OA
ATOM    115   O  IDS B   6      57.070  -4.434  20.1390  0.00  0.00     0.000 OA
ENDBRANCH 104 111
BRANCH 107 116
ATOM    116   C  IDS B   6      58.513   2.056  20.5420  0.00  0.00     0.000 C
ATOM    117   O  IDS B   6      58.064   1.916  19.4330  0.00  0.00     0.000 OA
ATOM    118   O  IDS B   6      58.548   3.146  21.0910  0.00  0.00     0.000 OA
ENDBRANCH 107 116
BRANCH 103 119
ATOM    119  O4  SGN B   7      61.266  -1.043  21.5370  0.00  0.00     0.000 O
BRANCH 119 123
ATOM    120  C1  SGN B   7      64.964   0.696  20.6470  0.00  0.00     0.000 C
ATOM    121  C2  SGN B   7      63.929   1.562  21.3910  0.00  0.00     0.000 C
ATOM    122  C3  SGN B   7      62.821   0.683  21.9860  0.00  0.00     0.000 C
ATOM    123  C4  SGN B   7      62.223  -0.196  20.9000  0.00  0.00     0.000 C
ATOM    124  C5  SGN B   7      63.333  -1.011  20.2170  0.00  0.00     0.000 C
ATOM    125  O5  SGN B   7      64.352  -0.144  19.6700  0.00  0.00     0.000 O
ATOM    126   O  SGN B   7      61.828   1.525  22.5830  0.00  0.00     0.000 O
ATOM    128  HD  SGN B   7      62.615   1.453  22.2270  0.00  0.00     0.000 HD
BRANCH 121 130
ATOM    128   N  SGN B   7      64.882   2.658  21.2000  0.00  0.00     0.000 N
ATOM    130  HD  SGN B   7      64.238   3.186  20.9630  0.00  0.00     0.000 HD
ATOM    130   S  SGN B   7      64.979   3.900  22.2200  0.00  0.00     0.000 S
ATOM    131   O  SGN B   7      65.079   3.313  23.5130  0.00  0.00     0.000 OA
ATOM    132   O  SGN B   7      65.986   4.783  21.7540  0.00  0.00     0.000 OA
ATOM    133   O  SGN B   7      63.631   4.631  21.9000  0.00  0.00     0.000 OA
ENDBRANCH 121 130
BRANCH 124 134
ATOM    134   C  SGN B   7      62.857  -1.825  19.0500  0.00  0.00     0.000 C
ATOM    135   O  SGN B   7      63.960  -2.603  18.5540  0.00  0.00     0.000 O
ATOM    136   S  SGN B   7      63.631  -3.643  17.4240  0.00  0.00     0.000 S
ATOM    137   O  SGN B   7      64.893  -4.217  17.0210  0.00  0.00     0.000 OA
ATOM    138   O  SGN B   7      63.000  -2.875  16.3750  0.00  0.00     0.000 OA
ATOM    139   O  SGN B   7      62.746  -4.575  18.1040  0.00  0.00     0.000 OA
ENDBRANCH 124 134
BRANCH 120 140
ATOM    140  O4  IDS B   8      65.827  -0.183  21.1680  0.00  0.00     0.000 O
BRANCH 140 144
ATOM    141  C1  IDS B   8      68.763  -2.253  20.9220  0.00  0.00     0.000 C
ATOM    142  C2  IDS B   8      67.586  -2.642  21.8620  0.00  0.00     0.000 C
ATOM    143  C3  IDS B   8      67.116  -1.478  22.7530  0.00  0.00     0.000 C
ATOM    144  C4  IDS B   8      67.011  -0.167  21.9750  0.00  0.00     0.000 C
ATOM    145  C5  IDS B   8      68.252   0.025  21.0900  0.00  0.00     0.000 C
ATOM    146  O5  IDS B   8      68.437  -1.072  20.1990  0.00  0.00     0.000 O
BRANCH 142 147
ATOM    147   O  IDS B   8      66.420  -3.070  21.0450  0.00  0.00     0.000 O
ATOM    148   S  IDS B   8      65.494  -4.321  21.5020  0.00  0.00     0.000 S
ATOM    149   O  IDS B   8      66.228  -5.069  22.4980  0.00  0.00     0.000 OA
ATOM    150   O  IDS B   8      64.277  -3.730  22.0270  0.00  0.00     0.000 OA
ATOM    151   O  IDS B   8      65.276  -5.095  20.2950  0.00  0.00     0.000 OA
ENDBRANCH 142 147
BRANCH 145 152
ATOM    152   C  IDS B   8      68.161   1.260  20.2180  0.00  0.00     0.000 C
ATOM    153   O  IDS B   8      68.254   1.149  19.0010  0.00  0.00     0.000 OA
ATOM    154   O  IDS B   8      67.976   2.348  20.7330  0.00  0.00     0.000 OA
ENDBRANCH 145 152
ENDBRANCH 140 144
ENDBRANCH 120 140
ENDBRANCH 119 123
ENDBRANCH 103 119
ENDBRANCH 102 106
ENDBRANCH 82 102
ENDBRANCH 81 85
ENDBRANCH 65 81
ENDBRANCH 64 68
ENDBRANCH 41 64
ENDBRANCH 40 44
ENDBRANCH 24 40
ENDBRANCH 23 27
ENDBRANCH 1 23
TORSDOF 31
ENDMDL
MODEL 45
REMARK VINA RESULT:      -6.6     10.931     13.951
ROOT
ATOM      1  C1  SGN B   1      40.368  -1.289  18.6160  0.00  0.00     0.000 C
ATOM      2  C2  SGN B   1      39.651  -2.387  19.4180  0.00  0.00     0.000 C
ATOM      3  C3  SGN B   1      39.138  -3.492  18.4890  0.00  0.00     0.000 C
ATOM      4  C4  SGN B   1      38.241  -2.897  17.4080  0.00  0.00     0.000 C
ATOM      5  C5  SGN B   1      38.963  -1.723  16.7510  0.00  0.00     0.000 C
ATOM      6  O5  SGN B   1      39.357  -0.774  17.7600  0.00  0.00     0.000 O
ATOM      7   O  SGN B   1      38.437  -4.484  19.2290  0.00  0.00     0.000 O
ATOM      9  HD  SGN B   1      37.961  -3.777  19.3860  0.00  0.00     0.000 HD
ATOM      9   O  SGN B   1      37.943  -3.890  16.4440  0.00  0.00     0.000 O
ATOM     11  HD  SGN B   1      37.468  -3.183  16.6010  0.00  0.00     0.000 HD
ENDROOT
BRANCH 2 13
ATOM     11   N  SGN B   1      39.727  -2.039  20.8500  0.00  0.00     0.000 N
ATOM     13  HD  SGN B   1      40.414  -1.932  20.3340  0.00  0.00     0.000 HD
ATOM     13   S  SGN B   1      41.106  -2.099  21.6760  0.00  0.00     0.000 S
ATOM     14   O  SGN B   1      42.168  -2.468  20.8240  0.00  0.00     0.000 OA
ATOM     15   O  SGN B   1      41.216  -0.912  22.4570  0.00  0.00     0.000 OA
ATOM     16   O  SGN B   1      40.732  -3.258  22.6510  0.00  0.00     0.000 OA
ENDBRANCH 2 13
BRANCH 5 17
ATOM     17   C  SGN B   1      38.130  -0.980  15.7360  0.00  0.00     0.000 C
ATOM     18   O  SGN B   1      36.732  -1.020  16.0880  0.00  0.00     0.000 O
ATOM     19   S  SGN B   1      35.718  -1.354  14.8980  0.00  0.00     0.000 S
ATOM     20   O  SGN B   1      34.401  -1.104  15.4460  0.00  0.00     0.000 OA
ATOM     21   O  SGN B   1      36.092  -0.436  13.8480  0.00  0.00     0.000 OA
ATOM     22   O  SGN B   1      35.957  -2.744  14.5770  0.00  0.00     0.000 OA
ENDBRANCH 5 17
BRANCH 1 23
ATOM     23  O4  IDS B   2      41.608  -0.963  18.1520  0.00  0.00     0.000 O
BRANCH 23 27
ATOM     24  C1  IDS B   2      45.389   0.737  17.9430  0.00  0.00     0.000 C
ATOM     25  C2  IDS B   2      44.535   1.157  19.1600  0.00  0.00     0.000 C
ATOM     26  C3  IDS B   2      43.307   0.262  19.2990  0.00  0.00     0.000 C
ATOM     27  C4  IDS B   2      42.454   0.201  18.0390  0.00  0.00     0.000 C
ATOM     28  C5  IDS B   2      43.358   0.212  16.7900  0.00  0.00     0.000 C
ATOM     29  O5  IDS B   2      44.679  -0.194  17.1160  0.00  0.00     0.000 O
ATOM     30   O  IDS B   2      42.485   0.756  20.3500  0.00  0.00     0.000 O
ATOM     32  HD  IDS B   2      42.001   1.435  20.1150  0.00  0.00     0.000 HD
BRANCH 25 32
ATOM     32   O  IDS B   2      45.294   1.077  20.4320  0.00  0.00     0.000 O
ATOM     33   S  IDS B   2      45.499   2.392  21.4090  0.00  0.00     0.000 S
ATOM     34   O  IDS B   2      46.464   1.997  22.4220  0.00  0.00     0.000 OA
ATOM     35   O  IDS B   2      45.987   3.512  20.6170  0.00  0.00     0.000 OA
ATOM     36   O  IDS B   2      44.202   2.651  21.9900  0.00  0.00     0.000 OA
ENDBRANCH 25 32
BRANCH 28 37
ATOM     37   C  IDS B   2      42.894  -0.589  15.5570  0.00  0.00     0.000 C
ATOM     38   O  IDS B   2      42.000  -0.043  14.9530  0.00  0.00     0.000 OA
ATOM     39   O  IDS B   2      43.385  -1.661  15.1240  0.00  0.00     0.000 OA
ENDBRANCH 28 37
BRANCH 24 40
ATOM     40  O4  SUS B   3      46.485   1.451  17.6110  0.00  0.00     0.000 O
BRANCH 40 44
ATOM     41  C1  SUS B   3      50.090  -0.321  16.4240  0.00  0.00     0.000 C
ATOM     42  C2  SUS B   3      49.507   0.773  15.5070  0.00  0.00     0.000 C
ATOM     43  C3  SUS B   3      48.509   1.614  16.3000  0.00  0.00     0.000 C
ATOM     44  C4  SUS B   3      47.462   0.693  16.9060  0.00  0.00     0.000 C
ATOM     45  C5  SUS B   3      48.146  -0.272  17.8530  0.00  0.00     0.000 C
ATOM     46  O5  SUS B   3      49.069  -1.074  17.0880  0.00  0.00     0.000 O
BRANCH 42 49
ATOM     47   N  SUS B   3      50.148   0.148  14.3380  0.00  0.00     0.000 N
ATOM     49  HD  SUS B   3      50.748  -0.455  14.5020  0.00  0.00     0.000 HD
ATOM     49   S  SUS B   3      50.784   1.222  13.3340  0.00  0.00     0.000 S
ATOM     50   O  SUS B   3      51.723   2.021  14.0180  0.00  0.00     0.000 OA
ATOM     51   O  SUS B   3      51.502   0.204  12.4130  0.00  0.00     0.000 OA
ATOM     52   O  SUS B   3      49.751   1.881  12.6390  0.00  0.00     0.000 OA
ENDBRANCH 42 49
BRANCH 43 53
ATOM     53   O  SUS B   3      47.866   2.558  15.3660  0.00  0.00     0.000 O
ATOM     54   S  SUS B   3      48.212   4.154  15.5560  0.00  0.00     0.000 S
ATOM     55   O  SUS B   3      49.590   4.355  15.1300  0.00  0.00     0.000 OA
ATOM     56   O  SUS B   3      47.235   4.828  14.7190  0.00  0.00     0.000 OA
ATOM     57   O  SUS B   3      48.049   4.446  16.9830  0.00  0.00     0.000 OA
ENDBRANCH 43 53
BRANCH 45 58
ATOM     58   C  SUS B   3      47.155  -1.159  18.5730  0.00  0.00     0.000 C
ATOM     59   S  SUS B   3      46.266  -3.565  18.6560  0.00  0.00     0.000 S
ATOM     60   O  SUS B   3      47.355  -2.524  18.1680  0.00  0.00     0.000 O
ATOM     61   O  SUS B   3      45.131  -3.367  17.7750  0.00  0.00     0.000 OA
ATOM     62   O  SUS B   3      46.952  -4.805  18.4090  0.00  0.00     0.000 OA
ATOM     63   O  SUS B   3      46.034  -3.261  20.0230  0.00  0.00     0.000 OA
ENDBRANCH 45 58
BRANCH 41 64
ATOM     64  O4  IDS B   4      51.088   0.126  17.2540  0.00  0.00     0.000 O
BRANCH 64 68
ATOM     65  C1  IDS B   4      54.307   0.428  18.9340  0.00  0.00     0.000 C
ATOM     66  C2  IDS B   4      54.146   0.901  17.4840  0.00  0.00     0.000 C
ATOM     67  C3  IDS B   4      53.419  -0.081  16.5810  0.00  0.00     0.000 C
ATOM     68  C4  IDS B   4      52.239  -0.747  17.2630  0.00  0.00     0.000 C
ATOM     69  C5  IDS B   4      52.677  -1.167  18.6720  0.00  0.00     0.000 C
ATOM     70  O5  IDS B   4      53.047  -0.004  19.4160  0.00  0.00     0.000 O
ATOM     71   O  IDS B   4      54.358  -1.060  16.1860  0.00  0.00     0.000 O
ATOM     73  HD  IDS B   4      54.104  -0.296  16.5030  0.00  0.00     0.000 HD
BRANCH 66 73
ATOM     73   O  IDS B   4      53.328   2.122  17.4730  0.00  0.00     0.000 O
ATOM     74   S  IDS B   4      53.977   3.464  16.8460  0.00  0.00     0.000 S
ATOM     75   O  IDS B   4      55.202   3.707  17.5770  0.00  0.00     0.000 OA
ATOM     76   O  IDS B   4      52.943   4.437  17.0930  0.00  0.00     0.000 OA
ATOM     77   O  IDS B   4      54.195   3.171  15.4490  0.00  0.00     0.000 OA
ENDBRANCH 66 73
BRANCH 69 78
ATOM     78   C  IDS B   4      51.673  -2.046  19.4070  0.00  0.00     0.000 C
ATOM     79   O  IDS B   4      51.163  -2.990  18.8060  0.00  0.00     0.000 OA
ATOM     80   O  IDS B   4      51.483  -1.845  20.6210  0.00  0.00     0.000 OA
ENDBRANCH 69 78
BRANCH 65 81
ATOM     81  O4  SGN B   5      55.332  -0.466  19.0080  0.00  0.00     0.000 O
BRANCH 81 85
ATOM     82  C1  SGN B   5      58.051  -2.116  21.7500  0.00  0.00     0.000 C
ATOM     83  C2  SGN B   5      56.836  -2.975  21.3690  0.00  0.00     0.000 C
ATOM     84  C3  SGN B   5      56.228  -2.452  20.0610  0.00  0.00     0.000 C
ATOM     85  C4  SGN B   5      55.892  -0.980  20.2190  0.00  0.00     0.000 C
ATOM     86  C5  SGN B   5      57.174  -0.230  20.5720  0.00  0.00     0.000 C
ATOM     87  O5  SGN B   5      57.686  -0.750  21.8140  0.00  0.00     0.000 O
ATOM     88   O  SGN B   5      55.077  -3.201  19.7340  0.00  0.00     0.000 O
ATOM     90  HD  SGN B   5      55.859  -3.297  19.3720  0.00  0.00     0.000 HD
BRANCH 83 92
ATOM     90   N  SGN B   5      56.280  -3.870  22.4020  0.00  0.00     0.000 N
ATOM     92  HD  SGN B   5      55.414  -3.872  22.3780  0.00  0.00     0.000 HD
ATOM     92   S  SGN B   5      56.954  -5.307  22.5940  0.00  0.00     0.000 S
ATOM     93   O  SGN B   5      56.195  -5.917  23.6440  0.00  0.00     0.000 OA
ATOM     94   O  SGN B   5      56.982  -5.896  21.3000  0.00  0.00     0.000 OA
ATOM     95   O  SGN B   5      58.385  -5.010  22.9870  0.00  0.00     0.000 OA
ENDBRANCH 83 92
BRANCH 86 96
ATOM     96   C  SGN B   5      56.991   1.263  20.7490  0.00  0.00     0.000 C
ATOM     97   O  SGN B   5      56.584   1.564  22.0860  0.00  0.00     0.000 O
ATOM     98   S  SGN B   5      57.433   2.693  22.8460  0.00  0.00     0.000 S
ATOM     99   O  SGN B   5      56.670   2.906  24.0520  0.00  0.00     0.000 OA
ATOM    100   O  SGN B   5      58.738   2.177  23.0530  0.00  0.00     0.000 OA
ATOM    101   O  SGN B   5      57.411   3.810  21.9580  0.00  0.00     0.000 OA
ENDBRANCH 86 96
BRANCH 82 102
ATOM    102  O4  IDS B   6      59.102  -2.287  20.9000  0.00  0.00     0.000 O
BRANCH 102 106
ATOM    103  C1  IDS B   6      62.539  -3.315  20.2740  0.00  0.00     0.000 C
ATOM    104  C2  IDS B   6      61.695  -4.010  21.3540  0.00  0.00     0.000 C
ATOM    105  C3  IDS B   6      60.945  -3.076  22.2830  0.00  0.00     0.000 C
ATOM    106  C4  IDS B   6      60.334  -1.891  21.5560  0.00  0.00     0.000 C
ATOM    107  C5  IDS B   6      61.337  -1.333  20.5420  0.00  0.00     0.000 C
ATOM    108  O5  IDS B   6      61.766  -2.331  19.6140  0.00  0.00     0.000 O
ATOM    109   O  IDS B   6      61.843  -2.640  23.2900  0.00  0.00     0.000 O
ATOM    111  HD  IDS B   6      62.625  -2.744  22.9320  0.00  0.00     0.000 HD
BRANCH 104 111
ATOM    111   O  IDS B   6      60.658  -4.824  20.7020  0.00  0.00     0.000 O
ATOM    112   S  IDS B   6      60.840  -6.415  20.6990  0.00  0.00     0.000 S
ATOM    113   O  IDS B   6      62.112  -6.636  20.0290  0.00  0.00     0.000 OA
ATOM    114   O  IDS B   6      60.788  -6.890  22.0870  0.00  0.00     0.000 OA
ATOM    115   O  IDS B   6      59.687  -6.781  19.9060  0.00  0.00     0.000 OA
ENDBRANCH 104 111
BRANCH 107 116
ATOM    116   C  IDS B   6      60.701  -0.169  19.7920  0.00  0.00     0.000 C
ATOM    117   O  IDS B   6      60.363  -0.377  18.6550  0.00  0.00     0.000 OA
ATOM    118   O  IDS B   6      60.554   0.922  20.3210  0.00  0.00     0.000 OA
ENDBRANCH 107 116
BRANCH 103 119
ATOM    119  O4  SGN B   7      63.688  -2.994  20.9210  0.00  0.00     0.000 O
BRANCH 119 123
ATOM    120  C1  SGN B   7      67.491  -1.777  19.6760  0.00  0.00     0.000 C
ATOM    121  C2  SGN B   7      66.551  -0.702  20.2520  0.00  0.00     0.000 C
ATOM    122  C3  SGN B   7      65.391  -1.354  21.0160  0.00  0.00     0.000 C
ATOM    123  C4  SGN B   7      64.694  -2.367  20.1240  0.00  0.00     0.000 C
ATOM    124  C5  SGN B   7      65.714  -3.389  19.5960  0.00  0.00     0.000 C
ATOM    125  O5  SGN B   7      66.786  -2.732  18.8830  0.00  0.00     0.000 O
ATOM    126   O  SGN B   7      64.487  -0.332  21.4520  0.00  0.00     0.000 O
ATOM    128  HD  SGN B   7      65.255  -0.537  21.1080  0.00  0.00     0.000 HD
BRANCH 121 130
ATOM    128   N  SGN B   7      67.635   0.072  20.8610  0.00  0.00     0.000 N
ATOM    130  HD  SGN B   7      68.035   0.128  20.0950  0.00  0.00     0.000 HD
ATOM    130   S  SGN B   7      67.811   1.652  20.6090  0.00  0.00     0.000 S
ATOM    131   O  SGN B   7      66.530   2.216  20.8710  0.00  0.00     0.000 OA
ATOM    132   O  SGN B   7      68.950   2.096  21.3280  0.00  0.00     0.000 OA
ATOM    133   O  SGN B   7      68.266   1.649  19.1100  0.00  0.00     0.000 OA
ENDBRANCH 121 130
BRANCH 124 134
ATOM    134   C  SGN B   7      65.141  -4.366  18.6120  0.00  0.00     0.000 C
ATOM    135   O  SGN B   7      65.351  -3.854  17.2840  0.00  0.00     0.000 O
ATOM    136   S  SGN B   7      64.958  -4.805  16.0980  0.00  0.00     0.000 S
ATOM    137   O  SGN B   7      65.156  -4.045  14.8860  0.00  0.00     0.000 OA
ATOM    138   O  SGN B   7      63.573  -5.147  16.3290  0.00  0.00     0.000 OA
ATOM    139   O  SGN B   7      65.888  -5.911  16.2620  0.00  0.00     0.000 OA
ENDBRANCH 124 134
BRANCH 120 140
ATOM    140  O4  IDS B   8      68.293  -2.613  20.3440  0.00  0.00     0.000 O
BRANCH 140 144
ATOM    141  C1  IDS B   8      70.901  -4.585  21.8510  0.00  0.00     0.000 C
ATOM    142  C2  IDS B   8      69.941  -5.202  20.7940  0.00  0.00     0.000 C
ATOM    143  C3  IDS B   8      68.457  -4.910  21.0830  0.00  0.00     0.000 C
ATOM    144  C4  IDS B   8      68.229  -3.458  21.5000  0.00  0.00     0.000 C
ATOM    145  C5  IDS B   8      69.289  -3.029  22.5260  0.00  0.00     0.000 C
ATOM    146  O5  IDS B   8      70.611  -3.203  22.0230  0.00  0.00     0.000 O
BRANCH 142 147
ATOM    147   O  IDS B   8      70.249  -4.635  19.4550  0.00  0.00     0.000 O
ATOM    148   S  IDS B   8      69.982  -5.491  18.1030  0.00  0.00     0.000 S
ATOM    149   O  IDS B   8      69.819  -6.875  18.4860  0.00  0.00     0.000 OA
ATOM    150   O  IDS B   8      68.782  -4.925  17.5170  0.00  0.00     0.000 OA
ATOM    151   O  IDS B   8      71.164  -5.291  17.2850  0.00  0.00     0.000 OA
ENDBRANCH 142 147
BRANCH 145 152
ATOM    152   C  IDS B   8      69.175  -1.566  22.9050  0.00  0.00     0.000 C
ATOM    153   O  IDS B   8      68.192  -1.177  23.5250  0.00  0.00     0.000 OA
ATOM    154   O  IDS B   8      70.071  -0.797  22.6070  0.00  0.00     0.000 OA
ENDBRANCH 145 152
ENDBRANCH 140 144
ENDBRANCH 120 140
ENDBRANCH 119 123
ENDBRANCH 103 119
ENDBRANCH 102 106
ENDBRANCH 82 102
ENDBRANCH 81 85
ENDBRANCH 65 81
ENDBRANCH 64 68
ENDBRANCH 41 64
ENDBRANCH 40 44
ENDBRANCH 24 40
ENDBRANCH 23 27
ENDBRANCH 1 23
TORSDOF 31
ENDMDL
MODEL 46
REMARK VINA RESULT:      -6.5     40.185     44.877
ROOT
ATOM      1  C1  SGN B   1       4.397 -11.600   9.6210  0.00  0.00     0.000 C
ATOM      2  C2  SGN B   1       5.237 -10.336   9.3730  0.00  0.00     0.000 C
ATOM      3  C3  SGN B   1       4.495  -9.365   8.4480  0.00  0.00     0.000 C
ATOM      4  C4  SGN B   1       4.116 -10.063   7.1460  0.00  0.00     0.000 C
ATOM      5  C5  SGN B   1       3.411 -11.377   7.4720  0.00  0.00     0.000 C
ATOM      6  O5  SGN B   1       4.251 -12.175   8.3300  0.00  0.00     0.000 O
ATOM      7   O  SGN B   1       5.294  -8.217   8.1850  0.00  0.00     0.000 O
ATOM      9  HD  SGN B   1       5.786  -8.852   7.8610  0.00  0.00     0.000 HD
ATOM      9   O  SGN B   1       3.260  -9.223   6.3940  0.00  0.00     0.000 O
ATOM     11  HD  SGN B   1       3.752  -9.858   6.0710  0.00  0.00     0.000 HD
ENDROOT
BRANCH 2 13
ATOM     11   N  SGN B   1       6.429 -10.661  10.1790  0.00  0.00     0.000 N
ATOM     13  HD  SGN B   1       5.643 -10.645  10.5420  0.00  0.00     0.000 HD
ATOM     13   S  SGN B   1       6.508 -10.354  11.7570  0.00  0.00     0.000 S
ATOM     14   O  SGN B   1       5.289  -9.806  12.2070  0.00  0.00     0.000 OA
ATOM     15   O  SGN B   1       7.044 -11.500  12.4110  0.00  0.00     0.000 OA
ATOM     16   O  SGN B   1       7.636  -9.277  11.7180  0.00  0.00     0.000 OA
ENDBRANCH 2 13
BRANCH 5 17
ATOM     17   C  SGN B   1       3.082 -12.215   6.2610  0.00  0.00     0.000 C
ATOM     18   O  SGN B   1       4.196 -13.056   5.8990  0.00  0.00     0.000 O
ATOM     19   S  SGN B   1       4.562 -13.104   4.3430  0.00  0.00     0.000 S
ATOM     20   O  SGN B   1       5.530 -14.173   4.2190  0.00  0.00     0.000 OA
ATOM     21   O  SGN B   1       3.303 -13.386   3.6930  0.00  0.00     0.000 OA
ATOM     22   O  SGN B   1       5.100 -11.796   4.0410  0.00  0.00     0.000 OA
ENDBRANCH 5 17
BRANCH 1 23
ATOM     23  O4  IDS B   2       3.455 -12.087  10.4780  0.00  0.00     0.000 O
BRANCH 23 27
ATOM     24  C1  IDS B   2       4.629 -13.624  14.1510  0.00  0.00     0.000 C
ATOM     25  C2  IDS B   2       4.877 -14.542  12.9330  0.00  0.00     0.000 C
ATOM     26  C3  IDS B   2       4.692 -13.776  11.6260  0.00  0.00     0.000 C
ATOM     27  C4  IDS B   2       3.339 -13.086  11.5130  0.00  0.00     0.000 C
ATOM     28  C5  IDS B   2       2.914 -12.533  12.8880  0.00  0.00     0.000 C
ATOM     29  O5  IDS B   2       4.036 -12.383  13.7440  0.00  0.00     0.000 O
ATOM     30   O  IDS B   2       4.805 -14.681  10.5330  0.00  0.00     0.000 O
ATOM     32  HD  IDS B   2       4.086 -15.145  10.3990  0.00  0.00     0.000 HD
BRANCH 25 32
ATOM     32   O  IDS B   2       6.247 -15.111  12.9290  0.00  0.00     0.000 O
ATOM     33   S  IDS B   2       6.515 -16.739  12.9200  0.00  0.00     0.000 S
ATOM     34   O  IDS B   2       7.941 -16.916  13.1450  0.00  0.00     0.000 OA
ATOM     35   O  IDS B   2       5.728 -17.365  13.9730  0.00  0.00     0.000 OA
ATOM     36   O  IDS B   2       6.130 -17.190  11.6030  0.00  0.00     0.000 OA
ENDBRANCH 25 32
BRANCH 28 37
ATOM     37   C  IDS B   2       2.103 -11.221  12.9170  0.00  0.00     0.000 C
ATOM     38   O  IDS B   2       1.127 -11.290  13.6270  0.00  0.00     0.000 OA
ATOM     39   O  IDS B   2       2.395 -10.139  12.3510  0.00  0.00     0.000 OA
ENDBRANCH 28 37
BRANCH 24 40
ATOM     40  O4  SUS B   3       4.679 -14.134  15.3990  0.00  0.00     0.000 O
BRANCH 40 44
ATOM     41  C1  SUS B   3       5.709 -12.304  19.0240  0.00  0.00     0.000 C
ATOM     42  C2  SUS B   3       4.284 -12.057  18.4890  0.00  0.00     0.000 C
ATOM     43  C3  SUS B   3       3.933 -13.141  17.4720  0.00  0.00     0.000 C
ATOM     44  C4  SUS B   3       5.003 -13.167  16.3920  0.00  0.00     0.000 C
ATOM     45  C5  SUS B   3       6.334 -13.508  17.0280  0.00  0.00     0.000 C
ATOM     46  O5  SUS B   3       6.664 -12.466  17.9700  0.00  0.00     0.000 O
BRANCH 42 49
ATOM     47   N  SUS B   3       3.121 -11.954  19.3870  0.00  0.00     0.000 N
ATOM     49  HD  SUS B   3       2.378 -12.294  19.0990  0.00  0.00     0.000 HD
ATOM     49   S  SUS B   3       2.831 -10.449  19.8530  0.00  0.00     0.000 S
ATOM     50   O  SUS B   3       2.633  -9.627  18.7240  0.00  0.00     0.000 OA
ATOM     51   O  SUS B   3       1.483 -10.736  20.5620  0.00  0.00     0.000 OA
ATOM     52   O  SUS B   3       3.810 -10.052  20.7850  0.00  0.00     0.000 OA
ENDBRANCH 42 49
BRANCH 43 53
ATOM     53   O  SUS B   3       2.626 -12.800  16.8770  0.00  0.00     0.000 O
ATOM     54   S  SUS B   3       1.406 -13.883  17.0770  0.00  0.00     0.000 S
ATOM     55   O  SUS B   3       1.008 -13.837  18.4770  0.00  0.00     0.000 OA
ATOM     56   O  SUS B   3       0.377 -13.427  16.1600  0.00  0.00     0.000 OA
ATOM     57   O  SUS B   3       1.954 -15.196  16.7240  0.00  0.00     0.000 OA
ENDBRANCH 43 53
BRANCH 45 58
ATOM     58   C  SUS B   3       7.435 -13.651  16.0000  0.00  0.00     0.000 C
ATOM     59   S  SUS B   3       9.978 -13.899  15.7640  0.00  0.00     0.000 S
ATOM     60   O  SUS B   3       8.677 -13.932  16.6660  0.00  0.00     0.000 O
ATOM     61   O  SUS B   3      10.279 -12.491  15.5840  0.00  0.00     0.000 OA
ATOM     62   O  SUS B   3      10.918 -14.563  16.6260  0.00  0.00     0.000 OA
ATOM     63   O  SUS B   3       9.637 -14.604  14.5790  0.00  0.00     0.000 OA
ENDBRANCH 45 58
BRANCH 41 64
ATOM     64  O4  IDS B   4       5.775 -13.273  19.9960  0.00  0.00     0.000 O
BRANCH 64 68
ATOM     65  C1  IDS B   4       5.932 -14.521  23.4150  0.00  0.00     0.000 C
ATOM     66  C2  IDS B   4       5.084 -13.288  23.0810  0.00  0.00     0.000 C
ATOM     67  C3  IDS B   4       5.785 -12.260  22.2100  0.00  0.00     0.000 C
ATOM     68  C4  IDS B   4       6.615 -12.890  21.1070  0.00  0.00     0.000 C
ATOM     69  C5  IDS B   4       7.401 -14.061  21.7100  0.00  0.00     0.000 C
ATOM     70  O5  IDS B   4       6.483 -15.034  22.2150  0.00  0.00     0.000 O
ATOM     71   O  IDS B   4       6.618 -11.492  23.0550  0.00  0.00     0.000 O
ATOM     73  HD  IDS B   4       5.969 -12.035  22.8710  0.00  0.00     0.000 HD
BRANCH 66 73
ATOM     73   O  IDS B   4       3.908 -13.717  22.3110  0.00  0.00     0.000 O
ATOM     74   S  IDS B   4       2.451 -13.544  22.9930  0.00  0.00     0.000 S
ATOM     75   O  IDS B   4       2.498 -14.263  24.2480  0.00  0.00     0.000 OA
ATOM     76   O  IDS B   4       1.589 -14.144  22.0060  0.00  0.00     0.000 OA
ATOM     77   O  IDS B   4       2.268 -12.122  23.1560  0.00  0.00     0.000 OA
ENDBRANCH 66 73
BRANCH 69 78
ATOM     78   C  IDS B   4       8.449 -14.661  20.7820  0.00  0.00     0.000 C
ATOM     79   O  IDS B   4       8.627 -15.878  20.8010  0.00  0.00     0.000 OA
ATOM     80   O  IDS B   4       9.014 -13.916  19.9620  0.00  0.00     0.000 OA
ENDBRANCH 69 78
BRANCH 65 81
ATOM     81  O4  SGN B   5       6.810 -14.212  24.4090  0.00  0.00     0.000 O
BRANCH 81 85
ATOM     82  C1  SGN B   5       8.837 -15.766  27.7430  0.00  0.00     0.000 C
ATOM     83  C2  SGN B   5       9.185 -16.366  26.3730  0.00  0.00     0.000 C
ATOM     84  C3  SGN B   5       8.734 -15.407  25.2620  0.00  0.00     0.000 C
ATOM     85  C4  SGN B   5       7.253 -15.113  25.4270  0.00  0.00     0.000 C
ATOM     86  C5  SGN B   5       7.036 -14.502  26.8090  0.00  0.00     0.000 C
ATOM     87  O5  SGN B   5       7.459 -15.452  27.8060  0.00  0.00     0.000 O
ATOM     88   O  SGN B   5       8.998 -15.977  23.9990  0.00  0.00     0.000 O
ATOM     90  HD  SGN B   5       9.474 -15.364  24.3830  0.00  0.00     0.000 HD
BRANCH 83 92
ATOM     90   N  SGN B   5      10.606 -16.665  26.6380  0.00  0.00     0.000 N
ATOM     92  HD  SGN B   5      10.904 -16.195  27.3010  0.00  0.00     0.000 HD
ATOM     92   S  SGN B   5      11.065 -18.196  26.6340  0.00  0.00     0.000 S
ATOM     93   O  SGN B   5      12.466 -18.147  26.9240  0.00  0.00     0.000 OA
ATOM     94   O  SGN B   5      10.177 -18.867  27.5200  0.00  0.00     0.000 OA
ATOM     95   O  SGN B   5      10.762 -18.685  25.2350  0.00  0.00     0.000 OA
ENDBRANCH 83 92
BRANCH 86 96
ATOM     96   C  SGN B   5       5.595 -14.143  27.1100  0.00  0.00     0.000 C
ATOM     97   O  SGN B   5       5.487 -13.547  28.4050  0.00  0.00     0.000 O
ATOM     98   S  SGN B   5       4.692 -12.156  28.4770  0.00  0.00     0.000 S
ATOM     99   O  SGN B   5       4.579 -11.928  29.8980  0.00  0.00     0.000 OA
ATOM    100   O  SGN B   5       5.461 -11.189  27.7810  0.00  0.00     0.000 OA
ATOM    101   O  SGN B   5       3.441 -12.429  27.8480  0.00  0.00     0.000 OA
ENDBRANCH 86 96
BRANCH 82 102
ATOM    102  O4  IDS B   6       9.588 -14.668  28.0410  0.00  0.00     0.000 O
BRANCH 102 106
ATOM    103  C1  IDS B   6      11.207 -13.509  31.0890  0.00  0.00     0.000 C
ATOM    104  C2  IDS B   6      10.521 -14.883  31.0380  0.00  0.00     0.000 C
ATOM    105  C3  IDS B   6       9.134 -14.886  30.4230  0.00  0.00     0.000 C
ATOM    106  C4  IDS B   6       9.033 -13.994  29.1990  0.00  0.00     0.000 C
ATOM    107  C5  IDS B   6       9.761 -12.672  29.4600  0.00  0.00     0.000 C
ATOM    108  O5  IDS B   6      11.127 -12.879  29.8250  0.00  0.00     0.000 O
ATOM    109   O  IDS B   6       8.209 -14.481  31.4190  0.00  0.00     0.000 O
ATOM    111  HD  IDS B   6       8.692 -14.034  31.9830  0.00  0.00     0.000 HD
BRANCH 104 111
ATOM    111   O  IDS B   6      11.320 -15.787  30.1960  0.00  0.00     0.000 O
ATOM    112   S  IDS B   6      12.103 -16.985  30.9120  0.00  0.00     0.000 S
ATOM    113   O  IDS B   6      12.978 -16.329  31.8720  0.00  0.00     0.000 OA
ATOM    114   O  IDS B   6      11.117 -17.897  31.5040  0.00  0.00     0.000 OA
ATOM    115   O  IDS B   6      12.796 -17.531  29.7640  0.00  0.00     0.000 OA
ENDBRANCH 104 111
BRANCH 107 116
ATOM    116   C  IDS B   6       9.686 -11.800  28.2140  0.00  0.00     0.000 C
ATOM    117   O  IDS B   6      10.730 -11.386  27.7770  0.00  0.00     0.000 OA
ATOM    118   O  IDS B   6       8.615 -11.528  27.6930  0.00  0.00     0.000 OA
ENDBRANCH 107 116
BRANCH 103 119
ATOM    119  O4  SGN B   7      10.685 -12.931  32.2010  0.00  0.00     0.000 O
BRANCH 119 123
ATOM    120  C1  SGN B   7      12.082 -10.454  35.2680  0.00  0.00     0.000 C
ATOM    121  C2  SGN B   7      11.712  -9.791  33.9280  0.00  0.00     0.000 C
ATOM    122  C3  SGN B   7      10.859 -10.739  33.0760  0.00  0.00     0.000 C
ATOM    123  C4  SGN B   7      11.568 -12.074  32.9270  0.00  0.00     0.000 C
ATOM    124  C5  SGN B   7      11.898 -12.649  34.3140  0.00  0.00     0.000 C
ATOM    125  O5  SGN B   7      12.703 -11.725  35.0800  0.00  0.00     0.000 O
ATOM    126   O  SGN B   7      10.618 -10.130  31.8020  0.00  0.00     0.000 O
ATOM    128  HD  SGN B   7      10.913 -10.049  32.6120  0.00  0.00     0.000 HD
BRANCH 121 130
ATOM    128   N  SGN B   7      11.356  -8.561  34.6390  0.00  0.00     0.000 N
ATOM    130  HD  SGN B   7      12.180  -8.454  34.8830  0.00  0.00     0.000 HD
ATOM    130   S  SGN B   7      11.758  -7.102  34.0880  0.00  0.00     0.000 S
ATOM    131   O  SGN B   7      11.331  -7.086  32.7310  0.00  0.00     0.000 OA
ATOM    132   O  SGN B   7      11.276  -6.131  35.0030  0.00  0.00     0.000 OA
ATOM    133   O  SGN B   7      13.307  -7.131  34.3200  0.00  0.00     0.000 OA
ENDBRANCH 121 130
BRANCH 124 134
ATOM    134   C  SGN B   7      12.703 -13.914  34.2710  0.00  0.00     0.000 C
ATOM    135   O  SGN B   7      13.247 -14.155  35.5800  0.00  0.00     0.000 O
ATOM    136   S  SGN B   7      13.999 -15.519  35.7860  0.00  0.00     0.000 S
ATOM    137   O  SGN B   7      14.538 -15.488  37.1240  0.00  0.00     0.000 OA
ATOM    138   O  SGN B   7      15.023 -15.543  34.7660  0.00  0.00     0.000 OA
ATOM    139   O  SGN B   7      12.937 -16.494  35.5970  0.00  0.00     0.000 OA
ENDBRANCH 124 134
BRANCH 120 140
ATOM    140  O4  IDS B   8      11.268 -10.768  36.2830  0.00  0.00     0.000 O
BRANCH 140 144
ATOM    141  C1  IDS B   8      10.957  -9.578  39.6670  0.00  0.00     0.000 C
ATOM    142  C2  IDS B   8      12.352  -9.718  38.9940  0.00  0.00     0.000 C
ATOM    143  C3  IDS B   8      12.557 -11.081  38.3060  0.00  0.00     0.000 C
ATOM    144  C4  IDS B   8      11.327 -11.510  37.5080  0.00  0.00     0.000 C
ATOM    145  C5  IDS B   8      10.051 -11.272  38.3300  0.00  0.00     0.000 C
ATOM    146  O5  IDS B   8       9.933  -9.911  38.7370  0.00  0.00     0.000 O
BRANCH 142 147
ATOM    147   O  IDS B   8      12.506  -8.671  37.9490  0.00  0.00     0.000 O
ATOM    148   S  IDS B   8      13.767  -7.651  37.9680  0.00  0.00     0.000 S
ATOM    149   O  IDS B   8      14.363  -7.715  39.2830  0.00  0.00     0.000 OA
ATOM    150   O  IDS B   8      14.659  -8.120  36.9230  0.00  0.00     0.000 OA
ATOM    151   O  IDS B   8      13.204  -6.343  37.6910  0.00  0.00     0.000 OA
ENDBRANCH 142 147
BRANCH 145 152
ATOM    152   C  IDS B   8       8.789 -11.586  37.5530  0.00  0.00     0.000 C
ATOM    153   O  IDS B   8       7.844 -10.807  37.5960  0.00  0.00     0.000 OA
ATOM    154   O  IDS B   8       8.734 -12.599  36.8790  0.00  0.00     0.000 OA
ENDBRANCH 145 152
ENDBRANCH 140 144
ENDBRANCH 120 140
ENDBRANCH 119 123
ENDBRANCH 103 119
ENDBRANCH 102 106
ENDBRANCH 82 102
ENDBRANCH 81 85
ENDBRANCH 65 81
ENDBRANCH 64 68
ENDBRANCH 41 64
ENDBRANCH 40 44
ENDBRANCH 24 40
ENDBRANCH 23 27
ENDBRANCH 1 23
TORSDOF 31
ENDMDL
MODEL 47
REMARK VINA RESULT:      -6.5     40.337     46.195
ROOT
ATOM      1  C1  SGN B   1       5.702  -8.965   6.8370  0.00  0.00     0.000 C
ATOM      2  C2  SGN B   1       6.733  -7.849   7.0700  0.00  0.00     0.000 C
ATOM      3  C3  SGN B   1       6.808  -6.917   5.8560  0.00  0.00     0.000 C
ATOM      4  C4  SGN B   1       7.111  -7.719   4.5940  0.00  0.00     0.000 C
ATOM      5  C5  SGN B   1       6.138  -8.892   4.5030  0.00  0.00     0.000 C
ATOM      6  O5  SGN B   1       6.209  -9.672   5.7120  0.00  0.00     0.000 O
ATOM      7   O  SGN B   1       7.794  -5.912   6.0570  0.00  0.00     0.000 O
ATOM      9  HD  SGN B   1       8.269  -6.635   6.0940  0.00  0.00     0.000 HD
ATOM      9   O  SGN B   1       6.974  -6.882   3.4610  0.00  0.00     0.000 O
ATOM     11  HD  SGN B   1       7.450  -7.605   3.4970  0.00  0.00     0.000 HD
ENDROOT
BRANCH 2 13
ATOM     11   N  SGN B   1       7.082  -8.342   8.4160  0.00  0.00     0.000 N
ATOM     13  HD  SGN B   1       6.303  -7.996   8.2620  0.00  0.00     0.000 HD
ATOM     13   S  SGN B   1       6.431  -7.726   9.7520  0.00  0.00     0.000 S
ATOM     14   O  SGN B   1       5.487  -6.732   9.4190  0.00  0.00     0.000 OA
ATOM     15   O  SGN B   1       6.044  -8.802  10.6020  0.00  0.00     0.000 OA
ATOM     16   O  SGN B   1       7.723  -7.101  10.3620  0.00  0.00     0.000 OA
ENDBRANCH 2 13
BRANCH 5 17
ATOM     17   C  SGN B   1       6.408  -9.826   3.3490  0.00  0.00     0.000 C
ATOM     18   O  SGN B   1       5.324 -10.760   3.1780  0.00  0.00     0.000 O
ATOM     19   S  SGN B   1       5.744 -12.286   2.9470  0.00  0.00     0.000 S
ATOM     20   O  SGN B   1       4.518 -12.960   2.5740  0.00  0.00     0.000 OA
ATOM     21   O  SGN B   1       6.718 -12.227   1.8820  0.00  0.00     0.000 OA
ATOM     22   O  SGN B   1       6.284 -12.726   4.2150  0.00  0.00     0.000 OA
ENDBRANCH 5 17
BRANCH 1 23
ATOM     23  O4  IDS B   2       4.376  -9.230   7.0170  0.00  0.00     0.000 O
BRANCH 23 27
ATOM     24  C1  IDS B   2       3.018 -10.902  10.5660  0.00  0.00     0.000 C
ATOM     25  C2  IDS B   2       3.762 -11.866   9.6160  0.00  0.00     0.000 C
ATOM     26  C3  IDS B   2       4.468 -11.098   8.5020  0.00  0.00     0.000 C
ATOM     27  C4  IDS B   2       3.543 -10.177   7.7180  0.00  0.00     0.000 C
ATOM     28  C5  IDS B   2       2.509  -9.538   8.6660  0.00  0.00     0.000 C
ATOM     29  O5  IDS B   2       2.960  -9.581  10.0120  0.00  0.00     0.000 O
ATOM     30   O  IDS B   2       5.034 -12.024   7.5810  0.00  0.00     0.000 O
ATOM     32  HD  IDS B   2       4.455 -12.353   7.0280  0.00  0.00     0.000 HD
BRANCH 25 32
ATOM     32   O  IDS B   2       4.787 -12.672  10.3240  0.00  0.00     0.000 O
ATOM     33   S  IDS B   2       4.686 -14.316  10.4250  0.00  0.00     0.000 S
ATOM     34   O  IDS B   2       5.716 -14.729  11.3650  0.00  0.00     0.000 OA
ATOM     35   O  IDS B   2       3.359 -14.693  10.8910  0.00  0.00     0.000 OA
ATOM     36   O  IDS B   2       4.961 -14.806   9.0940  0.00  0.00     0.000 OA
ENDBRANCH 25 32
BRANCH 28 37
ATOM     37   C  IDS B   2       2.040  -8.101   8.3570  0.00  0.00     0.000 C
ATOM     38   O  IDS B   2       0.857  -8.038   8.1150  0.00  0.00     0.000 OA
ATOM     39   O  IDS B   2       2.732  -7.055   8.4000  0.00  0.00     0.000 OA
ENDBRANCH 28 37
BRANCH 24 40
ATOM     40  O4  SUS B   3       2.275 -11.395  11.5790  0.00  0.00     0.000 O
BRANCH 40 44
ATOM     41  C1  SUS B   3       2.020  -9.945  15.5000  0.00  0.00     0.000 C
ATOM     42  C2  SUS B   3       0.823  -9.670  14.5680  0.00  0.00     0.000 C
ATOM     43  C3  SUS B   3       0.866 -10.646  13.3930  0.00  0.00     0.000 C
ATOM     44  C4  SUS B   3       2.220 -10.534  12.7110  0.00  0.00     0.000 C
ATOM     45  C5  SUS B   3       3.302 -10.915  13.7010  0.00  0.00     0.000 C
ATOM     46  O5  SUS B   3       3.264  -9.974  14.7930  0.00  0.00     0.000 O
BRANCH 42 49
ATOM     47   N  SUS B   3      -0.339  -9.672  15.4720  0.00  0.00     0.000 N
ATOM     49  HD  SUS B   3      -0.944 -10.275  15.3240  0.00  0.00     0.000 HD
ATOM     49   S  SUS B   3      -1.066  -8.247  15.5470  0.00  0.00     0.000 S
ATOM     50   O  SUS B   3      -1.470  -7.845  14.2580  0.00  0.00     0.000 OA
ATOM     51   O  SUS B   3      -2.287  -8.711  16.3820  0.00  0.00     0.000 OA
ATOM     52   O  SUS B   3      -0.267  -7.354  16.2880  0.00  0.00     0.000 OA
ENDBRANCH 42 49
BRANCH 43 53
ATOM     53   O  SUS B   3      -0.204 -10.269  12.4500  0.00  0.00     0.000 O
ATOM     54   S  SUS B   3      -1.489 -11.287  12.3290  0.00  0.00     0.000 S
ATOM     55   O  SUS B   3      -2.256 -11.169  13.5610  0.00  0.00     0.000 OA
ATOM     56   O  SUS B   3      -2.198 -10.820  11.1510  0.00  0.00     0.000 OA
ATOM     57   O  SUS B   3      -0.937 -12.636  12.1740  0.00  0.00     0.000 OA
ENDBRANCH 43 53
BRANCH 45 58
ATOM     58   C  SUS B   3       4.674 -10.925  13.0650  0.00  0.00     0.000 C
ATOM     59   S  SUS B   3       7.175 -11.052  13.6290  0.00  0.00     0.000 S
ATOM     60   O  SUS B   3       5.662 -11.214  14.0690  0.00  0.00     0.000 O
ATOM     61   O  SUS B   3       7.426  -9.624  13.6530  0.00  0.00     0.000 OA
ATOM     62   O  SUS B   3       7.840 -11.752  14.6950  0.00  0.00     0.000 OA
ATOM     63   O  SUS B   3       7.266 -11.664  12.3510  0.00  0.00     0.000 OA
ENDBRANCH 45 58
BRANCH 41 64
ATOM     64  O4  IDS B   4       1.829 -11.010  16.3460  0.00  0.00     0.000 O
BRANCH 64 68
ATOM     65  C1  IDS B   4       1.776 -12.966  19.4200  0.00  0.00     0.000 C
ATOM     66  C2  IDS B   4       1.020 -11.634  19.3390  0.00  0.00     0.000 C
ATOM     67  C3  IDS B   4       1.818 -10.495  18.7260  0.00  0.00     0.000 C
ATOM     68  C4  IDS B   4       2.648 -10.932  17.5330  0.00  0.00     0.000 C
ATOM     69  C5  IDS B   4       3.335 -12.258  17.8900  0.00  0.00     0.000 C
ATOM     70  O5  IDS B   4       2.339 -13.249  18.1510  0.00  0.00     0.000 O
ATOM     71   O  IDS B   4       2.664  -9.985  19.7350  0.00  0.00     0.000 O
ATOM     73  HD  IDS B   4       1.990 -10.430  19.4240  0.00  0.00     0.000 HD
BRANCH 66 73
ATOM     73   O  IDS B   4      -0.150 -11.806  18.4660  0.00  0.00     0.000 O
ATOM     74   S  IDS B   4      -1.604 -11.420  19.0620  0.00  0.00     0.000 S
ATOM     75   O  IDS B   4      -1.775 -12.207  20.2650  0.00  0.00     0.000 OA
ATOM     76   O  IDS B   4      -2.478 -11.803  17.9820  0.00  0.00     0.000 OA
ATOM     77   O  IDS B   4      -1.554  -9.999  19.3110  0.00  0.00     0.000 OA
ENDBRANCH 66 73
BRANCH 69 78
ATOM     78   C  IDS B   4       4.378 -12.718  16.8800  0.00  0.00     0.000 C
ATOM     79   O  IDS B   4       5.565 -12.491  17.1110  0.00  0.00     0.000 OA
ATOM     80   O  IDS B   4       4.005 -13.401  15.9080  0.00  0.00     0.000 OA
ENDBRANCH 69 78
BRANCH 65 81
ATOM     81  O4  SGN B   5       2.632 -12.937  20.4780  0.00  0.00     0.000 O
BRANCH 81 85
ATOM     82  C1  SGN B   5       4.551 -15.334  23.3440  0.00  0.00     0.000 C
ATOM     83  C2  SGN B   5       5.076 -15.414  21.9030  0.00  0.00     0.000 C
ATOM     84  C3  SGN B   5       4.607 -14.182  21.1160  0.00  0.00     0.000 C
ATOM     85  C4  SGN B   5       3.094 -14.084  21.1960  0.00  0.00     0.000 C
ATOM     86  C5  SGN B   5       2.696 -13.987  22.6660  0.00  0.00     0.000 C
ATOM     87  O5  SGN B   5       3.145 -15.175  23.3460  0.00  0.00     0.000 O
ATOM     88   O  SGN B   5       5.037 -14.277  19.7760  0.00  0.00     0.000 O
ATOM     90  HD  SGN B   5       5.406 -13.788  20.3880  0.00  0.00     0.000 HD
BRANCH 83 92
ATOM     90   N  SGN B   5       6.406 -15.792  22.4200  0.00  0.00     0.000 N
ATOM     92  HD  SGN B   5       6.423 -15.761  23.2860  0.00  0.00     0.000 HD
ATOM     92   S  SGN B   5       7.129 -17.063  21.7750  0.00  0.00     0.000 S
ATOM     93   O  SGN B   5       8.368 -17.164  22.4860  0.00  0.00     0.000 OA
ATOM     94   O  SGN B   5       6.181 -18.122  21.8400  0.00  0.00     0.000 OA
ATOM     95   O  SGN B   5       7.307 -16.705  20.3160  0.00  0.00     0.000 OA
ENDBRANCH 83 92
BRANCH 86 96
ATOM     96   C  SGN B   5       1.204 -13.870  22.9000  0.00  0.00     0.000 C
ATOM     97   O  SGN B   5       0.543 -15.084  22.5360  0.00  0.00     0.000 O
ATOM     98   S  SGN B   5      -0.451 -15.703  23.6320  0.00  0.00     0.000 S
ATOM     99   O  SGN B   5      -1.097 -16.771  22.9080  0.00  0.00     0.000 OA
ATOM    100   O  SGN B   5       0.339 -16.127  24.7320  0.00  0.00     0.000 OA
ATOM    101   O  SGN B   5      -1.331 -14.629  23.9600  0.00  0.00     0.000 OA
ENDBRANCH 86 96
BRANCH 82 102
ATOM    102  O4  IDS B   6       5.143 -14.338  24.0630  0.00  0.00     0.000 O
BRANCH 102 106
ATOM    103  C1  IDS B   6       6.966 -12.796  26.8120  0.00  0.00     0.000 C
ATOM    104  C2  IDS B   6       7.593 -13.936  25.9940  0.00  0.00     0.000 C
ATOM    105  C3  IDS B   6       6.692 -15.134  25.7650  0.00  0.00     0.000 C
ATOM    106  C4  IDS B   6       5.259 -14.738  25.4520  0.00  0.00     0.000 C
ATOM    107  C5  IDS B   6       4.820 -13.606  26.3840  0.00  0.00     0.000 C
ATOM    108  O5  IDS B   6       5.688 -12.475  26.2950  0.00  0.00     0.000 O
ATOM    109   O  IDS B   6       6.747 -15.955  26.9200  0.00  0.00     0.000 O
ATOM    111  HD  IDS B   6       6.996 -15.414  27.5480  0.00  0.00     0.000 HD
BRANCH 104 111
ATOM    111   O  IDS B   6       7.925 -13.437  24.6510  0.00  0.00     0.000 O
ATOM    112   S  IDS B   6       9.468 -13.374  24.2310  0.00  0.00     0.000 S
ATOM    113   O  IDS B   6      10.084 -12.510  25.2260  0.00  0.00     0.000 OA
ATOM    114   O  IDS B   6       9.996 -14.743  24.1960  0.00  0.00     0.000 OA
ATOM    115   O  IDS B   6       9.330 -12.762  22.9260  0.00  0.00     0.000 OA
ENDBRANCH 104 111
BRANCH 107 116
ATOM    116   C  IDS B   6       3.395 -13.192  26.0380  0.00  0.00     0.000 C
ATOM    117   O  IDS B   6       2.518 -13.959  26.3470  0.00  0.00     0.000 OA
ATOM    118   O  IDS B   6       3.160 -12.139  25.4670  0.00  0.00     0.000 OA
ENDBRANCH 107 116
BRANCH 103 119
ATOM    119  O4  SGN B   7       7.127 -13.197  28.0990  0.00  0.00     0.000 O
BRANCH 119 123
ATOM    120  C1  SGN B   7       6.961 -11.316  31.8300  0.00  0.00     0.000 C
ATOM    121  C2  SGN B   7       5.697 -12.051  31.3450  0.00  0.00     0.000 C
ATOM    122  C3  SGN B   7       6.039 -13.002  30.1910  0.00  0.00     0.000 C
ATOM    123  C4  SGN B   7       6.766 -12.240  29.0950  0.00  0.00     0.000 C
ATOM    124  C5  SGN B   7       8.003 -11.539  29.6800  0.00  0.00     0.000 C
ATOM    125  O5  SGN B   7       7.635 -10.653  30.7610  0.00  0.00     0.000 O
ATOM    126   O  SGN B   7       4.829 -13.593  29.7010  0.00  0.00     0.000 O
ATOM    128  HD  SGN B   7       5.222 -13.120  30.3100  0.00  0.00     0.000 HD
BRANCH 121 130
ATOM    128   N  SGN B   7       5.018 -11.452  32.4970  0.00  0.00     0.000 N
ATOM    130  HD  SGN B   7       4.319 -11.294  32.0110  0.00  0.00     0.000 HD
ATOM    130   S  SGN B   7       3.814 -12.195  33.2660  0.00  0.00     0.000 S
ATOM    131   O  SGN B   7       4.300 -13.503  33.5440  0.00  0.00     0.000 OA
ATOM    132   O  SGN B   7       3.373 -11.354  34.3200  0.00  0.00     0.000 OA
ATOM    133   O  SGN B   7       2.686 -12.096  32.1830  0.00  0.00     0.000 OA
ENDBRANCH 121 130
BRANCH 124 134
ATOM    134   C  SGN B   7       8.725 -10.664  28.6980  0.00  0.00     0.000 C
ATOM    135   O  SGN B   7       7.770  -9.788  28.0750  0.00  0.00     0.000 O
ATOM    136   S  SGN B   7       8.350  -8.683  27.1220  0.00  0.00     0.000 S
ATOM    137   O  SGN B   7       7.213  -8.008  26.5430  0.00  0.00     0.000 OA
ATOM    138   O  SGN B   7       9.137  -9.402  26.1450  0.00  0.00     0.000 OA
ATOM    139   O  SGN B   7       9.128  -7.859  28.0340  0.00  0.00     0.000 OA
ENDBRANCH 124 134
BRANCH 120 140
ATOM    140  O4  IDS B   8       8.023 -11.831  32.4590  0.00  0.00     0.000 O
BRANCH 140 144
ATOM    141  C1  IDS B   8      11.162 -12.747  33.9660  0.00  0.00     0.000 C
ATOM    142  C2  IDS B   8      10.814 -13.183  32.5140  0.00  0.00     0.000 C
ATOM    143  C3  IDS B   8       9.413 -13.809  32.3910  0.00  0.00     0.000 C
ATOM    144  C4  IDS B   8       8.363 -13.024  33.1760  0.00  0.00     0.000 C
ATOM    145  C5  IDS B   8       8.902 -12.667  34.5700  0.00  0.00     0.000 C
ATOM    146  O5  IDS B   8      10.121 -11.931  34.4910  0.00  0.00     0.000 O
BRANCH 142 147
ATOM    147   O  IDS B   8      10.846 -11.996  31.6190  0.00  0.00     0.000 O
ATOM    148   S  IDS B   8      12.084 -11.750  30.6020  0.00  0.00     0.000 S
ATOM    149   O  IDS B   8      13.178 -12.592  31.0300  0.00  0.00     0.000 OA
ATOM    150   O  IDS B   8      11.583 -12.106  29.2880  0.00  0.00     0.000 OA
ATOM    151   O  IDS B   8      12.405 -10.340  30.7250  0.00  0.00     0.000 OA
ENDBRANCH 142 147
BRANCH 145 152
ATOM    152   C  IDS B   8       7.943 -11.801  35.3620  0.00  0.00     0.000 C
ATOM    153   O  IDS B   8       8.384 -11.020  36.1970  0.00  0.00     0.000 OA
ATOM    154   O  IDS B   8       6.747 -11.875  35.1460  0.00  0.00     0.000 OA
ENDBRANCH 145 152
ENDBRANCH 140 144
ENDBRANCH 120 140
ENDBRANCH 119 123
ENDBRANCH 103 119
ENDBRANCH 102 106
ENDBRANCH 82 102
ENDBRANCH 81 85
ENDBRANCH 65 81
ENDBRANCH 64 68
ENDBRANCH 41 64
ENDBRANCH 40 44
ENDBRANCH 24 40
ENDBRANCH 23 27
ENDBRANCH 1 23
TORSDOF 31
ENDMDL
MODEL 48
REMARK VINA RESULT:      -6.5     38.802     44.222
ROOT
ATOM      1  C1  SGN B   1      11.485  15.514  -0.1580  0.00  0.00     0.000 C
ATOM      2  C2  SGN B   1      12.618  16.111  -1.0100  0.00  0.00     0.000 C
ATOM      3  C3  SGN B   1      13.958  16.014  -0.2740  0.00  0.00     0.000 C
ATOM      4  C4  SGN B   1      13.858  16.684   1.0930  0.00  0.00     0.000 C
ATOM      5  C5  SGN B   1      12.631  16.145   1.8240  0.00  0.00     0.000 C
ATOM      6  O5  SGN B   1      11.461  16.332   1.0040  0.00  0.00     0.000 O
ATOM      7   O  SGN B   1      14.996  16.608  -1.0460  0.00  0.00     0.000 O
ATOM      9  HD  SGN B   1      14.465  17.280  -0.9180  0.00  0.00     0.000 HD
ATOM      9   O  SGN B   1      15.031  16.410   1.8380  0.00  0.00     0.000 O
ATOM     11  HD  SGN B   1      14.500  17.082   1.9650  0.00  0.00     0.000 HD
ENDROOT
BRANCH 2 13
ATOM     11   N  SGN B   1      11.791  16.500  -2.1680  0.00  0.00     0.000 N
ATOM     13  HD  SGN B   1      11.856  15.669  -1.9330  0.00  0.00     0.000 HD
ATOM     13   S  SGN B   1      11.531  15.508  -3.4090  0.00  0.00     0.000 S
ATOM     14   O  SGN B   1      12.151  14.263  -3.1740  0.00  0.00     0.000 OA
ATOM     15   O  SGN B   1      10.144  15.550  -3.7340  0.00  0.00     0.000 OA
ATOM     16   O  SGN B   1      12.285  16.321  -4.5060  0.00  0.00     0.000 OA
ENDBRANCH 2 13
BRANCH 5 17
ATOM     17   C  SGN B   1      12.363  16.814   3.1490  0.00  0.00     0.000 C
ATOM     18   O  SGN B   1      10.998  16.607   3.5630  0.00  0.00     0.000 O
ATOM     19   S  SGN B   1      10.230  17.895   4.1200  0.00  0.00     0.000 S
ATOM     20   O  SGN B   1       8.995  17.384   4.6760  0.00  0.00     0.000 OA
ATOM     21   O  SGN B   1      11.129  18.440   5.1100  0.00  0.00     0.000 OA
ATOM     22   O  SGN B   1      10.038  18.747   2.9670  0.00  0.00     0.000 OA
ENDBRANCH 5 17
BRANCH 1 23
ATOM     23  O4  IDS B   2      10.852  14.328   0.0710  0.00  0.00     0.000 O
BRANCH 23 27
ATOM     24  C1  IDS B   2       8.182  11.163   0.3530  0.00  0.00     0.000 C
ATOM     25  C2  IDS B   2       9.170  11.098  -0.8320  0.00  0.00     0.000 C
ATOM     26  C3  IDS B   2      10.281  12.132  -0.6740  0.00  0.00     0.000 C
ATOM     27  C4  IDS B   2       9.767  13.552  -0.4780  0.00  0.00     0.000 C
ATOM     28  C5  IDS B   2       8.492  13.535   0.3890  0.00  0.00     0.000 C
ATOM     29  O5  IDS B   2       8.408  12.336   1.1450  0.00  0.00     0.000 O
ATOM     30   O  IDS B   2      11.096  12.127  -1.8400  0.00  0.00     0.000 O
ATOM     32  HD  IDS B   2      10.746  12.561  -2.5030  0.00  0.00     0.000 HD
BRANCH 25 32
ATOM     32   O  IDS B   2       9.811   9.766  -0.9570  0.00  0.00     0.000 O
ATOM     33   S  IDS B   2       9.610   8.823  -2.2960  0.00  0.00     0.000 S
ATOM     34   O  IDS B   2      10.185   7.528  -1.9690  0.00  0.00     0.000 OA
ATOM     35   O  IDS B   2       8.191   8.713  -2.6020  0.00  0.00     0.000 OA
ATOM     36   O  IDS B   2      10.352   9.478  -3.3490  0.00  0.00     0.000 OA
ENDBRANCH 25 32
BRANCH 28 37
ATOM     37   C  IDS B   2       8.252  14.726   1.3400  0.00  0.00     0.000 C
ATOM     38   O  IDS B   2       8.459  14.449   2.4980  0.00  0.00     0.000 OA
ATOM     39   O  IDS B   2       7.944  15.900   1.0180  0.00  0.00     0.000 OA
ENDBRANCH 28 37
BRANCH 24 40
ATOM     40  O4  SUS B   3       7.090  10.371   0.3620  0.00  0.00     0.000 O
BRANCH 40 44
ATOM     41  C1  SUS B   3       5.131   8.491   3.5530  0.00  0.00     0.000 C
ATOM     42  C2  SUS B   3       4.929  10.012   3.3990  0.00  0.00     0.000 C
ATOM     43  C3  SUS B   3       5.290  10.426   1.9740  0.00  0.00     0.000 C
ATOM     44  C4  SUS B   3       6.703   9.956   1.6680  0.00  0.00     0.000 C
ATOM     45  C5  SUS B   3       6.748   8.445   1.7630  0.00  0.00     0.000 C
ATOM     46  O5  SUS B   3       6.428   8.069   3.1170  0.00  0.00     0.000 O
BRANCH 42 49
ATOM     47   N  SUS B   3       3.568  10.202   3.9280  0.00  0.00     0.000 N
ATOM     49  HD  SUS B   3       2.971  10.486   3.3670  0.00  0.00     0.000 HD
ATOM     49   S  SUS B   3       3.532  11.154   5.2160  0.00  0.00     0.000 S
ATOM     50   O  SUS B   3       4.098  12.406   4.9030  0.00  0.00     0.000 OA
ATOM     51   O  SUS B   3       1.989  11.261   5.3170  0.00  0.00     0.000 OA
ATOM     52   O  SUS B   3       4.057  10.459   6.3240  0.00  0.00     0.000 OA
ENDBRANCH 42 49
BRANCH 43 53
ATOM     53   O  SUS B   3       5.223  11.898   1.8970  0.00  0.00     0.000 O
ATOM     54   S  SUS B   3       3.986  12.549   1.0320  0.00  0.00     0.000 S
ATOM     55   O  SUS B   3       2.762  12.331   1.7890  0.00  0.00     0.000 OA
ATOM     56   O  SUS B   3       4.350  13.948   0.8960  0.00  0.00     0.000 OA
ATOM     57   O  SUS B   3       3.954  11.833  -0.2470  0.00  0.00     0.000 OA
ENDBRANCH 43 53
BRANCH 45 58
ATOM     58   C  SUS B   3       8.102   7.892   1.3730  0.00  0.00     0.000 C
ATOM     59   S  SUS B   3      10.531   7.708   2.1790  0.00  0.00     0.000 S
ATOM     60   O  SUS B   3       9.010   8.034   2.4770  0.00  0.00     0.000 O
ATOM     61   O  SUS B   3      11.040   8.875   1.4830  0.00  0.00     0.000 OA
ATOM     62   O  SUS B   3      11.047   7.590   3.5160  0.00  0.00     0.000 OA
ATOM     63   O  SUS B   3      10.520   6.506   1.4230  0.00  0.00     0.000 OA
ENDBRANCH 45 58
BRANCH 41 64
ATOM     64  O4  IDS B   4       4.097   7.742   3.0470  0.00  0.00     0.000 O
BRANCH 64 68
ATOM     65  C1  IDS B   4       1.638   5.061   2.8520  0.00  0.00     0.000 C
ATOM     66  C2  IDS B   4       1.805   5.863   4.1490  0.00  0.00     0.000 C
ATOM     67  C3  IDS B   4       3.247   6.057   4.5860  0.00  0.00     0.000 C
ATOM     68  C4  IDS B   4       4.180   6.351   3.4260  0.00  0.00     0.000 C
ATOM     69  C5  IDS B   4       3.839   5.385   2.2830  0.00  0.00     0.000 C
ATOM     70  O5  IDS B   4       2.491   5.609   1.8640  0.00  0.00     0.000 O
ATOM     71   O  IDS B   4       3.652   4.870   5.2360  0.00  0.00     0.000 O
ATOM     73  HD  IDS B   4       3.081   5.437   4.9150  0.00  0.00     0.000 HD
BRANCH 66 73
ATOM     73   O  IDS B   4       1.273   7.216   3.9400  0.00  0.00     0.000 O
ATOM     74   S  IDS B   4       0.127   7.746   4.9510  0.00  0.00     0.000 S
ATOM     75   O  IDS B   4      -0.953   6.784   4.8860  0.00  0.00     0.000 OA
ATOM     76   O  IDS B   4      -0.197   9.031   4.3850  0.00  0.00     0.000 OA
ATOM     77   O  IDS B   4       0.758   7.810   6.2480  0.00  0.00     0.000 OA
ENDBRANCH 66 73
BRANCH 69 78
ATOM     78   C  IDS B   4       4.830   5.403   1.1270  0.00  0.00     0.000 C
ATOM     79   O  IDS B   4       6.009   5.139   1.3560  0.00  0.00     0.000 OA
ATOM     80   O  IDS B   4       4.397   5.580  -0.0260  0.00  0.00     0.000 OA
ENDBRANCH 69 78
BRANCH 65 81
ATOM     81  O4  SGN B   5       1.783   3.733   3.1190  0.00  0.00     0.000 O
BRANCH 81 85
ATOM     82  C1  SGN B   5       0.774  -0.090   1.7030  0.00  0.00     0.000 C
ATOM     83  C2  SGN B   5       1.252   0.935   0.6640  0.00  0.00     0.000 C
ATOM     84  C3  SGN B   5       2.001   2.073   1.3720  0.00  0.00     0.000 C
ATOM     85  C4  SGN B   5       1.103   2.676   2.4370  0.00  0.00     0.000 C
ATOM     86  C5  SGN B   5       0.714   1.574   3.4190  0.00  0.00     0.000 C
ATOM     87  O5  SGN B   5       0.001   0.548   2.7020  0.00  0.00     0.000 O
ATOM     88   O  SGN B   5       2.395   3.047   0.4310  0.00  0.00     0.000 O
ATOM     90  HD  SGN B   5       2.912   2.444   0.7760  0.00  0.00     0.000 HD
BRANCH 83 92
ATOM     90   N  SGN B   5       1.895  -0.035  -0.2440  0.00  0.00     0.000 N
ATOM     92  HD  SGN B   5       2.043  -0.787   0.1590  0.00  0.00     0.000 HD
ATOM     92   S  SGN B   5       1.323  -0.165  -1.7310  0.00  0.00     0.000 S
ATOM     93   O  SGN B   5       2.140  -1.172  -2.3380  0.00  0.00     0.000 OA
ATOM     94   O  SGN B   5      -0.077  -0.374  -1.5890  0.00  0.00     0.000 OA
ATOM     95   O  SGN B   5       1.516   1.207  -2.3390  0.00  0.00     0.000 OA
ENDBRANCH 83 92
BRANCH 86 96
ATOM     96   C  SGN B   5      -0.178   2.037   4.5510  0.00  0.00     0.000 C
ATOM     97   O  SGN B   5       0.291   1.527   5.8010  0.00  0.00     0.000 O
ATOM     98   S  SGN B   5       0.476   2.601   6.9780  0.00  0.00     0.000 S
ATOM     99   O  SGN B   5       0.750   1.771   8.1260  0.00  0.00     0.000 OA
ATOM    100   O  SGN B   5       1.538   3.464   6.6040  0.00  0.00     0.000 OA
ATOM    101   O  SGN B   5      -0.784   3.267   7.0500  0.00  0.00     0.000 OA
ENDBRANCH 86 96
BRANCH 82 102
ATOM    102  O4  IDS B   6       1.802  -0.783   2.2690  0.00  0.00     0.000 O
BRANCH 102 106
ATOM    103  C1  IDS B   6       3.775  -3.750   3.0200  0.00  0.00     0.000 C
ATOM    104  C2  IDS B   6       3.307  -3.459   1.5850  0.00  0.00     0.000 C
ATOM    105  C3  IDS B   6       1.846  -3.076   1.4500  0.00  0.00     0.000 C
ATOM    106  C4  IDS B   6       1.381  -2.141   2.5530  0.00  0.00     0.000 C
ATOM    107  C5  IDS B   6       1.937  -2.613   3.9000  0.00  0.00     0.000 C
ATOM    108  O5  IDS B   6       3.362  -2.708   3.8840  0.00  0.00     0.000 O
ATOM    109   O  IDS B   6       1.077  -4.267   1.4410  0.00  0.00     0.000 O
ATOM    111  HD  IDS B   6       1.584  -4.846   1.8370  0.00  0.00     0.000 HD
BRANCH 104 111
ATOM    111   O  IDS B   6       4.060  -2.310   1.0590  0.00  0.00     0.000 O
ATOM    112   S  IDS B   6       5.179  -2.588  -0.0530  0.00  0.00     0.000 S
ATOM    113   O  IDS B   6       6.103  -3.515   0.5820  0.00  0.00     0.000 OA
ATOM    114   O  IDS B   6       4.519  -3.109  -1.2560  0.00  0.00     0.000 OA
ATOM    115   O  IDS B   6       5.700  -1.246  -0.2000  0.00  0.00     0.000 OA
ENDBRANCH 104 111
BRANCH 107 116
ATOM    116   C  IDS B   6       1.495  -1.649   4.9930  0.00  0.00     0.000 C
ATOM    117   O  IDS B   6       2.340  -0.919   5.4460  0.00  0.00     0.000 OA
ATOM    118   O  IDS B   6       0.341  -1.628   5.3930  0.00  0.00     0.000 OA
ENDBRANCH 107 116
BRANCH 103 119
ATOM    119  O4  SGN B   7       3.391  -5.035   3.2280  0.00  0.00     0.000 O
BRANCH 119 123
ATOM    120  C1  SGN B   7       4.847  -8.336   5.3450  0.00  0.00     0.000 C
ATOM    121  C2  SGN B   7       4.264  -7.165   6.1600  0.00  0.00     0.000 C
ATOM    122  C3  SGN B   7       3.427  -6.247   5.2610  0.00  0.00     0.000 C
ATOM    123  C4  SGN B   7       4.253  -5.811   4.0620  0.00  0.00     0.000 C
ATOM    124  C5  SGN B   7       4.792  -7.046   3.3220  0.00  0.00     0.000 C
ATOM    125  O5  SGN B   7       5.574  -7.880   4.2050  0.00  0.00     0.000 O
ATOM    126   O  SGN B   7       2.985  -5.121   6.0270  0.00  0.00     0.000 O
ATOM    128  HD  SGN B   7       3.357  -5.903   6.0160  0.00  0.00     0.000 HD
BRANCH 121 130
ATOM    128   N  SGN B   7       4.402  -8.136   7.2490  0.00  0.00     0.000 N
ATOM    130  HD  SGN B   7       5.100  -7.716   7.5440  0.00  0.00     0.000 HD
ATOM    130   S  SGN B   7       4.043  -7.771   8.7760  0.00  0.00     0.000 S
ATOM    131   O  SGN B   7       2.743  -7.195   8.7250  0.00  0.00     0.000 OA
ATOM    132   O  SGN B   7       4.290  -8.914   9.5780  0.00  0.00     0.000 OA
ATOM    133   O  SGN B   7       5.216  -6.789   9.1140  0.00  0.00     0.000 OA
ENDBRANCH 121 130
BRANCH 124 134
ATOM    134   C  SGN B   7       5.717  -6.718   2.1870  0.00  0.00     0.000 C
ATOM    135   O  SGN B   7       6.905  -7.518   2.3180  0.00  0.00     0.000 O
ATOM    136   S  SGN B   7       7.939  -7.435   1.1380  0.00  0.00     0.000 S
ATOM    137   O  SGN B   7       9.077  -8.228   1.5390  0.00  0.00     0.000 OA
ATOM    138   O  SGN B   7       8.249  -6.029   1.0060  0.00  0.00     0.000 OA
ATOM    139   O  SGN B   7       7.189  -7.994   0.0250  0.00  0.00     0.000 OA
ENDBRANCH 124 134
BRANCH 120 140
ATOM    140  O4  IDS B   8       4.187  -9.353   4.7790  0.00  0.00     0.000 O
BRANCH 140 144
ATOM    141  C1  IDS B   8       3.740 -12.139   2.5440  0.00  0.00     0.000 C
ATOM    142  C2  IDS B   8       2.530 -11.268   2.9880  0.00  0.00     0.000 C
ATOM    143  C3  IDS B   8       2.477 -11.041   4.5100  0.00  0.00     0.000 C
ATOM    144  C4  IDS B   8       3.851 -10.711   5.0890  0.00  0.00     0.000 C
ATOM    145  C5  IDS B   8       4.911 -11.662   4.5120  0.00  0.00     0.000 C
ATOM    146  O5  IDS B   8       4.944 -11.613   3.0880  0.00  0.00     0.000 O
BRANCH 142 147
ATOM    147   O  IDS B   8       2.621  -9.930   2.3470  0.00  0.00     0.000 O
ATOM    148   S  IDS B   8       1.292  -9.040   2.0760  0.00  0.00     0.000 S
ATOM    149   O  IDS B   8       0.148  -9.917   2.1880  0.00  0.00     0.000 OA
ATOM    150   O  IDS B   8       1.307  -8.004   3.0920  0.00  0.00     0.000 OA
ATOM    151   O  IDS B   8       1.448  -8.521   0.7310  0.00  0.00     0.000 OA
ENDBRANCH 142 147
BRANCH 145 152
ATOM    152   C  IDS B   8       6.314 -11.321   4.9740  0.00  0.00     0.000 C
ATOM    153   O  IDS B   8       6.606 -11.438   6.1580  0.00  0.00     0.000 OA
ATOM    154   O  IDS B   8       7.142 -10.953   4.1600  0.00  0.00     0.000 OA
ENDBRANCH 145 152
ENDBRANCH 140 144
ENDBRANCH 120 140
ENDBRANCH 119 123
ENDBRANCH 103 119
ENDBRANCH 102 106
ENDBRANCH 82 102
ENDBRANCH 81 85
ENDBRANCH 65 81
ENDBRANCH 64 68
ENDBRANCH 41 64
ENDBRANCH 40 44
ENDBRANCH 24 40
ENDBRANCH 23 27
ENDBRANCH 1 23
TORSDOF 31
ENDMDL
MODEL 49
REMARK VINA RESULT:      -6.5     11.142     14.513
ROOT
ATOM      1  C1  SGN B   1      40.037  -1.580  19.0540  0.00  0.00     0.000 C
ATOM      2  C2  SGN B   1      39.407  -2.801  19.7440  0.00  0.00     0.000 C
ATOM      3  C3  SGN B   1      38.673  -3.681  18.7260  0.00  0.00     0.000 C
ATOM      4  C4  SGN B   1      37.637  -2.856  17.9680  0.00  0.00     0.000 C
ATOM      5  C5  SGN B   1      38.302  -1.590  17.4320  0.00  0.00     0.000 C
ATOM      6  O5  SGN B   1      38.925  -0.877  18.5180  0.00  0.00     0.000 O
ATOM      7   O  SGN B   1      38.054  -4.786  19.3740  0.00  0.00     0.000 O
ATOM      9  HD  SGN B   1      37.657  -4.115  19.7520  0.00  0.00     0.000 HD
ATOM      9   O  SGN B   1      37.115  -3.624  16.9000  0.00  0.00     0.000 O
ATOM     11  HD  SGN B   1      36.718  -2.953  17.2770  0.00  0.00     0.000 HD
ENDROOT
BRANCH 2 13
ATOM     11   N  SGN B   1      40.397  -3.610  20.4800  0.00  0.00     0.000 N
ATOM     13  HD  SGN B   1      39.984  -2.957  20.8710  0.00  0.00     0.000 HD
ATOM     13   S  SGN B   1      41.252  -3.015  21.7060  0.00  0.00     0.000 S
ATOM     14   O  SGN B   1      40.868  -1.683  21.9650  0.00  0.00     0.000 OA
ATOM     15   O  SGN B   1      41.240  -3.966  22.7670  0.00  0.00     0.000 OA
ATOM     16   O  SGN B   1      42.664  -3.081  21.0450  0.00  0.00     0.000 OA
ENDBRANCH 2 13
BRANCH 5 17
ATOM     17   C  SGN B   1      37.350  -0.636  16.7550  0.00  0.00     0.000 C
ATOM     18   O  SGN B   1      37.852  -0.240  15.4630  0.00  0.00     0.000 O
ATOM     19   S  SGN B   1      37.760   1.320  15.1230  0.00  0.00     0.000 S
ATOM     20   O  SGN B   1      38.096   1.419  13.7190  0.00  0.00     0.000 OA
ATOM     21   O  SGN B   1      36.389   1.665  15.4160  0.00  0.00     0.000 OA
ATOM     22   O  SGN B   1      38.725   1.953  15.9960  0.00  0.00     0.000 OA
ENDBRANCH 5 17
BRANCH 1 23
ATOM     23  O4  IDS B   2      41.194  -1.196  18.4430  0.00  0.00     0.000 O
BRANCH 23 27
ATOM     24  C1  IDS B   2      44.988   0.472  18.2090  0.00  0.00     0.000 C
ATOM     25  C2  IDS B   2      44.179   0.830  19.4750  0.00  0.00     0.000 C
ATOM     26  C3  IDS B   2      42.944  -0.058  19.6030  0.00  0.00     0.000 C
ATOM     27  C4  IDS B   2      42.051  -0.037  18.3700  0.00  0.00     0.000 C
ATOM     28  C5  IDS B   2      42.915   0.037  17.0950  0.00  0.00     0.000 C
ATOM     29  O5  IDS B   2      44.240  -0.402  17.3540  0.00  0.00     0.000 O
ATOM     30   O  IDS B   2      42.162   0.384  20.7070  0.00  0.00     0.000 O
ATOM     32  HD  IDS B   2      41.680   1.080  20.5270  0.00  0.00     0.000 HD
BRANCH 25 32
ATOM     32   O  IDS B   2      44.977   0.669  20.7160  0.00  0.00     0.000 O
ATOM     33   S  IDS B   2      45.229   1.922  21.7590  0.00  0.00     0.000 S
ATOM     34   O  IDS B   2      46.221   1.459  22.7160  0.00  0.00     0.000 OA
ATOM     35   O  IDS B   2      45.705   3.081  21.0180  0.00  0.00     0.000 OA
ATOM     36   O  IDS B   2      43.954   2.161  22.3960  0.00  0.00     0.000 OA
ENDBRANCH 25 32
BRANCH 28 37
ATOM     37   C  IDS B   2      42.402  -0.687  15.8330  0.00  0.00     0.000 C
ATOM     38   O  IDS B   2      41.501  -0.094  15.2870  0.00  0.00     0.000 OA
ATOM     39   O  IDS B   2      42.860  -1.741  15.3280  0.00  0.00     0.000 OA
ENDBRANCH 28 37
BRANCH 24 40
ATOM     40  O4  SUS B   3      46.082   1.192  17.8840  0.00  0.00     0.000 O
BRANCH 40 44
ATOM     41  C1  SUS B   3      49.643  -0.361  16.3180  0.00  0.00     0.000 C
ATOM     42  C2  SUS B   3      48.850   0.617  15.4290  0.00  0.00     0.000 C
ATOM     43  C3  SUS B   3      47.893   1.427  16.3010  0.00  0.00     0.000 C
ATOM     44  C4  SUS B   3      47.021   0.468  17.0970  0.00  0.00     0.000 C
ATOM     45  C5  SUS B   3      47.907  -0.371  17.9940  0.00  0.00     0.000 C
ATOM     46  O5  SUS B   3      48.790  -1.146  17.1580  0.00  0.00     0.000 O
BRANCH 42 49
ATOM     47   N  SUS B   3      48.511   1.007  14.0500  0.00  0.00     0.000 N
ATOM     49  HD  SUS B   3      47.882   0.553  13.6630  0.00  0.00     0.000 HD
ATOM     49   S  SUS B   3      49.786   1.017  13.0800  0.00  0.00     0.000 S
ATOM     50   O  SUS B   3      50.396  -0.253  13.0760  0.00  0.00     0.000 OA
ATOM     51   O  SUS B   3      49.006   1.251  11.7610  0.00  0.00     0.000 OA
ATOM     52   O  SUS B   3      50.595   2.130  13.3840  0.00  0.00     0.000 OA
ENDBRANCH 42 49
BRANCH 43 53
ATOM     53   O  SUS B   3      47.052   2.250  15.4110  0.00  0.00     0.000 O
ATOM     54   S  SUS B   3      47.250   3.879  15.4870  0.00  0.00     0.000 S
ATOM     55   O  SUS B   3      48.541   4.190  14.8890  0.00  0.00     0.000 OA
ATOM     56   O  SUS B   3      46.118   4.406  14.7450  0.00  0.00     0.000 OA
ATOM     57   O  SUS B   3      47.225   4.235  16.9090  0.00  0.00     0.000 OA
ENDBRANCH 43 53
BRANCH 45 58
ATOM     58   C  SUS B   3      47.102  -1.284  18.8930  0.00  0.00     0.000 C
ATOM     59   S  SUS B   3      46.120  -3.650  19.0310  0.00  0.00     0.000 S
ATOM     60   O  SUS B   3      47.093  -2.610  18.3400  0.00  0.00     0.000 O
ATOM     61   O  SUS B   3      44.798  -3.326  18.5290  0.00  0.00     0.000 OA
ATOM     62   O  SUS B   3      46.628  -4.887  18.5010  0.00  0.00     0.000 OA
ATOM     63   O  SUS B   3      46.300  -3.469  20.4280  0.00  0.00     0.000 OA
ENDBRANCH 45 58
BRANCH 41 64
ATOM     64  O4  IDS B   4      50.698   0.222  16.9770  0.00  0.00     0.000 O
BRANCH 64 68
ATOM     65  C1  IDS B   4      53.884   0.626  18.6990  0.00  0.00     0.000 C
ATOM     66  C2  IDS B   4      53.739   1.052  17.2330  0.00  0.00     0.000 C
ATOM     67  C3  IDS B   4      53.043   0.032  16.3480  0.00  0.00     0.000 C
ATOM     68  C4  IDS B   4      51.862  -0.633  17.0310  0.00  0.00     0.000 C
ATOM     69  C5  IDS B   4      52.283  -1.003  18.4590  0.00  0.00     0.000 C
ATOM     70  O5  IDS B   4      52.623   0.187  19.1730  0.00  0.00     0.000 O
ATOM     71   O  IDS B   4      54.003  -0.943  15.9980  0.00  0.00     0.000 O
ATOM     73  HD  IDS B   4      53.732  -0.173  16.2880  0.00  0.00     0.000 HD
BRANCH 66 73
ATOM     73   O  IDS B   4      52.902   2.259  17.1720  0.00  0.00     0.000 O
ATOM     74   S  IDS B   4      53.530   3.584  16.4890  0.00  0.00     0.000 S
ATOM     75   O  IDS B   4      54.752   3.875  17.2080  0.00  0.00     0.000 OA
ATOM     76   O  IDS B   4      52.482   4.550  16.6970  0.00  0.00     0.000 OA
ATOM     77   O  IDS B   4      53.751   3.236  15.1050  0.00  0.00     0.000 OA
ENDBRANCH 66 73
BRANCH 69 78
ATOM     78   C  IDS B   4      51.282  -1.876  19.2040  0.00  0.00     0.000 C
ATOM     79   O  IDS B   4      51.164  -3.055  18.8730  0.00  0.00     0.000 OA
ATOM     80   O  IDS B   4      50.693  -1.397  20.1910  0.00  0.00     0.000 OA
ENDBRANCH 69 78
BRANCH 65 81
ATOM     81  O4  SGN B   5      54.921  -0.249  18.8160  0.00  0.00     0.000 O
BRANCH 81 85
ATOM     82  C1  SGN B   5      57.652  -1.527  21.7390  0.00  0.00     0.000 C
ATOM     83  C2  SGN B   5      56.678  -2.579  21.1870  0.00  0.00     0.000 C
ATOM     84  C3  SGN B   5      56.099  -2.092  19.8510  0.00  0.00     0.000 C
ATOM     85  C4  SGN B   5      55.459  -0.729  20.0500  0.00  0.00     0.000 C
ATOM     86  C5  SGN B   5      56.524   0.230  20.5750  0.00  0.00     0.000 C
ATOM     87  O5  SGN B   5      57.013  -0.269  21.8350  0.00  0.00     0.000 O
ATOM     88   O  SGN B   5      55.160  -3.026  19.3660  0.00  0.00     0.000 O
ATOM     90  HD  SGN B   5      55.975  -2.940  19.0850  0.00  0.00     0.000 HD
BRANCH 83 92
ATOM     90   N  SGN B   5      57.669  -3.614  21.5400  0.00  0.00     0.000 N
ATOM     92  HD  SGN B   5      58.385  -3.258  21.8730  0.00  0.00     0.000 HD
ATOM     92   S  SGN B   5      57.151  -4.924  22.2940  0.00  0.00     0.000 S
ATOM     93   O  SGN B   5      58.332  -5.709  22.4940  0.00  0.00     0.000 OA
ATOM     94   O  SGN B   5      56.408  -4.457  23.4140  0.00  0.00     0.000 OA
ATOM     95   O  SGN B   5      56.169  -5.558  21.3330  0.00  0.00     0.000 OA
ENDBRANCH 83 92
BRANCH 86 96
ATOM     96   C  SGN B   5      56.027   1.641  20.8110  0.00  0.00     0.000 C
ATOM     97   O  SGN B   5      55.091   1.670  21.8910  0.00  0.00     0.000 O
ATOM     98   S  SGN B   5      55.369   2.757  23.0370  0.00  0.00     0.000 S
ATOM     99   O  SGN B   5      54.177   2.678  23.8460  0.00  0.00     0.000 OA
ATOM    100   O  SGN B   5      56.563   2.379  23.7030  0.00  0.00     0.000 OA
ATOM    101   O  SGN B   5      55.493   3.992  22.3320  0.00  0.00     0.000 OA
ENDBRANCH 86 96
BRANCH 82 102
ATOM    102  O4  IDS B   6      58.791  -1.427  20.9960  0.00  0.00     0.000 O
BRANCH 102 106
ATOM    103  C1  IDS B   6      62.385  -1.467  20.4150  0.00  0.00     0.000 C
ATOM    104  C2  IDS B   6      61.705  -2.590  21.2130  0.00  0.00     0.000 C
ATOM    105  C3  IDS B   6      60.737  -2.124  22.2830  0.00  0.00     0.000 C
ATOM    106  C4  IDS B   6      59.880  -0.955  21.8290  0.00  0.00     0.000 C
ATOM    107  C5  IDS B   6      60.745   0.058  21.0730  0.00  0.00     0.000 C
ATOM    108  O5  IDS B   6      61.417  -0.539  19.9630  0.00  0.00     0.000 O
ATOM    109   O  IDS B   6      61.486  -1.781  23.4370  0.00  0.00     0.000 O
ATOM    111  HD  IDS B   6      62.278  -1.611  23.1290  0.00  0.00     0.000 HD
BRANCH 104 111
ATOM    111   O  IDS B   6      60.903  -3.413  20.2950  0.00  0.00     0.000 O
ATOM    112   S  IDS B   6      61.434  -4.881  19.9400  0.00  0.00     0.000 S
ATOM    113   O  IDS B   6      62.750  -4.664  19.3600  0.00  0.00     0.000 OA
ATOM    114   O  IDS B   6      61.430  -5.685  21.1670  0.00  0.00     0.000 OA
ATOM    115   O  IDS B   6      60.424  -5.268  18.9780  0.00  0.00     0.000 OA
ENDBRANCH 104 111
BRANCH 107 116
ATOM    116   C  IDS B   6      59.870   1.207  20.5910  0.00  0.00     0.000 C
ATOM    117   O  IDS B   6      59.571   2.040  21.4090  0.00  0.00     0.000 OA
ATOM    118   O  IDS B   6      59.486   1.272  19.4340  0.00  0.00     0.000 OA
ENDBRANCH 107 116
BRANCH 103 119
ATOM    119  O4  SGN B   7      63.413  -1.081  21.2150  0.00  0.00     0.000 O
BRANCH 119 123
ATOM    120  C1  SGN B   7      66.666   1.525  20.8740  0.00  0.00     0.000 C
ATOM    121  C2  SGN B   7      65.341   2.103  21.4070  0.00  0.00     0.000 C
ATOM    122  C3  SGN B   7      64.400   0.975  21.8470  0.00  0.00     0.000 C
ATOM    123  C4  SGN B   7      64.225  -0.020  20.7110  0.00  0.00     0.000 C
ATOM    124  C5  SGN B   7      65.599  -0.531  20.2480  0.00  0.00     0.000 C
ATOM    125  O5  SGN B   7      66.450   0.563  19.8420  0.00  0.00     0.000 O
ATOM    126   O  SGN B   7      63.146   1.542  22.2420  0.00  0.00     0.000 O
ATOM    128  HD  SGN B   7      63.973   1.669  22.0210  0.00  0.00     0.000 HD
BRANCH 121 130
ATOM    128   N  SGN B   7      66.196   3.159  21.9560  0.00  0.00     0.000 N
ATOM    130  HD  SGN B   7      66.182   3.575  21.1970  0.00  0.00     0.000 HD
ATOM    130   S  SGN B   7      65.632   4.625  22.3080  0.00  0.00     0.000 S
ATOM    131   O  SGN B   7      64.474   4.398  23.1030  0.00  0.00     0.000 OA
ATOM    132   O  SGN B   7      66.704   5.407  22.8100  0.00  0.00     0.000 OA
ATOM    133   O  SGN B   7      65.378   5.182  20.8660  0.00  0.00     0.000 OA
ENDBRANCH 121 130
BRANCH 124 134
ATOM    134   C  SGN B   7      65.538  -1.433  19.0500  0.00  0.00     0.000 C
ATOM    135   O  SGN B   7      66.816  -1.406  18.3910  0.00  0.00     0.000 O
ATOM    136   S  SGN B   7      67.009  -2.406  17.1960  0.00  0.00     0.000 S
ATOM    137   O  SGN B   7      68.309  -2.124  16.6360  0.00  0.00     0.000 OA
ATOM    138   O  SGN B   7      65.926  -2.118  16.2830  0.00  0.00     0.000 OA
ATOM    139   O  SGN B   7      66.915  -3.701  17.8530  0.00  0.00     0.000 OA
ENDBRANCH 124 134
BRANCH 120 140
ATOM    140  O4  IDS B   8      67.619   0.885  21.5600  0.00  0.00     0.000 O
BRANCH 140 144
ATOM    141  C1  IDS B   8      69.714  -1.179  23.6370  0.00  0.00     0.000 C
ATOM    142  C2  IDS B   8      68.787  -0.097  24.2610  0.00  0.00     0.000 C
ATOM    143  C3  IDS B   8      68.908   1.274  23.5690  0.00  0.00     0.000 C
ATOM    144  C4  IDS B   8      68.941   1.146  22.0470  0.00  0.00     0.000 C
ATOM    145  C5  IDS B   8      69.891   0.013  21.6310  0.00  0.00     0.000 C
ATOM    146  O5  IDS B   8      69.523  -1.229  22.2290  0.00  0.00     0.000 O
BRANCH 142 147
ATOM    147   O  IDS B   8      67.369  -0.528  24.1380  0.00  0.00     0.000 O
ATOM    148   S  IDS B   8      66.469  -0.828  25.4530  0.00  0.00     0.000 S
ATOM    149   O  IDS B   8      67.369  -0.979  26.5740  0.00  0.00     0.000 OA
ATOM    150   O  IDS B   8      65.589   0.317  25.5900  0.00  0.00     0.000 OA
ATOM    151   O  IDS B   8      65.761  -2.059  25.1580  0.00  0.00     0.000 OA
ENDBRANCH 142 147
BRANCH 145 152
ATOM    152   C  IDS B   8      69.891  -0.229  20.1350  0.00  0.00     0.000 C
ATOM    153   O  IDS B   8      69.721  -1.364  19.7060  0.00  0.00     0.000 OA
ATOM    154   O  IDS B   8      70.039   0.711  19.3740  0.00  0.00     0.000 OA
ENDBRANCH 145 152
ENDBRANCH 140 144
ENDBRANCH 120 140
ENDBRANCH 119 123
ENDBRANCH 103 119
ENDBRANCH 102 106
ENDBRANCH 82 102
ENDBRANCH 81 85
ENDBRANCH 65 81
ENDBRANCH 64 68
ENDBRANCH 41 64
ENDBRANCH 40 44
ENDBRANCH 24 40
ENDBRANCH 23 27
ENDBRANCH 1 23
TORSDOF 31
ENDMDL
MODEL 50
REMARK VINA RESULT:      -6.4     39.439     44.208
ROOT
ATOM      1  C1  SGN B   1       5.901  -9.730  10.3150  0.00  0.00     0.000 C
ATOM      2  C2  SGN B   1       6.987  -8.670  10.0720  0.00  0.00     0.000 C
ATOM      3  C3  SGN B   1       6.477  -7.578   9.1250  0.00  0.00     0.000 C
ATOM      4  C4  SGN B   1       5.984  -8.199   7.8220  0.00  0.00     0.000 C
ATOM      5  C5  SGN B   1       5.018  -9.337   8.1460  0.00  0.00     0.000 C
ATOM      6  O5  SGN B   1       5.661 -10.279   9.0260  0.00  0.00     0.000 O
ATOM      7   O  SGN B   1       7.499  -6.622   8.8670  0.00  0.00     0.000 O
ATOM      9  HD  SGN B   1       7.855  -7.349   8.5580  0.00  0.00     0.000 HD
ATOM      9   O  SGN B   1       5.331  -7.210   7.0470  0.00  0.00     0.000 O
ATOM     11  HD  SGN B   1       5.688  -7.937   6.7380  0.00  0.00     0.000 HD
ENDROOT
BRANCH 2 13
ATOM     11   N  SGN B   1       8.052  -9.251  10.9110  0.00  0.00     0.000 N
ATOM     13  HD  SGN B   1       7.290  -9.029  11.2580  0.00  0.00     0.000 HD
ATOM     13   S  SGN B   1       8.187  -8.919  12.4790  0.00  0.00     0.000 S
ATOM     14   O  SGN B   1       7.137  -8.071  12.8890  0.00  0.00     0.000 OA
ATOM     15   O  SGN B   1       8.415 -10.139  13.1790  0.00  0.00     0.000 OA
ATOM     16   O  SGN B   1       9.547  -8.156  12.4300  0.00  0.00     0.000 OA
ENDBRANCH 2 13
BRANCH 5 17
ATOM     17   C  SGN B   1       4.544 -10.103   6.9360  0.00  0.00     0.000 C
ATOM     18   O  SGN B   1       5.646 -10.413   6.0590  0.00  0.00     0.000 O
ATOM     19   S  SGN B   1       5.397 -10.154   4.5010  0.00  0.00     0.000 S
ATOM     20   O  SGN B   1       6.533 -10.753   3.8350  0.00  0.00     0.000 OA
ATOM     21   O  SGN B   1       4.147 -10.825   4.2280  0.00  0.00     0.000 OA
ATOM     22   O  SGN B   1       5.335  -8.716   4.3630  0.00  0.00     0.000 OA
ENDBRANCH 5 17
BRANCH 1 23
ATOM     23  O4  IDS B   2       4.864 -10.002  11.1580  0.00  0.00     0.000 O
BRANCH 23 27
ATOM     24  C1  IDS B   2       5.061 -12.572  14.4120  0.00  0.00     0.000 C
ATOM     25  C2  IDS B   2       5.203 -13.239  13.0260  0.00  0.00     0.000 C
ATOM     26  C3  IDS B   2       5.415 -12.192  11.9360  0.00  0.00     0.000 C
ATOM     27  C4  IDS B   2       4.337 -11.117  11.9080  0.00  0.00     0.000 C
ATOM     28  C5  IDS B   2       3.903 -10.769  13.3460  0.00  0.00     0.000 C
ATOM     29  O5  IDS B   2       4.897 -11.153  14.2840  0.00  0.00     0.000 O
ATOM     30   O  IDS B   2       5.416 -12.832  10.6650  0.00  0.00     0.000 O
ATOM     32  HD  IDS B   2       4.621 -13.017  10.3750  0.00  0.00     0.000 HD
BRANCH 25 32
ATOM     32   O  IDS B   2       6.347 -14.181  12.9710  0.00  0.00     0.000 O
ATOM     33   S  IDS B   2       6.162 -15.751  12.4980  0.00  0.00     0.000 S
ATOM     34   O  IDS B   2       7.426 -16.412  12.7840  0.00  0.00     0.000 OA
ATOM     35   O  IDS B   2       5.066 -16.355  13.2420  0.00  0.00     0.000 OA
ATOM     36   O  IDS B   2       5.902 -15.702  11.0780  0.00  0.00     0.000 OA
ENDBRANCH 25 32
BRANCH 28 37
ATOM     37   C  IDS B   2       3.494  -9.311  13.6430  0.00  0.00     0.000 C
ATOM     38   O  IDS B   2       4.316  -8.720  14.3030  0.00  0.00     0.000 OA
ATOM     39   O  IDS B   2       2.473  -8.713  13.2230  0.00  0.00     0.000 OA
ENDBRANCH 28 37
BRANCH 24 40
ATOM     40  O4  SUS B   3       4.799 -13.328  15.4990  0.00  0.00     0.000 O
BRANCH 40 44
ATOM     41  C1  SUS B   3       6.104 -12.830  19.4480  0.00  0.00     0.000 C
ATOM     42  C2  SUS B   3       4.750 -12.198  19.0680  0.00  0.00     0.000 C
ATOM     43  C3  SUS B   3       4.222 -12.864  17.7990  0.00  0.00     0.000 C
ATOM     44  C4  SUS B   3       5.279 -12.760  16.7120  0.00  0.00     0.000 C
ATOM     45  C5  SUS B   3       6.524 -13.494  17.1660  0.00  0.00     0.000 C
ATOM     46  O5  SUS B   3       7.024 -12.841  18.3510  0.00  0.00     0.000 O
BRANCH 42 49
ATOM     47   N  SUS B   3       4.933 -11.526  20.3660  0.00  0.00     0.000 N
ATOM     49  HD  SUS B   3       5.257 -12.008  21.0080  0.00  0.00     0.000 HD
ATOM     49   S  SUS B   3       3.592 -10.828  20.8950  0.00  0.00     0.000 S
ATOM     50   O  SUS B   3       2.562 -11.784  20.9980  0.00  0.00     0.000 OA
ATOM     51   O  SUS B   3       4.129 -10.450  22.2990  0.00  0.00     0.000 OA
ATOM     52   O  SUS B   3       3.336  -9.671  20.1320  0.00  0.00     0.000 OA
ENDBRANCH 42 49
BRANCH 43 53
ATOM     53   O  SUS B   3       3.001 -12.147  17.3830  0.00  0.00     0.000 O
ATOM     54   S  SUS B   3       1.615 -13.025  17.2760  0.00  0.00     0.000 S
ATOM     55   O  SUS B   3       1.202 -13.355  18.6320  0.00  0.00     0.000 OA
ATOM     56   O  SUS B   3       0.694 -12.144  16.5800  0.00  0.00     0.000 OA
ATOM     57   O  SUS B   3       1.947 -14.232  16.5130  0.00  0.00     0.000 OA
ENDBRANCH 43 53
BRANCH 45 58
ATOM     58   C  SUS B   3       7.591 -13.520  16.0940  0.00  0.00     0.000 C
ATOM     59   S  SUS B   3      10.125 -13.735  15.7510  0.00  0.00     0.000 S
ATOM     60   O  SUS B   3       8.853 -13.871  16.6850  0.00  0.00     0.000 O
ATOM     61   O  SUS B   3      10.423 -12.316  15.7180  0.00  0.00     0.000 OA
ATOM     62   O  SUS B   3      11.091 -14.489  16.5040  0.00  0.00     0.000 OA
ATOM     63   O  SUS B   3       9.745 -14.305  14.5070  0.00  0.00     0.000 OA
ENDBRANCH 45 58
BRANCH 41 64
ATOM     64  O4  IDS B   4       5.989 -14.034  20.0980  0.00  0.00     0.000 O
BRANCH 64 68
ATOM     65  C1  IDS B   4       6.206 -16.341  22.9090  0.00  0.00     0.000 C
ATOM     66  C2  IDS B   4       5.698 -14.910  23.1230  0.00  0.00     0.000 C
ATOM     67  C3  IDS B   4       6.547 -13.838  22.4600  0.00  0.00     0.000 C
ATOM     68  C4  IDS B   4       7.030 -14.238  21.0790  0.00  0.00     0.000 C
ATOM     69  C5  IDS B   4       7.528 -15.688  21.1490  0.00  0.00     0.000 C
ATOM     70  O5  IDS B   4       6.444 -16.540  21.5270  0.00  0.00     0.000 O
ATOM     71   O  IDS B   4       7.655 -13.599  23.3040  0.00  0.00     0.000 O
ATOM     73  HD  IDS B   4       6.863 -13.891  23.1070  0.00  0.00     0.000 HD
BRANCH 66 73
ATOM     73   O  IDS B   4       4.366 -14.785  22.5160  0.00  0.00     0.000 O
ATOM     74   S  IDS B   4       3.110 -14.500  23.4950  0.00  0.00     0.000 S
ATOM     75   O  IDS B   4       3.101 -15.569  24.4710  0.00  0.00     0.000 OA
ATOM     76   O  IDS B   4       2.002 -14.537  22.5740  0.00  0.00     0.000 OA
ATOM     77   O  IDS B   4       3.359 -13.201  24.0730  0.00  0.00     0.000 OA
ENDBRANCH 66 73
BRANCH 69 78
ATOM     78   C  IDS B   4       8.249 -16.167  19.8970  0.00  0.00     0.000 C
ATOM     79   O  IDS B   4       9.411 -16.557  19.9960  0.00  0.00     0.000 OA
ATOM     80   O  IDS B   4       7.606 -16.248  18.8340  0.00  0.00     0.000 OA
ENDBRANCH 69 78
BRANCH 65 81
ATOM     81  O4  SGN B   5       7.248 -16.583  23.7520  0.00  0.00     0.000 O
BRANCH 81 85
ATOM     82  C1  SGN B   5       9.065 -19.528  26.1330  0.00  0.00     0.000 C
ATOM     83  C2  SGN B   5       9.215 -19.670  24.6100  0.00  0.00     0.000 C
ATOM     84  C3  SGN B   5       8.920 -18.323  23.9370  0.00  0.00     0.000 C
ATOM     85  C4  SGN B   5       7.542 -17.843  24.3590  0.00  0.00     0.000 C
ATOM     86  C5  SGN B   5       7.523 -17.719  25.8800  0.00  0.00     0.000 C
ATOM     87  O5  SGN B   5       7.786 -19.014  26.4530  0.00  0.00     0.000 O
ATOM     88   O  SGN B   5       9.001 -18.459  22.5350  0.00  0.00     0.000 O
ATOM     90  HD  SGN B   5       9.611 -18.112  23.0420  0.00  0.00     0.000 HD
BRANCH 83 92
ATOM     90   N  SGN B   5      10.417 -20.472  24.9120  0.00  0.00     0.000 N
ATOM     92  HD  SGN B   5      10.515 -20.575  25.7660  0.00  0.00     0.000 HD
ATOM     92   S  SGN B   5      10.684 -21.783  24.0370  0.00  0.00     0.000 S
ATOM     93   O  SGN B   5      11.896 -22.326  24.5730  0.00  0.00     0.000 OA
ATOM     94   O  SGN B   5       9.479 -22.537  24.0940  0.00  0.00     0.000 OA
ATOM     95   O  SGN B   5      10.833 -21.275  22.6200  0.00  0.00     0.000 OA
ENDBRANCH 83 92
BRANCH 86 96
ATOM     96   C  SGN B   5       6.204 -17.234  26.4470  0.00  0.00     0.000 C
ATOM     97   O  SGN B   5       5.672 -18.190  27.3670  0.00  0.00     0.000 O
ATOM     98   S  SGN B   5       5.233 -17.621  28.8010  0.00  0.00     0.000 S
ATOM     99   O  SGN B   5       4.566 -18.752  29.4010  0.00  0.00     0.000 OA
ATOM    100   O  SGN B   5       6.411 -17.204  29.4720  0.00  0.00     0.000 OA
ATOM    101   O  SGN B   5       4.352 -16.540  28.4990  0.00  0.00     0.000 OA
ENDBRANCH 86 96
BRANCH 82 102
ATOM    102  O4  IDS B   6      10.040 -18.753  26.6860  0.00  0.00     0.000 O
BRANCH 102 106
ATOM    103  C1  IDS B   6      12.120 -17.980  29.5730  0.00  0.00     0.000 C
ATOM    104  C2  IDS B   6      11.569 -19.399  29.3580  0.00  0.00     0.000 C
ATOM    105  C3  IDS B   6      10.094 -19.470  29.0130  0.00  0.00     0.000 C
ATOM    106  C4  IDS B   6       9.667 -18.387  28.0390  0.00  0.00     0.000 C
ATOM    107  C5  IDS B   6      10.305 -17.053  28.4370  0.00  0.00     0.000 C
ATOM    108  O5  IDS B   6      11.729 -17.142  28.5020  0.00  0.00     0.000 O
ATOM    109   O  IDS B   6       9.353 -19.384  30.2190  0.00  0.00     0.000 O
ATOM    111  HD  IDS B   6       9.895 -18.991  30.7680  0.00  0.00     0.000 HD
BRANCH 104 111
ATOM    111   O  IDS B   6      12.266 -20.016  28.2190  0.00  0.00     0.000 O
ATOM    112   S  IDS B   6      13.347 -21.156  28.5260  0.00  0.00     0.000 S
ATOM    113   O  IDS B   6      14.324 -20.510  29.3890  0.00  0.00     0.000 OA
ATOM    114   O  IDS B   6      12.657 -22.301  29.1300  0.00  0.00     0.000 OA
ATOM    115   O  IDS B   6      13.821 -21.396  27.1800  0.00  0.00     0.000 OA
ENDBRANCH 104 111
BRANCH 107 116
ATOM    116   C  IDS B   6       9.900 -15.981  27.4330  0.00  0.00     0.000 C
ATOM    117   O  IDS B   6       8.957 -15.291  27.7280  0.00  0.00     0.000 OA
ATOM    118   O  IDS B   6      10.499 -15.838  26.3790  0.00  0.00     0.000 OA
ENDBRANCH 107 116
BRANCH 103 119
ATOM    119  O4  SGN B   7      11.778 -17.694  30.8560  0.00  0.00     0.000 O
BRANCH 119 123
ATOM    120  C1  SGN B   7      13.322 -15.311  33.9260  0.00  0.00     0.000 C
ATOM    121  C2  SGN B   7      12.976 -14.621  32.5930  0.00  0.00     0.000 C
ATOM    122  C3  SGN B   7      12.069 -15.519  31.7420  0.00  0.00     0.000 C
ATOM    123  C4  SGN B   7      12.709 -16.888  31.5790  0.00  0.00     0.000 C
ATOM    124  C5  SGN B   7      13.021 -17.487  32.9600  0.00  0.00     0.000 C
ATOM    125  O5  SGN B   7      13.877 -16.610  33.7250  0.00  0.00     0.000 O
ATOM    126   O  SGN B   7      11.850 -14.891  30.4730  0.00  0.00     0.000 O
ATOM    128  HD  SGN B   7      12.154 -14.830  31.2820  0.00  0.00     0.000 HD
BRANCH 121 130
ATOM    128   N  SGN B   7      13.543 -13.432  33.2340  0.00  0.00     0.000 N
ATOM    130  HD  SGN B   7      14.039 -13.285  32.5390  0.00  0.00     0.000 HD
ATOM    130   S  SGN B   7      13.159 -11.939  32.7680  0.00  0.00     0.000 S
ATOM    131   O  SGN B   7      11.736 -11.913  32.7390  0.00  0.00     0.000 OA
ATOM    132   O  SGN B   7      13.877 -11.021  33.5760  0.00  0.00     0.000 OA
ATOM    133   O  SGN B   7      13.875 -11.885  31.3760  0.00  0.00     0.000 OA
ENDBRANCH 121 130
BRANCH 124 134
ATOM    134   C  SGN B   7      13.761 -18.791  32.9040  0.00  0.00     0.000 C
ATOM    135   O  SGN B   7      14.627 -18.876  34.0480  0.00  0.00     0.000 O
ATOM    136   S  SGN B   7      15.380 -20.239  34.2560  0.00  0.00     0.000 S
ATOM    137   O  SGN B   7      16.255 -20.050  35.3890  0.00  0.00     0.000 OA
ATOM    138   O  SGN B   7      16.096 -20.468  33.0220  0.00  0.00     0.000 OA
ATOM    139   O  SGN B   7      14.287 -21.166  34.5000  0.00  0.00     0.000 OA
ENDBRANCH 124 134
BRANCH 120 140
ATOM    140  O4  IDS B   8      12.502 -15.589  34.9450  0.00  0.00     0.000 O
BRANCH 140 144
ATOM    141  C1  IDS B   8      11.489 -14.793  38.3070  0.00  0.00     0.000 C
ATOM    142  C2  IDS B   8      12.975 -14.663  37.8680  0.00  0.00     0.000 C
ATOM    143  C3  IDS B   8      13.497 -15.908  37.1270  0.00  0.00     0.000 C
ATOM    144  C4  IDS B   8      12.488 -16.431  36.1050  0.00  0.00     0.000 C
ATOM    145  C5  IDS B   8      11.080 -16.462  36.7190  0.00  0.00     0.000 C
ATOM    146  O5  IDS B   8      10.686 -15.178  37.1980  0.00  0.00     0.000 O
BRANCH 142 147
ATOM    147   O  IDS B   8      13.120 -13.508  36.9430  0.00  0.00     0.000 O
ATOM    148   S  IDS B   8      14.462 -12.597  36.9470  0.00  0.00     0.000 S
ATOM    149   O  IDS B   8      15.174 -12.871  38.1750  0.00  0.00     0.000 OA
ATOM    150   O  IDS B   8      15.204 -12.997  35.7660  0.00  0.00     0.000 OA
ATOM    151   O  IDS B   8      13.992 -11.226  36.8870  0.00  0.00     0.000 OA
ENDBRANCH 142 147
BRANCH 145 152
ATOM    152   C  IDS B   8      10.018 -16.878  35.7210  0.00  0.00     0.000 C
ATOM    153   O  IDS B   8      10.242 -17.806  34.9520  0.00  0.00     0.000 OA
ATOM    154   O  IDS B   8       8.946 -16.300  35.7070  0.00  0.00     0.000 OA
ENDBRANCH 145 152
ENDBRANCH 140 144
ENDBRANCH 120 140
ENDBRANCH 119 123
ENDBRANCH 103 119
ENDBRANCH 102 106
ENDBRANCH 82 102
ENDBRANCH 81 85
ENDBRANCH 65 81
ENDBRANCH 64 68
ENDBRANCH 41 64
ENDBRANCH 40 44
ENDBRANCH 24 40
ENDBRANCH 23 27
ENDBRANCH 1 23
TORSDOF 31
ENDMDL
MODEL 51
REMARK VINA RESULT:      -6.4     15.807     25.426
ROOT
ATOM      1  C1  SGN B   1      61.510  -0.433  19.8500  0.00  0.00     0.000 C
ATOM      2  C2  SGN B   1      62.983  -0.212  19.4690  0.00  0.00     0.000 C
ATOM      3  C3  SGN B   1      63.720   0.554  20.5730  0.00  0.00     0.000 C
ATOM      4  C4  SGN B   1      63.004   1.868  20.8700  0.00  0.00     0.000 C
ATOM      5  C5  SGN B   1      61.520   1.588  21.0990  0.00  0.00     0.000 C
ATOM      6  O5  SGN B   1      60.983   0.883  19.9630  0.00  0.00     0.000 O
ATOM      7   O  SGN B   1      65.071   0.796  20.1980  0.00  0.00     0.000 O
ATOM      9  HD  SGN B   1      64.638   1.216  19.5770  0.00  0.00     0.000 HD
ATOM      9   O  SGN B   1      63.572   2.463  22.0230  0.00  0.00     0.000 O
ATOM     11  HD  SGN B   1      63.139   2.883  21.4010  0.00  0.00     0.000 HD
ENDROOT
BRANCH 2 13
ATOM     11   N  SGN B   1      62.947  -0.883  18.1560  0.00  0.00     0.000 N
ATOM     13  HD  SGN B   1      62.766  -1.322  18.8800  0.00  0.00     0.000 HD
ATOM     13   S  SGN B   1      63.243  -2.455  17.9860  0.00  0.00     0.000 S
ATOM     14   O  SGN B   1      63.474  -3.045  19.2460  0.00  0.00     0.000 OA
ATOM     15   O  SGN B   1      62.253  -3.009  17.1250  0.00  0.00     0.000 OA
ATOM     16   O  SGN B   1      64.562  -2.345  17.1600  0.00  0.00     0.000 OA
ENDBRANCH 2 13
BRANCH 5 17
ATOM     17   C  SGN B   1      60.684   2.828  21.2950  0.00  0.00     0.000 C
ATOM     18   O  SGN B   1      61.168   3.910  20.4750  0.00  0.00     0.000 O
ATOM     19   S  SGN B   1      61.290   5.334  21.1930  0.00  0.00     0.000 S
ATOM     20   O  SGN B   1      61.560   6.271  20.1240  0.00  0.00     0.000 OA
ATOM     21   O  SGN B   1      60.001   5.525  21.8180  0.00  0.00     0.000 OA
ATOM     22   O  SGN B   1      62.382   5.192  22.1300  0.00  0.00     0.000 OA
ENDBRANCH 5 17
BRANCH 1 23
ATOM     23  O4  IDS B   2      60.711  -1.331  20.4940  0.00  0.00     0.000 O
BRANCH 23 27
ATOM     24  C1  IDS B   2      57.722  -3.977  21.6310  0.00  0.00     0.000 C
ATOM     25  C2  IDS B   2      59.034  -4.625  21.1370  0.00  0.00     0.000 C
ATOM     26  C3  IDS B   2      60.149  -3.589  21.0320  0.00  0.00     0.000 C
ATOM     27  C4  IDS B   2      59.784  -2.388  20.1700  0.00  0.00     0.000 C
ATOM     28  C5  IDS B   2      58.301  -2.021  20.3790  0.00  0.00     0.000 C
ATOM     29  O5  IDS B   2      57.816  -2.547  21.6060  0.00  0.00     0.000 O
ATOM     30   O  IDS B   2      61.300  -4.196  20.4570  0.00  0.00     0.000 O
ATOM     32  HD  IDS B   2      61.251  -4.274  19.5960  0.00  0.00     0.000 HD
BRANCH 25 32
ATOM     32   O  IDS B   2      59.505  -5.701  22.0440  0.00  0.00     0.000 O
ATOM     33   S  IDS B   2      59.698  -7.255  21.5260  0.00  0.00     0.000 S
ATOM     34   O  IDS B   2      59.946  -8.052  22.7170  0.00  0.00     0.000 OA
ATOM     35   O  IDS B   2      58.492  -7.690  20.8370  0.00  0.00     0.000 OA
ATOM     36   O  IDS B   2      60.852  -7.236  20.6560  0.00  0.00     0.000 OA
ENDBRANCH 25 32
BRANCH 28 37
ATOM     37   C  IDS B   2      57.909  -0.531  20.3010  0.00  0.00     0.000 C
ATOM     38   O  IDS B   2      57.625  -0.181  19.1800  0.00  0.00     0.000 OA
ATOM     39   O  IDS B   2      57.806   0.274  21.2590  0.00  0.00     0.000 OA
ENDBRANCH 28 37
BRANCH 24 40
ATOM     40  O4  SUS B   3      56.599  -4.719  21.7250  0.00  0.00     0.000 O
BRANCH 40 44
ATOM     41  C1  SUS B   3      53.500  -4.590  24.5410  0.00  0.00     0.000 C
ATOM     42  C2  SUS B   3      53.500  -3.507  23.4430  0.00  0.00     0.000 C
ATOM     43  C3  SUS B   3      54.366  -3.975  22.2750  0.00  0.00     0.000 C
ATOM     44  C4  SUS B   3      55.750  -4.326  22.7980  0.00  0.00     0.000 C
ATOM     45  C5  SUS B   3      55.624  -5.458  23.7960  0.00  0.00     0.000 C
ATOM     46  O5  SUS B   3      54.824  -4.996  24.9030  0.00  0.00     0.000 O
BRANCH 42 49
ATOM     47   N  SUS B   3      52.850  -2.534  24.3370  0.00  0.00     0.000 N
ATOM     49  HD  SUS B   3      52.546  -2.841  25.0870  0.00  0.00     0.000 HD
ATOM     49   S  SUS B   3      51.670  -1.725  23.6160  0.00  0.00     0.000 S
ATOM     50   O  SUS B   3      50.707  -2.626  23.1150  0.00  0.00     0.000 OA
ATOM     51   O  SUS B   3      51.140  -1.010  24.8850  0.00  0.00     0.000 OA
ATOM     52   O  SUS B   3      52.224  -0.795  22.7150  0.00  0.00     0.000 OA
ENDBRANCH 42 49
BRANCH 43 53
ATOM     53   O  SUS B   3      54.462  -2.866  21.3060  0.00  0.00     0.000 O
ATOM     54   S  SUS B   3      53.660  -3.043  19.8820  0.00  0.00     0.000 S
ATOM     55   O  SUS B   3      52.235  -2.939  20.1680  0.00  0.00     0.000 OA
ATOM     56   O  SUS B   3      54.171  -1.965  19.0540  0.00  0.00     0.000 OA
ATOM     57   O  SUS B   3      54.003  -4.374  19.3750  0.00  0.00     0.000 OA
ENDBRANCH 43 53
BRANCH 45 58
ATOM     58   C  SUS B   3      56.974  -5.932  24.2890  0.00  0.00     0.000 C
ATOM     59   S  SUS B   3      58.795  -5.431  26.0270  0.00  0.00     0.000 S
ATOM     60   O  SUS B   3      57.320  -5.221  25.4890  0.00  0.00     0.000 O
ATOM     61   O  SUS B   3      59.629  -4.602  25.1780  0.00  0.00     0.000 OA
ATOM     62   O  SUS B   3      58.669  -4.911  27.3620  0.00  0.00     0.000 OA
ATOM     63   O  SUS B   3      59.036  -6.828  25.9390  0.00  0.00     0.000 OA
ENDBRANCH 45 58
BRANCH 41 64
ATOM     64  O4  IDS B   4      52.641  -5.632  24.2900  0.00  0.00     0.000 O
BRANCH 64 68
ATOM     65  C1  IDS B   4      49.838  -7.930  24.6560  0.00  0.00     0.000 C
ATOM     66  C2  IDS B   4      49.586  -6.430  24.4580  0.00  0.00     0.000 C
ATOM     67  C3  IDS B   4      50.443  -5.529  25.3310  0.00  0.00     0.000 C
ATOM     68  C4  IDS B   4      51.875  -6.015  25.4530  0.00  0.00     0.000 C
ATOM     69  C5  IDS B   4      51.846  -7.530  25.6940  0.00  0.00     0.000 C
ATOM     70  O5  IDS B   4      51.231  -8.173  24.5760  0.00  0.00     0.000 O
ATOM     71   O  IDS B   4      49.842  -5.489  26.6090  0.00  0.00     0.000 O
ATOM     73  HD  IDS B   4      49.869  -5.635  25.7560  0.00  0.00     0.000 HD
BRANCH 66 73
ATOM     73   O  IDS B   4      49.926  -6.072  23.0740  0.00  0.00     0.000 O
ATOM     74   S  IDS B   4      48.713  -5.726  22.0610  0.00  0.00     0.000 S
ATOM     75   O  IDS B   4      47.836  -6.877  22.0630  0.00  0.00     0.000 OA
ATOM     76   O  IDS B   4      49.414  -5.525  20.8180  0.00  0.00     0.000 OA
ATOM     77   O  IDS B   4      48.094  -4.535  22.5930  0.00  0.00     0.000 OA
ENDBRANCH 66 73
BRANCH 69 78
ATOM     78   C  IDS B   4      53.196  -8.135  26.0570  0.00  0.00     0.000 C
ATOM     79   O  IDS B   4      53.996  -8.379  25.1540  0.00  0.00     0.000 OA
ATOM     80   O  IDS B   4      53.487  -8.264  27.2600  0.00  0.00     0.000 OA
ENDBRANCH 69 78
BRANCH 65 81
ATOM     81  O4  SGN B   5      49.206  -8.351  25.7870  0.00  0.00     0.000 O
BRANCH 81 85
ATOM     82  C1  SGN B   5      47.927 -11.828  27.7650  0.00  0.00     0.000 C
ATOM     83  C2  SGN B   5      49.279 -11.238  28.1940  0.00  0.00     0.000 C
ATOM     84  C3  SGN B   5      49.370  -9.776  27.7350  0.00  0.00     0.000 C
ATOM     85  C4  SGN B   5      49.136  -9.705  26.2360  0.00  0.00     0.000 C
ATOM     86  C5  SGN B   5      47.760 -10.295  25.9380  0.00  0.00     0.000 C
ATOM     87  O5  SGN B   5      47.742 -11.669  26.3710  0.00  0.00     0.000 O
ATOM     88   O  SGN B   5      50.632  -9.244  28.0760  0.00  0.00     0.000 O
ATOM     90  HD  SGN B   5      49.894  -9.100  28.5050  0.00  0.00     0.000 HD
BRANCH 83 92
ATOM     90   N  SGN B   5      49.188 -11.675  29.6000  0.00  0.00     0.000 N
ATOM     92  HD  SGN B   5      48.375 -11.891  29.8070  0.00  0.00     0.000 HD
ATOM     92   S  SGN B   5      50.312 -12.668  30.1530  0.00  0.00     0.000 S
ATOM     93   O  SGN B   5      49.941 -12.900  31.5160  0.00  0.00     0.000 OA
ATOM     94   O  SGN B   5      50.356 -13.752  29.2310  0.00  0.00     0.000 OA
ATOM     95   O  SGN B   5      51.608 -11.900  30.0090  0.00  0.00     0.000 OA
ENDBRANCH 83 92
BRANCH 86 96
ATOM     96   C  SGN B   5      47.384 -10.280  24.4700  0.00  0.00     0.000 C
ATOM     97   O  SGN B   5      48.293 -11.079  23.7100  0.00  0.00     0.000 O
ATOM     98   S  SGN B   5      47.632 -12.165  22.7330  0.00  0.00     0.000 S
ATOM     99   O  SGN B   5      48.765 -12.647  21.9800  0.00  0.00     0.000 OA
ATOM    100   O  SGN B   5      47.003 -13.143  23.5460  0.00  0.00     0.000 OA
ATOM    101   O  SGN B   5      46.706 -11.417  21.9460  0.00  0.00     0.000 OA
ENDBRANCH 86 96
BRANCH 82 102
ATOM    102  O4  IDS B   6      46.879 -11.286  28.4470  0.00  0.00     0.000 O
BRANCH 102 106
ATOM    103  C1  IDS B   6      44.056 -11.374  30.7450  0.00  0.00     0.000 C
ATOM    104  C2  IDS B   6      45.373 -12.087  31.0900  0.00  0.00     0.000 C
ATOM    105  C3  IDS B   6      45.953 -12.939  29.9780  0.00  0.00     0.000 C
ATOM    106  C4  IDS B   6      45.836 -12.281  28.6140  0.00  0.00     0.000 C
ATOM    107  C5  IDS B   6      44.450 -11.648  28.4620  0.00  0.00     0.000 C
ATOM    108  O5  IDS B   6      44.176 -10.708  29.5020  0.00  0.00     0.000 O
ATOM    109   O  IDS B   6      45.291 -14.193  29.9910  0.00  0.00     0.000 O
ATOM    111  HD  IDS B   6      44.538 -14.026  30.3850  0.00  0.00     0.000 HD
BRANCH 104 111
ATOM    111   O  IDS B   6      46.402 -11.078  31.3840  0.00  0.00     0.000 O
ATOM    112   S  IDS B   6      46.833 -10.864  32.9110  0.00  0.00     0.000 S
ATOM    113   O  IDS B   6      45.600 -10.501  33.5920  0.00  0.00     0.000 OA
ATOM    114   O  IDS B   6      47.458 -12.101  33.3940  0.00  0.00     0.000 OA
ATOM    115   O  IDS B   6      47.757  -9.763  32.7410  0.00  0.00     0.000 OA
ENDBRANCH 104 111
BRANCH 107 116
ATOM    116   C  IDS B   6      44.356 -10.961  27.1060  0.00  0.00     0.000 C
ATOM    117   O  IDS B   6      44.461 -11.664  26.1330  0.00  0.00     0.000 OA
ATOM    118   O  IDS B   6      44.193  -9.754  27.0160  0.00  0.00     0.000 OA
ENDBRANCH 107 116
BRANCH 103 119
ATOM    119  O4  SGN B   7      43.111 -12.328  30.9480  0.00  0.00     0.000 O
BRANCH 119 123
ATOM    120  C1  SGN B   7      39.054 -12.137  31.9460  0.00  0.00     0.000 C
ATOM    121  C2  SGN B   7      39.419 -12.638  30.5360  0.00  0.00     0.000 C
ATOM    122  C3  SGN B   7      40.902 -13.027  30.4700  0.00  0.00     0.000 C
ATOM    123  C4  SGN B   7      41.759 -11.869  30.9530  0.00  0.00     0.000 C
ATOM    124  C5  SGN B   7      41.313 -11.440  32.3600  0.00  0.00     0.000 C
ATOM    125  O5  SGN B   7      39.913 -11.081  32.3750  0.00  0.00     0.000 O
ATOM    126   O  SGN B   7      41.228 -13.393  29.1240  0.00  0.00     0.000 O
ATOM    128  HD  SGN B   7      40.616 -13.201  29.7070  0.00  0.00     0.000 HD
BRANCH 121 130
ATOM    128   N  SGN B   7      38.021 -13.074  30.5460  0.00  0.00     0.000 N
ATOM    130  HD  SGN B   7      37.784 -12.352  30.1320  0.00  0.00     0.000 HD
ATOM    130   S  SGN B   7      37.272 -13.593  29.2180  0.00  0.00     0.000 S
ATOM    131   O  SGN B   7      38.141 -14.572  28.6590  0.00  0.00     0.000 OA
ATOM    132   O  SGN B   7      35.938 -13.931  29.5610  0.00  0.00     0.000 OA
ATOM    133   O  SGN B   7      37.149 -12.250  28.4220  0.00  0.00     0.000 OA
ENDBRANCH 121 130
BRANCH 124 134
ATOM    134   C  SGN B   7      42.025 -10.225  32.8780  0.00  0.00     0.000 C
ATOM    135   O  SGN B   7      41.587  -9.082  32.1250  0.00  0.00     0.000 O
ATOM    136   S  SGN B   7      42.103  -7.681  32.6150  0.00  0.00     0.000 S
ATOM    137   O  SGN B   7      41.625  -6.714  31.6570  0.00  0.00     0.000 OA
ATOM    138   O  SGN B   7      43.544  -7.794  32.6340  0.00  0.00     0.000 OA
ATOM    139   O  SGN B   7      41.491  -7.565  33.9300  0.00  0.00     0.000 OA
ENDBRANCH 124 134
BRANCH 120 140
ATOM    140  O4  IDS B   8      39.005 -12.841  33.0820  0.00  0.00     0.000 O
BRANCH 140 144
ATOM    141  C1  IDS B   8      38.147 -14.693  36.0470  0.00  0.00     0.000 C
ATOM    142  C2  IDS B   8      39.111 -13.475  36.1170  0.00  0.00     0.000 C
ATOM    143  C3  IDS B   8      40.225 -13.526  35.0550  0.00  0.00     0.000 C
ATOM    144  C4  IDS B   8      39.692 -13.944  33.6850  0.00  0.00     0.000 C
ATOM    145  C5  IDS B   8      38.743 -15.142  33.8300  0.00  0.00     0.000 C
ATOM    146  O5  IDS B   8      37.665 -14.857  34.7190  0.00  0.00     0.000 O
BRANCH 142 147
ATOM    147   O  IDS B   8      38.343 -12.222  35.8900  0.00  0.00     0.000 O
ATOM    148   S  IDS B   8      38.811 -10.822  36.5620  0.00  0.00     0.000 S
ATOM    149   O  IDS B   8      39.746 -11.134  37.6190  0.00  0.00     0.000 OA
ATOM    150   O  IDS B   8      39.415 -10.059  35.4850  0.00  0.00     0.000 OA
ATOM    151   O  IDS B   8      37.595 -10.219  37.0740  0.00  0.00     0.000 OA
ENDBRANCH 142 147
BRANCH 145 152
ATOM    152   C  IDS B   8      38.104 -15.542  32.5150  0.00  0.00     0.000 C
ATOM    153   O  IDS B   8      38.805 -15.985  31.6120  0.00  0.00     0.000 OA
ATOM    154   O  IDS B   8      36.898 -15.438  32.3760  0.00  0.00     0.000 OA
ENDBRANCH 145 152
ENDBRANCH 140 144
ENDBRANCH 120 140
ENDBRANCH 119 123
ENDBRANCH 103 119
ENDBRANCH 102 106
ENDBRANCH 82 102
ENDBRANCH 81 85
ENDBRANCH 65 81
ENDBRANCH 64 68
ENDBRANCH 41 64
ENDBRANCH 40 44
ENDBRANCH 24 40
ENDBRANCH 23 27
ENDBRANCH 1 23
TORSDOF 31
ENDMDL
MODEL 52
REMARK VINA RESULT:      -6.4     40.086     46.481
ROOT
ATOM      1  C1  SGN B   1       5.563  -9.298   6.8090  0.00  0.00     0.000 C
ATOM      2  C2  SGN B   1       6.576  -8.147   6.9280  0.00  0.00     0.000 C
ATOM      3  C3  SGN B   1       6.642  -7.345   5.6240  0.00  0.00     0.000 C
ATOM      4  C4  SGN B   1       6.962  -8.269   4.4540  0.00  0.00     0.000 C
ATOM      5  C5  SGN B   1       6.007  -9.460   4.4820  0.00  0.00     0.000 C
ATOM      6  O5  SGN B   1       6.085 -10.109   5.7660  0.00  0.00     0.000 O
ATOM      7   O  SGN B   1       7.612  -6.309   5.7230  0.00  0.00     0.000 O
ATOM      9  HD  SGN B   1       8.098  -7.017   5.8360  0.00  0.00     0.000 HD
ATOM      9   O  SGN B   1       6.818  -7.556   3.2390  0.00  0.00     0.000 O
ATOM     11  HD  SGN B   1       7.304  -8.264   3.3520  0.00  0.00     0.000 HD
ENDROOT
BRANCH 2 13
ATOM     11   N  SGN B   1       6.896  -8.520   8.3190  0.00  0.00     0.000 N
ATOM     13  HD  SGN B   1       6.132  -8.161   8.1250  0.00  0.00     0.000 HD
ATOM     13   S  SGN B   1       6.261  -7.752   9.5830  0.00  0.00     0.000 S
ATOM     14   O  SGN B   1       5.360  -6.759   9.1440  0.00  0.00     0.000 OA
ATOM     15   O  SGN B   1       5.825  -8.724  10.5280  0.00  0.00     0.000 OA
ATOM     16   O  SGN B   1       7.573  -7.121  10.1420  0.00  0.00     0.000 OA
ENDBRANCH 2 13
BRANCH 5 17
ATOM     17   C  SGN B   1       6.297 -10.504   3.4320  0.00  0.00     0.000 C
ATOM     18   O  SGN B   1       7.717 -10.695   3.2740  0.00  0.00     0.000 O
ATOM     19   S  SGN B   1       8.252 -10.762   1.7690  0.00  0.00     0.000 S
ATOM     20   O  SGN B   1       9.631 -11.188   1.8800  0.00  0.00     0.000 OA
ATOM     21   O  SGN B   1       7.396 -11.736   1.1330  0.00  0.00     0.000 OA
ATOM     22   O  SGN B   1       8.100  -9.419   1.2540  0.00  0.00     0.000 OA
ENDBRANCH 5 17
BRANCH 1 23
ATOM     23  O4  IDS B   2       4.241  -9.562   7.0130  0.00  0.00     0.000 O
BRANCH 23 27
ATOM     24  C1  IDS B   2       2.899 -10.865  10.7190  0.00  0.00     0.000 C
ATOM     25  C2  IDS B   2       3.657 -11.915   9.8780  0.00  0.00     0.000 C
ATOM     26  C3  IDS B   2       4.355 -11.261   8.6880  0.00  0.00     0.000 C
ATOM     27  C4  IDS B   2       3.419 -10.441   7.8100  0.00  0.00     0.000 C
ATOM     28  C5  IDS B   2       2.375  -9.718   8.6850  0.00  0.00     0.000 C
ATOM     29  O5  IDS B   2       2.824  -9.611  10.0280  0.00  0.00     0.000 O
ATOM     30   O  IDS B   2       4.934 -12.271   7.8710  0.00  0.00     0.000 O
ATOM     32  HD  IDS B   2       4.360 -12.665   7.3560  0.00  0.00     0.000 HD
BRANCH 25 32
ATOM     32   O  IDS B   2       4.690 -12.628  10.6680  0.00  0.00     0.000 O
ATOM     33   S  IDS B   2       4.612 -14.253  10.9400  0.00  0.00     0.000 S
ATOM     34   O  IDS B   2       5.646 -14.550  11.9190  0.00  0.00     0.000 OA
ATOM     35   O  IDS B   2       3.289 -14.597  11.4420  0.00  0.00     0.000 OA
ATOM     36   O  IDS B   2       4.898 -14.876   9.6680  0.00  0.00     0.000 OA
ENDBRANCH 25 32
BRANCH 28 37
ATOM     37   C  IDS B   2       1.887  -8.328   8.2250  0.00  0.00     0.000 C
ATOM     38   O  IDS B   2       2.652  -7.441   8.5250  0.00  0.00     0.000 OA
ATOM     39   O  IDS B   2       0.860  -8.074   7.5500  0.00  0.00     0.000 OA
ENDBRANCH 28 37
BRANCH 24 40
ATOM     40  O4  SUS B   3       2.161 -11.257  11.7790  0.00  0.00     0.000 O
BRANCH 40 44
ATOM     41  C1  SUS B   3       1.984  -9.462  15.5590  0.00  0.00     0.000 C
ATOM     42  C2  SUS B   3       0.766  -9.275  14.6330  0.00  0.00     0.000 C
ATOM     43  C3  SUS B   3       0.788 -10.352  13.5500  0.00  0.00     0.000 C
ATOM     44  C4  SUS B   3       2.126 -10.298  12.8300  0.00  0.00     0.000 C
ATOM     45  C5  SUS B   3       3.231 -10.586  13.8260  0.00  0.00     0.000 C
ATOM     46  O5  SUS B   3       3.213  -9.551  14.8300  0.00  0.00     0.000 O
BRANCH 42 49
ATOM     47   N  SUS B   3      -0.231  -8.253  14.2710  0.00  0.00     0.000 N
ATOM     49  HD  SUS B   3       0.068  -7.547  13.8660  0.00  0.00     0.000 HD
ATOM     49   S  SUS B   3      -1.108  -7.774  15.5230  0.00  0.00     0.000 S
ATOM     50   O  SUS B   3      -0.265  -7.276  16.5370  0.00  0.00     0.000 OA
ATOM     51   O  SUS B   3      -1.837  -6.614  14.7980  0.00  0.00     0.000 OA
ATOM     52   O  SUS B   3      -2.017  -8.792  15.8720  0.00  0.00     0.000 OA
ENDBRANCH 42 49
BRANCH 43 53
ATOM     53   O  SUS B   3      -0.305 -10.064  12.6000  0.00  0.00     0.000 O
ATOM     54   S  SUS B   3      -1.480 -11.203  12.4420  0.00  0.00     0.000 S
ATOM     55   O  SUS B   3      -2.268 -11.189  13.6670  0.00  0.00     0.000 OA
ATOM     56   O  SUS B   3      -2.219 -10.784  11.2650  0.00  0.00     0.000 OA
ATOM     57   O  SUS B   3      -0.793 -12.486  12.2670  0.00  0.00     0.000 OA
ENDBRANCH 43 53
BRANCH 45 58
ATOM     58   C  SUS B   3       4.589 -10.649  13.1630  0.00  0.00     0.000 C
ATOM     59   S  SUS B   3       7.104 -10.603  13.6730  0.00  0.00     0.000 S
ATOM     60   O  SUS B   3       5.608 -10.745  14.1730  0.00  0.00     0.000 O
ATOM     61   O  SUS B   3       7.302  -9.180  13.4680  0.00  0.00     0.000 OA
ATOM     62   O  SUS B   3       7.817 -11.104  14.8170  0.00  0.00     0.000 OA
ATOM     63   O  SUS B   3       7.192 -11.403  12.5030  0.00  0.00     0.000 OA
ENDBRANCH 45 58
BRANCH 41 64
ATOM     64  O4  IDS B   4       1.817 -10.447  16.5010  0.00  0.00     0.000 O
BRANCH 64 68
ATOM     65  C1  IDS B   4       1.437 -11.725  19.8920  0.00  0.00     0.000 C
ATOM     66  C2  IDS B   4       0.839 -10.366  19.5070  0.00  0.00     0.000 C
ATOM     67  C3  IDS B   4       1.780  -9.463  18.7280  0.00  0.00     0.000 C
ATOM     68  C4  IDS B   4       2.598 -10.215  17.6940  0.00  0.00     0.000 C
ATOM     69  C5  IDS B   4       3.119 -11.504  18.3440  0.00  0.00     0.000 C
ATOM     70  O5  IDS B   4       2.009 -12.315  18.7380  0.00  0.00     0.000 O
ATOM     71   O  IDS B   4       2.642  -8.849  19.6640  0.00  0.00     0.000 O
ATOM     73  HD  IDS B   4       1.933  -9.276  19.4080  0.00  0.00     0.000 HD
BRANCH 66 73
ATOM     73   O  IDS B   4      -0.311 -10.590  18.6200  0.00  0.00     0.000 O
ATOM     74   S  IDS B   4      -1.756 -10.848  19.3020  0.00  0.00     0.000 S
ATOM     75   O  IDS B   4      -1.595 -11.982  20.1860  0.00  0.00     0.000 OA
ATOM     76   O  IDS B   4      -2.583 -11.112  18.1530  0.00  0.00     0.000 OA
ATOM     77   O  IDS B   4      -2.077  -9.624  19.9970  0.00  0.00     0.000 OA
ENDBRANCH 66 73
BRANCH 69 78
ATOM     78   C  IDS B   4       4.139 -12.264  17.5050  0.00  0.00     0.000 C
ATOM     79   O  IDS B   4       3.803 -12.673  16.3950  0.00  0.00     0.000 OA
ATOM     80   O  IDS B   4       5.307 -12.353  17.9250  0.00  0.00     0.000 OA
ENDBRANCH 69 78
BRANCH 65 81
ATOM     81  O4  SGN B   5       2.254 -11.571  20.9710  0.00  0.00     0.000 O
BRANCH 81 85
ATOM     82  C1  SGN B   5       5.002 -13.612  23.4030  0.00  0.00     0.000 C
ATOM     83  C2  SGN B   5       5.562 -12.904  22.1600  0.00  0.00     0.000 C
ATOM     84  C3  SGN B   5       4.553 -11.857  21.6680  0.00  0.00     0.000 C
ATOM     85  C4  SGN B   5       3.214 -12.529  21.4210  0.00  0.00     0.000 C
ATOM     86  C5  SGN B   5       2.753 -13.173  22.7250  0.00  0.00     0.000 C
ATOM     87  O5  SGN B   5       3.726 -14.156  23.1250  0.00  0.00     0.000 O
ATOM     88   O  SGN B   5       5.035 -11.242  20.4930  0.00  0.00     0.000 O
ATOM     90  HD  SGN B   5       5.059 -10.897  21.2870  0.00  0.00     0.000 HD
BRANCH 83 92
ATOM     90   N  SGN B   5       6.829 -13.082  22.8960  0.00  0.00     0.000 N
ATOM     92  HD  SGN B   5       6.742 -13.666  23.5290  0.00  0.00     0.000 HD
ATOM     92   S  SGN B   5       8.180 -13.200  22.0490  0.00  0.00     0.000 S
ATOM     93   O  SGN B   5       9.204 -13.367  23.0360  0.00  0.00     0.000 OA
ATOM     94   O  SGN B   5       7.943 -14.220  21.0860  0.00  0.00     0.000 OA
ATOM     95   O  SGN B   5       8.280 -11.888  21.3010  0.00  0.00     0.000 OA
ENDBRANCH 83 92
BRANCH 86 96
ATOM     96   C  SGN B   5       1.414 -13.876  22.6310  0.00  0.00     0.000 C
ATOM     97   O  SGN B   5       0.701 -13.766  23.8650  0.00  0.00     0.000 O
ATOM     98   S  SGN B   5      -0.811 -13.242  23.7620  0.00  0.00     0.000 S
ATOM     99   O  SGN B   5      -1.307 -13.435  25.1040  0.00  0.00     0.000 OA
ATOM    100   O  SGN B   5      -0.766 -11.889  23.3360  0.00  0.00     0.000 OA
ATOM    101   O  SGN B   5      -1.422 -14.106  22.8050  0.00  0.00     0.000 OA
ENDBRANCH 86 96
BRANCH 82 102
ATOM    102  O4  IDS B   6       4.942 -12.793  24.4910  0.00  0.00     0.000 O
BRANCH 102 106
ATOM    103  C1  IDS B   6       5.956 -11.636  27.7910  0.00  0.00     0.000 C
ATOM    104  C2  IDS B   6       7.005 -12.046  26.7460  0.00  0.00     0.000 C
ATOM    105  C3  IDS B   6       6.732 -13.361  26.0420  0.00  0.00     0.000 C
ATOM    106  C4  IDS B   6       5.266 -13.544  25.6890  0.00  0.00     0.000 C
ATOM    107  C5  IDS B   6       4.391 -13.098  26.8640  0.00  0.00     0.000 C
ATOM    108  O5  IDS B   6       4.656 -11.746  27.2430  0.00  0.00     0.000 O
ATOM    109   O  IDS B   6       7.182 -14.412  26.8810  0.00  0.00     0.000 O
ATOM    111  HD  IDS B   6       7.180 -14.063  27.6730  0.00  0.00     0.000 HD
BRANCH 104 111
ATOM    111   O  IDS B   6       7.039 -11.034  25.6790  0.00  0.00     0.000 O
ATOM    112   S  IDS B   6       8.299 -10.049  25.6140  0.00  0.00     0.000 S
ATOM    113   O  IDS B   6       8.307  -9.380  26.9060  0.00  0.00     0.000 OA
ATOM    114   O  IDS B   6       9.498 -10.847  25.3300  0.00  0.00     0.000 OA
ATOM    115   O  IDS B   6       7.879  -9.204  24.5180  0.00  0.00     0.000 OA
ENDBRANCH 104 111
BRANCH 107 116
ATOM    116   C  IDS B   6       2.923 -13.251  26.4860  0.00  0.00     0.000 C
ATOM    117   O  IDS B   6       2.275 -12.238  26.4100  0.00  0.00     0.000 OA
ATOM    118   O  IDS B   6       2.431 -14.349  26.2820  0.00  0.00     0.000 OA
ENDBRANCH 107 116
BRANCH 103 119
ATOM    119  O4  SGN B   7       6.317 -12.334  28.8990  0.00  0.00     0.000 O
BRANCH 119 123
ATOM    120  C1  SGN B   7       6.269 -11.708  33.0340  0.00  0.00     0.000 C
ATOM    121  C2  SGN B   7       4.920 -11.965  32.3360  0.00  0.00     0.000 C
ATOM    122  C3  SGN B   7       5.142 -12.563  30.9410  0.00  0.00     0.000 C
ATOM    123  C4  SGN B   7       6.087 -11.677  30.1460  0.00  0.00     0.000 C
ATOM    124  C5  SGN B   7       7.396 -11.476  30.9280  0.00  0.00     0.000 C
ATOM    125  O5  SGN B   7       7.140 -10.911  32.2330  0.00  0.00     0.000 O
ATOM    126   O  SGN B   7       3.876 -12.697  30.2840  0.00  0.00     0.000 O
ATOM    128  HD  SGN B   7       4.313 -12.532  31.0140  0.00  0.00     0.000 HD
BRANCH 121 130
ATOM    128   N  SGN B   7       3.821 -11.392  33.1160  0.00  0.00     0.000 N
ATOM    130  HD  SGN B   7       3.243 -11.775  32.5970  0.00  0.00     0.000 HD
ATOM    130   S  SGN B   7       2.913 -12.282  34.1040  0.00  0.00     0.000 S
ATOM    131   O  SGN B   7       3.838 -12.998  34.9150  0.00  0.00     0.000 OA
ATOM    132   O  SGN B   7       1.941 -11.438  34.7000  0.00  0.00     0.000 OA
ATOM    133   O  SGN B   7       2.113 -13.133  33.0610  0.00  0.00     0.000 OA
ENDBRANCH 121 130
BRANCH 124 134
ATOM    134   C  SGN B   7       8.351 -10.520  30.2770  0.00  0.00     0.000 C
ATOM    135   O  SGN B   7       9.683 -10.827  30.7240  0.00  0.00     0.000 O
ATOM    136   S  SGN B   7      10.852 -10.034  30.0380  0.00  0.00     0.000 S
ATOM    137   O  SGN B   7      12.064 -10.431  30.7140  0.00  0.00     0.000 OA
ATOM    138   O  SGN B   7      10.528  -8.639  30.2320  0.00  0.00     0.000 OA
ATOM    139   O  SGN B   7      10.769 -10.486  28.6570  0.00  0.00     0.000 OA
ENDBRANCH 124 134
BRANCH 120 140
ATOM    140  O4  IDS B   8       7.154 -12.610  33.4710  0.00  0.00     0.000 O
BRANCH 140 144
ATOM    141  C1  IDS B   8       9.220 -15.559  33.4900  0.00  0.00     0.000 C
ATOM    142  C2  IDS B   8       7.785 -15.591  32.8900  0.00  0.00     0.000 C
ATOM    143  C3  IDS B   8       6.729 -14.966  33.8190  0.00  0.00     0.000 C
ATOM    144  C4  IDS B   8       7.217 -13.660  34.4440  0.00  0.00     0.000 C
ATOM    145  C5  IDS B   8       8.657 -13.823  34.9540  0.00  0.00     0.000 C
ATOM    146  O5  IDS B   8       9.539 -14.240  33.9150  0.00  0.00     0.000 O
BRANCH 142 147
ATOM    147   O  IDS B   8       7.762 -14.823  31.6170  0.00  0.00     0.000 O
ATOM    148   S  IDS B   8       7.808 -15.579  30.1830  0.00  0.00     0.000 S
ATOM    149   O  IDS B   8       8.253 -16.935  30.4170  0.00  0.00     0.000 OA
ATOM    150   O  IDS B   8       6.453 -15.514  29.6680  0.00  0.00     0.000 OA
ATOM    151   O  IDS B   8       8.758 -14.828  29.3850  0.00  0.00     0.000 OA
ENDBRANCH 142 147
BRANCH 145 152
ATOM    152   C  IDS B   8       9.233 -12.531  35.4970  0.00  0.00     0.000 C
ATOM    153   O  IDS B   8      10.318 -12.134  35.0870  0.00  0.00     0.000 OA
ATOM    154   O  IDS B   8       8.604 -11.890  36.3190  0.00  0.00     0.000 OA
ENDBRANCH 145 152
ENDBRANCH 140 144
ENDBRANCH 120 140
ENDBRANCH 119 123
ENDBRANCH 103 119
ENDBRANCH 102 106
ENDBRANCH 82 102
ENDBRANCH 81 85
ENDBRANCH 65 81
ENDBRANCH 64 68
ENDBRANCH 41 64
ENDBRANCH 40 44
ENDBRANCH 24 40
ENDBRANCH 23 27
ENDBRANCH 1 23
TORSDOF 31
ENDMDL
MODEL 53
REMARK VINA RESULT:      -6.3     37.892     43.712
ROOT
ATOM      1  C1  SGN B   1       6.001  16.316   0.8020  0.00  0.00     0.000 C
ATOM      2  C2  SGN B   1       6.556  16.973  -0.4730  0.00  0.00     0.000 C
ATOM      3  C3  SGN B   1       8.050  16.674  -0.6320  0.00  0.00     0.000 C
ATOM      4  C4  SGN B   1       8.811  17.115   0.6150  0.00  0.00     0.000 C
ATOM      5  C5  SGN B   1       8.121  16.540   1.8500  0.00  0.00     0.000 C
ATOM      6  O5  SGN B   1       6.734  16.932   1.8530  0.00  0.00     0.000 O
ATOM      7   O  SGN B   1       8.570  17.320  -1.7880  0.00  0.00     0.000 O
ATOM      9  HD  SGN B   1       8.298  17.994  -1.3170  0.00  0.00     0.000 HD
ATOM      9   O  SGN B   1      10.146  16.649   0.5400  0.00  0.00     0.000 O
ATOM     11  HD  SGN B   1       9.874  17.323   1.0120  0.00  0.00     0.000 HD
ENDROOT
BRANCH 2 13
ATOM     11   N  SGN B   1       5.297  17.598  -0.9210  0.00  0.00     0.000 N
ATOM     13  HD  SGN B   1       5.360  16.737  -0.8480  0.00  0.00     0.000 HD
ATOM     13   S  SGN B   1       4.261  16.842  -1.8930  0.00  0.00     0.000 S
ATOM     14   O  SGN B   1       4.723  15.539  -2.1750  0.00  0.00     0.000 OA
ATOM     15   O  SGN B   1       2.946  17.023  -1.3780  0.00  0.00     0.000 OA
ATOM     16   O  SGN B   1       4.401  17.775  -3.1360  0.00  0.00     0.000 OA
ENDBRANCH 2 13
BRANCH 5 17
ATOM     17   C  SGN B   1       8.720  16.998   3.1570  0.00  0.00     0.000 C
ATOM     18   O  SGN B   1       7.689  17.374   4.0920  0.00  0.00     0.000 O
ATOM     19   S  SGN B   1       7.926  18.743   4.8850  0.00  0.00     0.000 S
ATOM     20   O  SGN B   1       6.898  18.770   5.9030  0.00  0.00     0.000 OA
ATOM     21   O  SGN B   1       9.263  18.615   5.4160  0.00  0.00     0.000 OA
ATOM     22   O  SGN B   1       7.786  19.784   3.8910  0.00  0.00     0.000 OA
ENDBRANCH 5 17
BRANCH 1 23
ATOM     23  O4  IDS B   2       5.434  15.151   1.2250  0.00  0.00     0.000 O
BRANCH 23 27
ATOM     24  C1  IDS B   2       4.700  11.068   1.3700  0.00  0.00     0.000 C
ATOM     25  C2  IDS B   2       5.508  11.557   0.1480  0.00  0.00     0.000 C
ATOM     26  C3  IDS B   2       5.972  12.998   0.3420  0.00  0.00     0.000 C
ATOM     27  C4  IDS B   2       4.839  13.964   0.6600  0.00  0.00     0.000 C
ATOM     28  C5  IDS B   2       3.800  13.277   1.5690  0.00  0.00     0.000 C
ATOM     29  O5  IDS B   2       4.370  12.161   2.2370  0.00  0.00     0.000 O
ATOM     30   O  IDS B   2       6.602  13.452  -0.8500  0.00  0.00     0.000 O
ATOM     32  HD  IDS B   2       6.040  13.685  -1.4660  0.00  0.00     0.000 HD
BRANCH 25 32
ATOM     32   O  IDS B   2       6.713  10.727  -0.0970  0.00  0.00     0.000 O
ATOM     33   S  IDS B   2       7.029  10.063  -1.5740  0.00  0.00     0.000 S
ATOM     34   O  IDS B   2       8.145   9.151  -1.3780  0.00  0.00     0.000 OA
ATOM     35   O  IDS B   2       5.846   9.362  -2.0530  0.00  0.00     0.000 OA
ATOM     36   O  IDS B   2       7.397  11.169  -2.4280  0.00  0.00     0.000 OA
ENDBRANCH 25 32
BRANCH 28 37
ATOM     37   C  IDS B   2       3.069  14.146   2.6130  0.00  0.00     0.000 C
ATOM     38   O  IDS B   2       2.080  14.679   2.1680  0.00  0.00     0.000 OA
ATOM     39   O  IDS B   2       3.366  14.279   3.8260  0.00  0.00     0.000 OA
ENDBRANCH 28 37
BRANCH 24 40
ATOM     40  O4  SUS B   3       4.144   9.838   1.3600  0.00  0.00     0.000 O
BRANCH 40 44
ATOM     41  C1  SUS B   3       3.701   7.035   4.4410  0.00  0.00     0.000 C
ATOM     42  C2  SUS B   3       2.868   8.329   4.5400  0.00  0.00     0.000 C
ATOM     43  C3  SUS B   3       2.781   8.977   3.1600  0.00  0.00     0.000 C
ATOM     44  C4  SUS B   3       4.189   9.188   2.6250  0.00  0.00     0.000 C
ATOM     45  C5  SUS B   3       4.867   7.840   2.4880  0.00  0.00     0.000 C
ATOM     46  O5  SUS B   3       4.963   7.249   3.8000  0.00  0.00     0.000 O
BRANCH 42 49
ATOM     47   N  SUS B   3       2.882   8.272   6.0120  0.00  0.00     0.000 N
ATOM     49  HD  SUS B   3       3.177   7.540   6.3680  0.00  0.00     0.000 HD
ATOM     49   S  SUS B   3       1.453   8.599   6.6560  0.00  0.00     0.000 S
ATOM     50   O  SUS B   3       0.485   7.704   6.1570  0.00  0.00     0.000 OA
ATOM     51   O  SUS B   3       1.828   8.240   8.1170  0.00  0.00     0.000 OA
ATOM     52   O  SUS B   3       1.191   9.978   6.5350  0.00  0.00     0.000 OA
ENDBRANCH 42 49
BRANCH 43 53
ATOM     53   O  SUS B   3       2.102  10.279   3.3120  0.00  0.00     0.000 O
ATOM     54   S  SUS B   3       0.612  10.431   2.6340  0.00  0.00     0.000 S
ATOM     55   O  SUS B   3      -0.311   9.629   3.4240  0.00  0.00     0.000 OA
ATOM     56   O  SUS B   3       0.344  11.857   2.6890  0.00  0.00     0.000 OA
ATOM     57   O  SUS B   3       0.725   9.917   1.2660  0.00  0.00     0.000 OA
ENDBRANCH 43 53
BRANCH 45 58
ATOM     58   C  SUS B   3       6.241   7.959   1.8660  0.00  0.00     0.000 C
ATOM     59   S  SUS B   3       8.706   8.374   2.4450  0.00  0.00     0.000 S
ATOM     60   O  SUS B   3       7.231   8.030   2.9060  0.00  0.00     0.000 O
ATOM     61   O  SUS B   3       8.707   9.805   2.2110  0.00  0.00     0.000 OA
ATOM     62   O  SUS B   3       9.447   8.003   3.6210  0.00  0.00     0.000 OA
ATOM     63   O  SUS B   3       8.943   7.570   1.2990  0.00  0.00     0.000 OA
ENDBRANCH 45 58
BRANCH 41 64
ATOM     64  O4  IDS B   4       2.998   5.961   3.9530  0.00  0.00     0.000 O
BRANCH 64 68
ATOM     65  C1  IDS B   4       2.172   2.485   3.2380  0.00  0.00     0.000 C
ATOM     66  C2  IDS B   4       2.512   2.919   4.6690  0.00  0.00     0.000 C
ATOM     67  C3  IDS B   4       3.747   3.797   4.7820  0.00  0.00     0.000 C
ATOM     68  C4  IDS B   4       3.844   4.824   3.6700  0.00  0.00     0.000 C
ATOM     69  C5  IDS B   4       3.506   4.127   2.3450  0.00  0.00     0.000 C
ATOM     70  O5  IDS B   4       2.167   3.629   2.4030  0.00  0.00     0.000 O
ATOM     71   O  IDS B   4       4.873   2.944   4.7440  0.00  0.00     0.000 O
ATOM     73  HD  IDS B   4       4.035   3.138   4.8450  0.00  0.00     0.000 HD
BRANCH 66 73
ATOM     73   O  IDS B   4       1.405   3.731   5.1930  0.00  0.00     0.000 O
ATOM     74   S  IDS B   4       0.585   3.164   6.4670  0.00  0.00     0.000 S
ATOM     75   O  IDS B   4       0.091   1.857   6.0870  0.00  0.00     0.000 OA
ATOM     76   O  IDS B   4      -0.447   4.158   6.6220  0.00  0.00     0.000 OA
ATOM     77   O  IDS B   4       1.537   3.121   7.5510  0.00  0.00     0.000 OA
ENDBRANCH 66 73
BRANCH 69 78
ATOM     78   C  IDS B   4       3.772   4.969   1.1050  0.00  0.00     0.000 C
ATOM     79   O  IDS B   4       2.902   5.751   0.7240  0.00  0.00     0.000 OA
ATOM     80   O  IDS B   4       4.899   4.917   0.5800  0.00  0.00     0.000 OA
ENDBRANCH 69 78
BRANCH 65 81
ATOM     81  O4  SGN B   5       2.989   1.460   2.8690  0.00  0.00     0.000 O
BRANCH 81 85
ATOM     82  C1  SGN B   5       3.343  -1.794   0.2370  0.00  0.00     0.000 C
ATOM     83  C2  SGN B   5       3.649  -0.400  -0.3310  0.00  0.00     0.000 C
ATOM     84  C3  SGN B   5       3.927   0.575   0.8220  0.00  0.00     0.000 C
ATOM     85  C4  SGN B   5       2.749   0.566   1.7800  0.00  0.00     0.000 C
ATOM     86  C5  SGN B   5       2.559  -0.859   2.2930  0.00  0.00     0.000 C
ATOM     87  O5  SGN B   5       2.284  -1.721   1.1720  0.00  0.00     0.000 O
ATOM     88   O  SGN B   5       4.153   1.871   0.3100  0.00  0.00     0.000 O
ATOM     90  HD  SGN B   5       4.767   1.323   0.5790  0.00  0.00     0.000 HD
BRANCH 83 92
ATOM     90   N  SGN B   5       3.369  -0.950  -1.6720  0.00  0.00     0.000 N
ATOM     92  HD  SGN B   5       2.530  -0.875  -1.8700  0.00  0.00     0.000 HD
ATOM     92   S  SGN B   5       4.378  -0.589  -2.8580  0.00  0.00     0.000 S
ATOM     93   O  SGN B   5       3.834  -1.257  -4.0020  0.00  0.00     0.000 OA
ATOM     94   O  SGN B   5       4.495   0.829  -2.8480  0.00  0.00     0.000 OA
ATOM     95   O  SGN B   5       5.710  -1.155  -2.4140  0.00  0.00     0.000 OA
ENDBRANCH 83 92
BRANCH 86 96
ATOM     96   C  SGN B   5       1.417  -1.018   3.2760  0.00  0.00     0.000 C
ATOM     97   O  SGN B   5       0.189  -0.573   2.6950  0.00  0.00     0.000 O
ATOM     98   S  SGN B   5      -1.046  -1.591   2.7890  0.00  0.00     0.000 S
ATOM     99   O  SGN B   5      -2.152  -0.793   2.3170  0.00  0.00     0.000 OA
ATOM    100   O  SGN B   5      -0.737  -2.713   1.9790  0.00  0.00     0.000 OA
ATOM    101   O  SGN B   5      -1.134  -1.914   4.1760  0.00  0.00     0.000 OA
ENDBRANCH 86 96
BRANCH 82 102
ATOM    102  O4  IDS B   6       4.436  -2.381   0.8020  0.00  0.00     0.000 O
BRANCH 102 106
ATOM    103  C1  IDS B   6       7.013  -4.894   1.3480  0.00  0.00     0.000 C
ATOM    104  C2  IDS B   6       6.883  -4.183  -0.0080  0.00  0.00     0.000 C
ATOM    105  C3  IDS B   6       5.474  -4.110  -0.5630  0.00  0.00     0.000 C
ATOM    106  C4  IDS B   6       4.439  -3.800   0.5050  0.00  0.00     0.000 C
ATOM    107  C5  IDS B   6       4.733  -4.620   1.7640  0.00  0.00     0.000 C
ATOM    108  O5  IDS B   6       6.054  -4.386   2.2560  0.00  0.00     0.000 O
ATOM    109   O  IDS B   6       5.186  -5.343  -1.2010  0.00  0.00     0.000 O
ATOM    111  HD  IDS B   6       5.732  -5.903  -0.8290  0.00  0.00     0.000 HD
BRANCH 104 111
ATOM    111   O  IDS B   6       7.316  -2.785   0.1400  0.00  0.00     0.000 O
ATOM    112   S  IDS B   6       8.765  -2.383  -0.4080  0.00  0.00     0.000 S
ATOM    113   O  IDS B   6       9.684  -3.246   0.3180  0.00  0.00     0.000 OA
ATOM    114   O  IDS B   6       8.777  -2.563  -1.8640  0.00  0.00     0.000 OA
ATOM    115   O  IDS B   6       8.800  -1.000   0.0160  0.00  0.00     0.000 OA
ENDBRANCH 104 111
BRANCH 107 116
ATOM    116   C  IDS B   6       3.712  -4.276   2.8400  0.00  0.00     0.000 C
ATOM    117   O  IDS B   6       4.125  -3.702   3.8160  0.00  0.00     0.000 OA
ATOM    118   O  IDS B   6       2.535  -4.578   2.7190  0.00  0.00     0.000 OA
ENDBRANCH 107 116
BRANCH 103 119
ATOM    119  O4  SGN B   7       7.046  -6.211   1.0190  0.00  0.00     0.000 O
BRANCH 119 123
ATOM    120  C1  SGN B   7       8.554  -9.668   2.8250  0.00  0.00     0.000 C
ATOM    121  C2  SGN B   7       7.775  -8.681   3.7140  0.00  0.00     0.000 C
ATOM    122  C3  SGN B   7       6.963  -7.706   2.8510  0.00  0.00     0.000 C
ATOM    123  C4  SGN B   7       7.876  -7.034   1.8390  0.00  0.00     0.000 C
ATOM    124  C5  SGN B   7       8.611  -8.099   1.0100  0.00  0.00     0.000 C
ATOM    125  O5  SGN B   7       9.362  -8.993   1.8610  0.00  0.00     0.000 O
ATOM    126   O  SGN B   7       6.332  -6.744   3.7040  0.00  0.00     0.000 O
ATOM    128  HD  SGN B   7       6.774  -7.485   3.6320  0.00  0.00     0.000 HD
BRANCH 121 130
ATOM    128   N  SGN B   7       8.257  -9.393   4.9000  0.00  0.00     0.000 N
ATOM    130  HD  SGN B   7       8.262  -8.653   5.3510  0.00  0.00     0.000 HD
ATOM    130   S  SGN B   7       7.313  -9.685   6.1710  0.00  0.00     0.000 S
ATOM    131   O  SGN B   7       6.133 -10.271   5.6310  0.00  0.00     0.000 OA
ATOM    132   O  SGN B   7       8.076 -10.379   7.1440  0.00  0.00     0.000 OA
ATOM    133   O  SGN B   7       7.159  -8.237   6.7460  0.00  0.00     0.000 OA
ENDBRANCH 121 130
BRANCH 124 134
ATOM    134   C  SGN B   7       9.625  -7.535   0.0590  0.00  0.00     0.000 C
ATOM    135   O  SGN B   7      10.832  -8.309   0.1640  0.00  0.00     0.000 O
ATOM    136   S  SGN B   7      11.971  -7.973  -0.8640  0.00  0.00     0.000 S
ATOM    137   O  SGN B   7      13.102  -8.792  -0.5000  0.00  0.00     0.000 OA
ATOM    138   O  SGN B   7      12.222  -6.559  -0.7020  0.00  0.00     0.000 OA
ATOM    139   O  SGN B   7      11.362  -8.335  -2.1350  0.00  0.00     0.000 OA
ENDBRANCH 124 134
BRANCH 120 140
ATOM    140  O4  IDS B   8       8.064 -10.637   2.0440  0.00  0.00     0.000 O
BRANCH 140 144
ATOM    141  C1  IDS B   8       5.676 -12.215  -0.1390  0.00  0.00     0.000 C
ATOM    142  C2  IDS B   8       5.208 -11.317   1.0420  0.00  0.00     0.000 C
ATOM    143  C3  IDS B   8       5.899 -11.664   2.3730  0.00  0.00     0.000 C
ATOM    144  C4  IDS B   8       7.399 -11.897   2.1970  0.00  0.00     0.000 C
ATOM    145  C5  IDS B   8       7.656 -12.783   0.9690  0.00  0.00     0.000 C
ATOM    146  O5  IDS B   8       7.096 -12.219  -0.2140  0.00  0.00     0.000 O
BRANCH 142 147
ATOM    147   O  IDS B   8       5.524  -9.897   0.7390  0.00  0.00     0.000 O
ATOM    148   S  IDS B   8       4.405  -8.908   0.1060  0.00  0.00     0.000 S
ATOM    149   O  IDS B   8       3.338  -9.731  -0.4170  0.00  0.00     0.000 OA
ATOM    150   O  IDS B   8       3.973  -8.060   1.2020  0.00  0.00     0.000 OA
ATOM    151   O  IDS B   8       5.090  -8.177  -0.9430  0.00  0.00     0.000 OA
ENDBRANCH 142 147
BRANCH 145 152
ATOM    152   C  IDS B   8       9.133 -12.969   0.6840  0.00  0.00     0.000 C
ATOM    153   O  IDS B   8       9.656 -12.340  -0.2300  0.00  0.00     0.000 OA
ATOM    154   O  IDS B   8       9.789 -13.725   1.3770  0.00  0.00     0.000 OA
ENDBRANCH 145 152
ENDBRANCH 140 144
ENDBRANCH 120 140
ENDBRANCH 119 123
ENDBRANCH 103 119
ENDBRANCH 102 106
ENDBRANCH 82 102
ENDBRANCH 81 85
ENDBRANCH 65 81
ENDBRANCH 64 68
ENDBRANCH 41 64
ENDBRANCH 40 44
ENDBRANCH 24 40
ENDBRANCH 23 27
ENDBRANCH 1 23
TORSDOF 31
ENDMDL
MODEL 54
REMARK VINA RESULT:      -6.3     15.704     25.334
ROOT
ATOM      1  C1  SGN B   1      61.608  -0.571  19.8060  0.00  0.00     0.000 C
ATOM      2  C2  SGN B   1      63.100  -0.438  19.4620  0.00  0.00     0.000 C
ATOM      3  C3  SGN B   1      63.848   0.313  20.5690  0.00  0.00     0.000 C
ATOM      4  C4  SGN B   1      63.196   1.669  20.8180  0.00  0.00     0.000 C
ATOM      5  C5  SGN B   1      61.694   1.473  21.0110  0.00  0.00     0.000 C
ATOM      6  O5  SGN B   1      61.149   0.772  19.8770  0.00  0.00     0.000 O
ATOM      7   O  SGN B   1      65.219   0.474  20.2260  0.00  0.00     0.000 O
ATOM      9  HD  SGN B   1      64.826   0.903  19.5840  0.00  0.00     0.000 HD
ATOM      9   O  SGN B   1      63.764   2.260  21.9720  0.00  0.00     0.000 O
ATOM     11  HD  SGN B   1      63.371   2.688  21.3300  0.00  0.00     0.000 HD
ENDROOT
BRANCH 2 13
ATOM     11   N  SGN B   1      63.090  -1.132  18.1600  0.00  0.00     0.000 N
ATOM     13  HD  SGN B   1      62.836  -1.542  18.8800  0.00  0.00     0.000 HD
ATOM     13   S  SGN B   1      63.278  -2.725  18.0350  0.00  0.00     0.000 S
ATOM     14   O  SGN B   1      63.393  -3.303  19.3160  0.00  0.00     0.000 OA
ATOM     15   O  SGN B   1      62.301  -3.224  17.1260  0.00  0.00     0.000 OA
ATOM     16   O  SGN B   1      64.647  -2.729  17.2860  0.00  0.00     0.000 OA
ENDBRANCH 2 13
BRANCH 5 17
ATOM     17   C  SGN B   1      60.920   2.760  21.1580  0.00  0.00     0.000 C
ATOM     18   O  SGN B   1      61.479   3.794  20.3230  0.00  0.00     0.000 O
ATOM     19   S  SGN B   1      61.660   5.228  21.0090  0.00  0.00     0.000 S
ATOM     20   O  SGN B   1      62.002   6.122  19.9240  0.00  0.00     0.000 OA
ATOM     21   O  SGN B   1      60.370   5.502  21.5990  0.00  0.00     0.000 OA
ATOM     22   O  SGN B   1      62.723   5.053  21.9740  0.00  0.00     0.000 OA
ENDBRANCH 5 17
BRANCH 1 23
ATOM     23  O4  IDS B   2      60.746  -1.412  20.4470  0.00  0.00     0.000 O
BRANCH 23 27
ATOM     24  C1  IDS B   2      57.604  -3.898  21.5330  0.00  0.00     0.000 C
ATOM     25  C2  IDS B   2      58.925  -4.612  21.1700  0.00  0.00     0.000 C
ATOM     26  C3  IDS B   2      60.078  -3.615  21.0800  0.00  0.00     0.000 C
ATOM     27  C4  IDS B   2      59.809  -2.460  20.1240  0.00  0.00     0.000 C
ATOM     28  C5  IDS B   2      58.328  -2.041  20.2090  0.00  0.00     0.000 C
ATOM     29  O5  IDS B   2      57.746  -2.475  21.4290  0.00  0.00     0.000 O
ATOM     30   O  IDS B   2      61.245  -4.288  20.6230  0.00  0.00     0.000 O
ATOM     32  HD  IDS B   2      61.251  -4.418  19.7670  0.00  0.00     0.000 HD
BRANCH 25 32
ATOM     32   O  IDS B   2      59.300  -5.642  22.1700  0.00  0.00     0.000 O
ATOM     33   S  IDS B   2      59.596  -7.207  21.7400  0.00  0.00     0.000 S
ATOM     34   O  IDS B   2      59.706  -7.955  22.9830  0.00  0.00     0.000 OA
ATOM     35   O  IDS B   2      58.498  -7.699  20.9190  0.00  0.00     0.000 OA
ATOM     36   O  IDS B   2      60.851  -7.186  21.0260  0.00  0.00     0.000 OA
ENDBRANCH 25 32
BRANCH 28 37
ATOM     37   C  IDS B   2      57.990  -0.548  20.0150  0.00  0.00     0.000 C
ATOM     38   O  IDS B   2      57.865   0.043  21.0620  0.00  0.00     0.000 OA
ATOM     39   O  IDS B   2      57.904   0.072  18.9260  0.00  0.00     0.000 OA
ENDBRANCH 28 37
BRANCH 24 40
ATOM     40  O4  SUS B   3      56.454  -4.601  21.5940  0.00  0.00     0.000 O
BRANCH 40 44
ATOM     41  C1  SUS B   3      53.145  -4.180  24.1260  0.00  0.00     0.000 C
ATOM     42  C2  SUS B   3      53.376  -3.073  23.0780  0.00  0.00     0.000 C
ATOM     43  C3  SUS B   3      54.284  -3.608  21.9740  0.00  0.00     0.000 C
ATOM     44  C4  SUS B   3      55.562  -4.140  22.6020  0.00  0.00     0.000 C
ATOM     45  C5  SUS B   3      55.211  -5.278  23.5390  0.00  0.00     0.000 C
ATOM     46  O5  SUS B   3      54.372  -4.755  24.5880  0.00  0.00     0.000 O
BRANCH 42 49
ATOM     47   N  SUS B   3      52.023  -2.607  22.7290  0.00  0.00     0.000 N
ATOM     49  HD  SUS B   3      51.784  -2.697  21.9020  0.00  0.00     0.000 HD
ATOM     49   S  SUS B   3      51.762  -1.087  23.1610  0.00  0.00     0.000 S
ATOM     50   O  SUS B   3      52.721  -0.247  22.5610  0.00  0.00     0.000 OA
ATOM     51   O  SUS B   3      50.387  -0.935  22.4610  0.00  0.00     0.000 OA
ATOM     52   O  SUS B   3      51.618  -1.017  24.5610  0.00  0.00     0.000 OA
ENDBRANCH 42 49
BRANCH 43 53
ATOM     53   O  SUS B   3      54.601  -2.490  21.0630  0.00  0.00     0.000 O
ATOM     54   S  SUS B   3      53.908  -2.518  19.5730  0.00  0.00     0.000 S
ATOM     55   O  SUS B   3      52.488  -2.241  19.7470  0.00  0.00     0.000 OA
ATOM     56   O  SUS B   3      54.619  -1.489  18.8350  0.00  0.00     0.000 OA
ATOM     57   O  SUS B   3      54.124  -3.866  19.0400  0.00  0.00     0.000 OA
ENDBRANCH 43 53
BRANCH 45 58
ATOM     58   C  SUS B   3      56.444  -5.928  24.1290  0.00  0.00     0.000 C
ATOM     59   S  SUS B   3      58.105  -5.741  26.0750  0.00  0.00     0.000 S
ATOM     60   O  SUS B   3      56.727  -5.337  25.4080  0.00  0.00     0.000 O
ATOM     61   O  SUS B   3      59.108  -4.956  25.3810  0.00  0.00     0.000 OA
ATOM     62   O  SUS B   3      57.889  -5.297  27.4260  0.00  0.00     0.000 OA
ATOM     63   O  SUS B   3      58.211  -7.147  25.9080  0.00  0.00     0.000 OA
ENDBRANCH 45 58
BRANCH 41 64
ATOM     64  O4  IDS B   4      52.196  -5.101  23.7580  0.00  0.00     0.000 O
BRANCH 64 68
ATOM     65  C1  IDS B   4      49.104  -7.019  23.9610  0.00  0.00     0.000 C
ATOM     66  C2  IDS B   4      49.088  -5.502  24.1870  0.00  0.00     0.000 C
ATOM     67  C3  IDS B   4      50.177  -4.994  25.1160  0.00  0.00     0.000 C
ATOM     68  C4  IDS B   4      51.512  -5.680  24.8920  0.00  0.00     0.000 C
ATOM     69  C5  IDS B   4      51.256  -7.186  24.7470  0.00  0.00     0.000 C
ATOM     70  O5  IDS B   4      50.418  -7.414  23.6110  0.00  0.00     0.000 O
ATOM     71   O  IDS B   4      49.740  -5.222  26.4400  0.00  0.00     0.000 O
ATOM     73  HD  IDS B   4      49.645  -5.134  25.5830  0.00  0.00     0.000 HD
BRANCH 66 73
ATOM     73   O  IDS B   4      49.326  -4.830  22.9020  0.00  0.00     0.000 O
ATOM     74   S  IDS B   4      48.105  -3.996  22.2450  0.00  0.00     0.000 S
ATOM     75   O  IDS B   4      47.000  -4.922  22.1130  0.00  0.00     0.000 OA
ATOM     76   O  IDS B   4      48.674  -3.577  20.9890  0.00  0.00     0.000 OA
ATOM     77   O  IDS B   4      47.837  -2.916  23.1650  0.00  0.00     0.000 OA
ENDBRANCH 66 73
BRANCH 69 78
ATOM     78   C  IDS B   4      52.516  -8.040  24.7350  0.00  0.00     0.000 C
ATOM     79   O  IDS B   4      53.457  -7.714  25.4560  0.00  0.00     0.000 OA
ATOM     80   O  IDS B   4      52.512  -9.098  24.0780  0.00  0.00     0.000 OA
ENDBRANCH 69 78
BRANCH 65 81
ATOM     81  O4  SGN B   5      48.542  -7.642  25.0340  0.00  0.00     0.000 O
BRANCH 81 85
ATOM     82  C1  SGN B   5      46.389 -11.047  26.2230  0.00  0.00     0.000 C
ATOM     83  C2  SGN B   5      47.760 -11.280  25.5710  0.00  0.00     0.000 C
ATOM     84  C3  SGN B   5      48.584  -9.987  25.6310  0.00  0.00     0.000 C
ATOM     85  C4  SGN B   5      47.798  -8.862  24.9810  0.00  0.00     0.000 C
ATOM     86  C5  SGN B   5      46.474  -8.710  25.7250  0.00  0.00     0.000 C
ATOM     87  O5  SGN B   5      45.740  -9.945  25.6180  0.00  0.00     0.000 O
ATOM     88   O  SGN B   5      49.823 -10.177  24.9840  0.00  0.00     0.000 O
ATOM     90  HD  SGN B   5      49.699 -10.179  25.8410  0.00  0.00     0.000 HD
BRANCH 83 92
ATOM     90   N  SGN B   5      47.270 -12.651  25.3240  0.00  0.00     0.000 N
ATOM     92  HD  SGN B   5      46.784 -12.683  24.6080  0.00  0.00     0.000 HD
ATOM     92   S  SGN B   5      48.302 -13.860  25.4970  0.00  0.00     0.000 S
ATOM     93   O  SGN B   5      47.534 -15.028  25.1860  0.00  0.00     0.000 OA
ATOM     94   O  SGN B   5      49.433 -13.518  24.7040  0.00  0.00     0.000 OA
ATOM     95   O  SGN B   5      48.730 -13.795  26.9460  0.00  0.00     0.000 OA
ENDBRANCH 83 92
BRANCH 86 96
ATOM     96   C  SGN B   5      45.584  -7.608  25.1890  0.00  0.00     0.000 C
ATOM     97   O  SGN B   5      44.436  -8.160  24.5400  0.00  0.00     0.000 O
ATOM     98   S  SGN B   5      43.015  -7.574  24.9970  0.00  0.00     0.000 S
ATOM     99   O  SGN B   5      42.107  -8.162  24.0430  0.00  0.00     0.000 OA
ATOM    100   O  SGN B   5      42.803  -7.973  26.3420  0.00  0.00     0.000 OA
ATOM    101   O  SGN B   5      43.151  -6.161  24.8520  0.00  0.00     0.000 OA
ENDBRANCH 86 96
BRANCH 82 102
ATOM    102  O4  IDS B   6      46.473 -10.866  27.5710  0.00  0.00     0.000 O
BRANCH 102 106
ATOM    103  C1  IDS B   6      44.482 -11.841  30.4590  0.00  0.00     0.000 C
ATOM    104  C2  IDS B   6      44.166 -12.399  29.0630  0.00  0.00     0.000 C
ATOM    105  C3  IDS B   6      44.120 -11.365  27.9540  0.00  0.00     0.000 C
ATOM    106  C4  IDS B   6      45.223 -10.328  28.0730  0.00  0.00     0.000 C
ATOM    107  C5  IDS B   6      45.366  -9.890  29.5330  0.00  0.00     0.000 C
ATOM    108  O5  IDS B   6      45.617 -10.998  30.4000  0.00  0.00     0.000 O
ATOM    109   O  IDS B   6      42.844 -10.748  27.9770  0.00  0.00     0.000 O
ATOM    111  HD  IDS B   6      42.566 -10.875  28.7880  0.00  0.00     0.000 HD
BRANCH 104 111
ATOM    111   O  IDS B   6      45.225 -13.342  28.6720  0.00  0.00     0.000 O
ATOM    112   S  IDS B   6      44.838 -14.887  28.5180  0.00  0.00     0.000 S
ATOM    113   O  IDS B   6      44.319 -15.266  29.8240  0.00  0.00     0.000 OA
ATOM    114   O  IDS B   6      43.878 -15.018  27.4160  0.00  0.00     0.000 OA
ATOM    115   O  IDS B   6      46.147 -15.429  28.2270  0.00  0.00     0.000 OA
ENDBRANCH 104 111
BRANCH 107 116
ATOM    116   C  IDS B   6      46.498  -8.878  29.6480  0.00  0.00     0.000 C
ATOM    117   O  IDS B   6      47.456  -9.208  30.2990  0.00  0.00     0.000 OA
ATOM    118   O  IDS B   6      46.427  -7.783  29.1120  0.00  0.00     0.000 OA
ENDBRANCH 107 116
BRANCH 103 119
ATOM    119  O4  SGN B   7      43.283 -11.382  30.9010  0.00  0.00     0.000 O
BRANCH 119 123
ATOM    120  C1  SGN B   7      41.535 -10.802  34.6560  0.00  0.00     0.000 C
ATOM    121  C2  SGN B   7      42.193  -9.585  33.9800  0.00  0.00     0.000 C
ATOM    122  C3  SGN B   7      42.415  -9.854  32.4860  0.00  0.00     0.000 C
ATOM    123  C4  SGN B   7      43.188 -11.150  32.3070  0.00  0.00     0.000 C
ATOM    124  C5  SGN B   7      42.456 -12.298  33.0210  0.00  0.00     0.000 C
ATOM    125  O5  SGN B   7      42.270 -12.003  34.4230  0.00  0.00     0.000 O
ATOM    126   O  SGN B   7      43.115  -8.744  31.9110  0.00  0.00     0.000 O
ATOM    128  HD  SGN B   7      42.691  -9.075  32.5910  0.00  0.00     0.000 HD
BRANCH 121 130
ATOM    128   N  SGN B   7      41.401  -8.841  34.9630  0.00  0.00     0.000 N
ATOM    130  HD  SGN B   7      42.059  -8.870  35.5250  0.00  0.00     0.000 HD
ATOM    130   S  SGN B   7      41.699  -7.299  35.3180  0.00  0.00     0.000 S
ATOM    131   O  SGN B   7      41.765  -6.634  34.0610  0.00  0.00     0.000 OA
ATOM    132   O  SGN B   7      40.768  -6.880  36.3030  0.00  0.00     0.000 OA
ATOM    133   O  SGN B   7      43.054  -7.446  36.0900  0.00  0.00     0.000 OA
ENDBRANCH 121 130
BRANCH 124 134
ATOM    134   C  SGN B   7      43.202 -13.600  32.9990  0.00  0.00     0.000 C
ATOM    135   O  SGN B   7      43.311 -14.087  34.3470  0.00  0.00     0.000 O
ATOM    136   S  SGN B   7      43.928 -15.521  34.5250  0.00  0.00     0.000 S
ATOM    137   O  SGN B   7      44.031 -15.745  35.9480  0.00  0.00     0.000 OA
ATOM    138   O  SGN B   7      45.215 -15.463  33.8690  0.00  0.00     0.000 OA
ATOM    139   O  SGN B   7      42.950 -16.368  33.8610  0.00  0.00     0.000 OA
ENDBRANCH 124 134
BRANCH 120 140
ATOM    140  O4  IDS B   8      40.298 -11.277  34.4730  0.00  0.00     0.000 O
BRANCH 140 144
ATOM    141  C1  IDS B   8      36.846 -11.618  35.4390  0.00  0.00     0.000 C
ATOM    142  C2  IDS B   8      37.970 -11.518  36.5090  0.00  0.00     0.000 C
ATOM    143  C3  IDS B   8      39.150 -12.469  36.2370  0.00  0.00     0.000 C
ATOM    144  C4  IDS B   8      39.558 -12.469  34.7640  0.00  0.00     0.000 C
ATOM    145  C5  IDS B   8      38.311 -12.548  33.8690  0.00  0.00     0.000 C
ATOM    146  O5  IDS B   8      37.402 -11.483  34.1360  0.00  0.00     0.000 O
BRANCH 142 147
ATOM    147   O  IDS B   8      38.515 -10.135  36.5280  0.00  0.00     0.000 O
ATOM    148   S  IDS B   8      38.156  -9.110  37.7330  0.00  0.00     0.000 S
ATOM    149   O  IDS B   8      37.008  -9.642  38.4320  0.00  0.00     0.000 OA
ATOM    150   O  IDS B   8      39.344  -9.057  38.5630  0.00  0.00     0.000 OA
ATOM    151   O  IDS B   8      37.857  -7.848  37.0840  0.00  0.00     0.000 OA
ENDBRANCH 142 147
BRANCH 145 152
ATOM    152   C  IDS B   8      38.645 -12.452  32.3940  0.00  0.00     0.000 C
ATOM    153   O  IDS B   8      39.291 -13.347  31.8610  0.00  0.00     0.000 OA
ATOM    154   O  IDS B   8      38.252 -11.496  31.7500  0.00  0.00     0.000 OA
ENDBRANCH 145 152
ENDBRANCH 140 144
ENDBRANCH 120 140
ENDBRANCH 119 123
ENDBRANCH 103 119
ENDBRANCH 102 106
ENDBRANCH 82 102
ENDBRANCH 81 85
ENDBRANCH 65 81
ENDBRANCH 64 68
ENDBRANCH 41 64
ENDBRANCH 40 44
ENDBRANCH 24 40
ENDBRANCH 23 27
ENDBRANCH 1 23
TORSDOF 31
ENDMDL
MODEL 55
REMARK VINA RESULT:      -6.3     15.601     24.953
ROOT
ATOM      1  C1  SGN B   1      62.077  -0.488  19.8340  0.00  0.00     0.000 C
ATOM      2  C2  SGN B   1      63.535  -0.238  19.4150  0.00  0.00     0.000 C
ATOM      3  C3  SGN B   1      64.305   0.476  20.5310  0.00  0.00     0.000 C
ATOM      4  C4  SGN B   1      63.593   1.768  20.9190  0.00  0.00     0.000 C
ATOM      5  C5  SGN B   1      62.120   1.466  21.1830  0.00  0.00     0.000 C
ATOM      6  O5  SGN B   1      61.548   0.816  20.0320  0.00  0.00     0.000 O
ATOM      7   O  SGN B   1      65.641   0.746  20.1230  0.00  0.00     0.000 O
ATOM      9  HD  SGN B   1      65.185   1.194  19.5390  0.00  0.00     0.000 HD
ATOM      9   O  SGN B   1      64.198   2.308  22.0800  0.00  0.00     0.000 O
ATOM     11  HD  SGN B   1      63.741   2.756  21.4960  0.00  0.00     0.000 HD
ENDROOT
BRANCH 2 13
ATOM     11   N  SGN B   1      63.501  -0.833  18.0660  0.00  0.00     0.000 N
ATOM     13  HD  SGN B   1      63.296  -1.307  18.7610  0.00  0.00     0.000 HD
ATOM     13   S  SGN B   1      63.755  -2.401  17.8120  0.00  0.00     0.000 S
ATOM     14   O  SGN B   1      63.949  -3.067  19.0400  0.00  0.00     0.000 OA
ATOM     15   O  SGN B   1      62.764  -2.877  16.9060  0.00  0.00     0.000 OA
ATOM     16   O  SGN B   1      65.090  -2.284  17.0130  0.00  0.00     0.000 OA
ENDBRANCH 2 13
BRANCH 5 17
ATOM     17   C  SGN B   1      61.285   2.689  21.4710  0.00  0.00     0.000 C
ATOM     18   O  SGN B   1      61.542   3.727  20.5040  0.00  0.00     0.000 O
ATOM     19   S  SGN B   1      61.741   5.200  21.0940  0.00  0.00     0.000 S
ATOM     20   O  SGN B   1      61.745   6.070  19.9360  0.00  0.00     0.000 OA
ATOM     21   O  SGN B   1      60.598   5.392  21.9570  0.00  0.00     0.000 OA
ATOM     22   O  SGN B   1      63.006   5.160  21.7930  0.00  0.00     0.000 OA
ENDBRANCH 5 17
BRANCH 1 23
ATOM     23  O4  IDS B   2      61.306  -1.424  20.4590  0.00  0.00     0.000 O
BRANCH 23 27
ATOM     24  C1  IDS B   2      58.324  -4.082  21.5890  0.00  0.00     0.000 C
ATOM     25  C2  IDS B   2      59.582  -4.719  20.9580  0.00  0.00     0.000 C
ATOM     26  C3  IDS B   2      60.717  -3.703  20.8580  0.00  0.00     0.000 C
ATOM     27  C4  IDS B   2      60.330  -2.430  20.1180  0.00  0.00     0.000 C
ATOM     28  C5  IDS B   2      58.875  -2.047  20.4540  0.00  0.00     0.000 C
ATOM     29  O5  IDS B   2      58.457  -2.656  21.6670  0.00  0.00     0.000 O
ATOM     30   O  IDS B   2      61.811  -4.289  20.1620  0.00  0.00     0.000 O
ATOM     32  HD  IDS B   2      61.703  -4.299  19.3030  0.00  0.00     0.000 HD
BRANCH 25 32
ATOM     32   O  IDS B   2      60.082  -5.873  21.7460  0.00  0.00     0.000 O
ATOM     33   S  IDS B   2      60.165  -7.393  21.1090  0.00  0.00     0.000 S
ATOM     34   O  IDS B   2      60.477  -8.280  22.2170  0.00  0.00     0.000 OA
ATOM     35   O  IDS B   2      58.888  -7.732  20.4980  0.00  0.00     0.000 OA
ATOM     36   O  IDS B   2      61.242  -7.353  20.1460  0.00  0.00     0.000 OA
ENDBRANCH 25 32
BRANCH 28 37
ATOM     37   C  IDS B   2      58.521  -0.547  20.5180  0.00  0.00     0.000 C
ATOM     38   O  IDS B   2      58.360  -0.058  19.4240  0.00  0.00     0.000 OA
ATOM     39   O  IDS B   2      58.335   0.142  21.5500  0.00  0.00     0.000 OA
ENDBRANCH 28 37
BRANCH 24 40
ATOM     40  O4  SUS B   3      57.189  -4.802  21.7010  0.00  0.00     0.000 O
BRANCH 40 44
ATOM     41  C1  SUS B   3      54.236  -4.768  24.6710  0.00  0.00     0.000 C
ATOM     42  C2  SUS B   3      54.411  -3.484  23.8360  0.00  0.00     0.000 C
ATOM     43  C3  SUS B   3      55.146  -3.823  22.5410  0.00  0.00     0.000 C
ATOM     44  C4  SUS B   3      56.454  -4.518  22.8860  0.00  0.00     0.000 C
ATOM     45  C5  SUS B   3      56.145  -5.806  23.6210  0.00  0.00     0.000 C
ATOM     46  O5  SUS B   3      55.471  -5.471  24.8510  0.00  0.00     0.000 O
BRANCH 42 49
ATOM     47   N  SUS B   3      53.976  -2.636  24.9580  0.00  0.00     0.000 N
ATOM     49  HD  SUS B   3      53.641  -3.044  25.6450  0.00  0.00     0.000 HD
ATOM     49   S  SUS B   3      52.946  -1.494  24.5070  0.00  0.00     0.000 S
ATOM     50   O  SUS B   3      51.820  -2.080  23.8920  0.00  0.00     0.000 OA
ATOM     51   O  SUS B   3      52.593  -0.998  25.9330  0.00  0.00     0.000 OA
ATOM     52   O  SUS B   3      53.637  -0.498  23.7900  0.00  0.00     0.000 OA
ENDBRANCH 42 49
BRANCH 43 53
ATOM     53   O  SUS B   3      55.422  -2.559  21.8310  0.00  0.00     0.000 O
ATOM     54   S  SUS B   3      54.613  -2.297  20.4250  0.00  0.00     0.000 S
ATOM     55   O  SUS B   3      53.221  -2.037  20.7640  0.00  0.00     0.000 OA
ATOM     56   O  SUS B   3      55.293  -1.158  19.8340  0.00  0.00     0.000 OA
ATOM     57   O  SUS B   3      54.747  -3.524  19.6340  0.00  0.00     0.000 OA
ENDBRANCH 43 53
BRANCH 45 58
ATOM     58   C  SUS B   3      57.395  -6.607  23.9120  0.00  0.00     0.000 C
ATOM     59   S  SUS B   3      59.266  -6.898  25.6440  0.00  0.00     0.000 S
ATOM     60   O  SUS B   3      57.849  -6.316  25.2440  0.00  0.00     0.000 O
ATOM     61   O  SUS B   3      60.230  -6.014  25.0170  0.00  0.00     0.000 OA
ATOM     62   O  SUS B   3      59.223  -6.750  27.0740  0.00  0.00     0.000 OA
ATOM     63   O  SUS B   3      59.273  -8.238  25.1720  0.00  0.00     0.000 OA
ENDBRANCH 45 58
BRANCH 41 64
ATOM     64  O4  IDS B   4      53.194  -5.561  24.2570  0.00  0.00     0.000 O
BRANCH 64 68
ATOM     65  C1  IDS B   4      50.314  -7.791  24.3320  0.00  0.00     0.000 C
ATOM     66  C2  IDS B   4      50.168  -6.327  24.7650  0.00  0.00     0.000 C
ATOM     67  C3  IDS B   4      51.257  -5.839  25.7060  0.00  0.00     0.000 C
ATOM     68  C4  IDS B   4      52.635  -6.351  25.3290  0.00  0.00     0.000 C
ATOM     69  C5  IDS B   4      52.513  -7.843  24.9900  0.00  0.00     0.000 C
ATOM     70  O5  IDS B   4      51.637  -8.001  23.8720  0.00  0.00     0.000 O
ATOM     71   O  IDS B   4      50.920  -6.285  27.0030  0.00  0.00     0.000 O
ATOM     73  HD  IDS B   4      50.769  -6.093  26.1730  0.00  0.00     0.000 HD
BRANCH 66 73
ATOM     73   O  IDS B   4      50.266  -5.470  23.5750  0.00  0.00     0.000 O
ATOM     74   S  IDS B   4      48.993  -4.545  23.2000  0.00  0.00     0.000 S
ATOM     75   O  IDS B   4      47.863  -5.439  23.0630  0.00  0.00     0.000 OA
ATOM     76   O  IDS B   4      49.418  -3.943  21.9620  0.00  0.00     0.000 OA
ATOM     77   O  IDS B   4      48.855  -3.615  24.2960  0.00  0.00     0.000 OA
ENDBRANCH 66 73
BRANCH 69 78
ATOM     78   C  IDS B   4      53.846  -8.556  24.8030  0.00  0.00     0.000 C
ATOM     79   O  IDS B   4      54.100  -9.057  23.7090  0.00  0.00     0.000 OA
ATOM     80   O  IDS B   4      54.677  -8.517  25.7290  0.00  0.00     0.000 OA
ENDBRANCH 69 78
BRANCH 65 81
ATOM     81  O4  SGN B   5      49.876  -8.605  25.3320  0.00  0.00     0.000 O
BRANCH 81 85
ATOM     82  C1  SGN B   5      47.732 -12.135  26.0940  0.00  0.00     0.000 C
ATOM     83  C2  SGN B   5      49.226 -12.282  25.7710  0.00  0.00     0.000 C
ATOM     84  C3  SGN B   5      49.932 -10.936  25.9820  0.00  0.00     0.000 C
ATOM     85  C4  SGN B   5      49.242  -9.873  25.1450  0.00  0.00     0.000 C
ATOM     86  C5  SGN B   5      47.778  -9.803  25.5700  0.00  0.00     0.000 C
ATOM     87  O5  SGN B   5      47.166 -11.085  25.3320  0.00  0.00     0.000 O
ATOM     88   O  SGN B   5      51.294 -11.048  25.6320  0.00  0.00     0.000 O
ATOM     90  HD  SGN B   5      50.981 -11.050  26.4400  0.00  0.00     0.000 HD
BRANCH 83 92
ATOM     90   N  SGN B   5      49.355 -13.506  26.5860  0.00  0.00     0.000 N
ATOM     92  HD  SGN B   5      48.650 -13.631  27.0730  0.00  0.00     0.000 HD
ATOM     92   S  SGN B   5      49.933 -14.820  25.8830  0.00  0.00     0.000 S
ATOM     93   O  SGN B   5      49.925 -15.809  26.9190  0.00  0.00     0.000 OA
ATOM     94   O  SGN B   5      49.148 -15.008  24.7110  0.00  0.00     0.000 OA
ATOM     95   O  SGN B   5      51.327 -14.435  25.4360  0.00  0.00     0.000 OA
ENDBRANCH 83 92
BRANCH 86 96
ATOM     96   C  SGN B   5      46.962  -8.769  24.8220  0.00  0.00     0.000 C
ATOM     97   O  SGN B   5      45.753  -9.347  24.3240  0.00  0.00     0.000 O
ATOM     98   S  SGN B   5      44.400  -8.556  24.6650  0.00  0.00     0.000 S
ATOM     99   O  SGN B   5      43.416  -9.255  23.8740  0.00  0.00     0.000 OA
ATOM    100   O  SGN B   5      44.200  -8.639  26.0670  0.00  0.00     0.000 OA
ATOM    101   O  SGN B   5      44.645  -7.224  24.2150  0.00  0.00     0.000 OA
ENDBRANCH 86 96
BRANCH 82 102
ATOM    102  O4  IDS B   6      47.499 -11.936  27.4220  0.00  0.00     0.000 O
BRANCH 102 106
ATOM    103  C1  IDS B   6      44.625 -13.243  29.2360  0.00  0.00     0.000 C
ATOM    104  C2  IDS B   6      44.771 -13.473  27.7240  0.00  0.00     0.000 C
ATOM    105  C3  IDS B   6      45.136 -12.241  26.9180  0.00  0.00     0.000 C
ATOM    106  C4  IDS B   6      46.175 -11.375  27.6090  0.00  0.00     0.000 C
ATOM    107  C5  IDS B   6      45.840 -11.255  29.0990  0.00  0.00     0.000 C
ATOM    108  O5  IDS B   6      45.746 -12.534  29.7290  0.00  0.00     0.000 O
ATOM    109   O  IDS B   6      43.949 -11.505  26.6750  0.00  0.00     0.000 O
ATOM    111  HD  IDS B   6      43.413 -11.759  27.3060  0.00  0.00     0.000 HD
BRANCH 104 111
ATOM    111   O  IDS B   6      45.863 -14.429  27.4870  0.00  0.00     0.000 O
ATOM    112   S  IDS B   6      45.516 -15.796  26.7300  0.00  0.00     0.000 S
ATOM    113   O  IDS B   6      44.501 -16.427  27.5600  0.00  0.00     0.000 OA
ATOM    114   O  IDS B   6      45.079 -15.474  25.3670  0.00  0.00     0.000 OA
ATOM    115   O  IDS B   6      46.811 -16.437  26.7990  0.00  0.00     0.000 OA
ENDBRANCH 104 111
BRANCH 107 116
ATOM    116   C  IDS B   6      46.907 -10.416  29.7890  0.00  0.00     0.000 C
ATOM    117   O  IDS B   6      47.499 -10.935  30.7010  0.00  0.00     0.000 OA
ATOM    118   O  IDS B   6      47.140  -9.270  29.4380  0.00  0.00     0.000 OA
ENDBRANCH 107 116
BRANCH 103 119
ATOM    119  O4  SGN B   7      43.366 -12.752  29.3670  0.00  0.00     0.000 O
BRANCH 119 123
ATOM    120  C1  SGN B   7      40.514 -12.959  32.4190  0.00  0.00     0.000 C
ATOM    121  C2  SGN B   7      41.193 -11.599  32.1680  0.00  0.00     0.000 C
ATOM    122  C3  SGN B   7      41.884 -11.588  30.7980  0.00  0.00     0.000 C
ATOM    123  C4  SGN B   7      42.826 -12.775  30.6890  0.00  0.00     0.000 C
ATOM    124  C5  SGN B   7      42.058 -14.079  30.9610  0.00  0.00     0.000 C
ATOM    125  O5  SGN B   7      41.425 -14.046  32.2600  0.00  0.00     0.000 O
ATOM    126   O  SGN B   7      42.585 -10.349  30.6410  0.00  0.00     0.000 O
ATOM    128  HD  SGN B   7      42.020 -10.822  31.0960  0.00  0.00     0.000 HD
BRANCH 121 130
ATOM    128   N  SGN B   7      39.990 -10.978  32.7280  0.00  0.00     0.000 N
ATOM    130  HD  SGN B   7      40.218 -11.236  33.5220  0.00  0.00     0.000 HD
ATOM    130   S  SGN B   7      40.048  -9.622  33.5950  0.00  0.00     0.000 S
ATOM    131   O  SGN B   7      40.814  -8.713  32.8140  0.00  0.00     0.000 OA
ATOM    132   O  SGN B   7      38.727  -9.290  33.9930  0.00  0.00     0.000 OA
ATOM    133   O  SGN B   7      40.732 -10.153  34.9000  0.00  0.00     0.000 OA
ENDBRANCH 121 130
BRANCH 124 134
ATOM    134   C  SGN B   7      42.927 -15.301  30.9900  0.00  0.00     0.000 C
ATOM    135   O  SGN B   7      43.881 -15.160  32.0560  0.00  0.00     0.000 O
ATOM    136   S  SGN B   7      44.790 -16.407  32.3520  0.00  0.00     0.000 S
ATOM    137   O  SGN B   7      45.723 -15.996  33.3740  0.00  0.00     0.000 OA
ATOM    138   O  SGN B   7      45.431 -16.715  31.0940  0.00  0.00     0.000 OA
ATOM    139   O  SGN B   7      43.824 -17.399  32.7960  0.00  0.00     0.000 OA
ENDBRANCH 124 134
BRANCH 120 140
ATOM    140  O4  IDS B   8      39.456 -13.480  31.7880  0.00  0.00     0.000 O
BRANCH 140 144
ATOM    141  C1  IDS B   8      36.735 -15.430  30.4640  0.00  0.00     0.000 C
ATOM    142  C2  IDS B   8      37.835 -14.853  29.5270  0.00  0.00     0.000 C
ATOM    143  C3  IDS B   8      38.117 -13.360  29.7770  0.00  0.00     0.000 C
ATOM    144  C4  IDS B   8      38.197 -13.033  31.2680  0.00  0.00     0.000 C
ATOM    145  C5  IDS B   8      37.044 -13.712  32.0220  0.00  0.00     0.000 C
ATOM    146  O5  IDS B   8      37.040 -15.123  31.8180  0.00  0.00     0.000 O
BRANCH 142 147
ATOM    147   O  IDS B   8      39.110 -15.584  29.7500  0.00  0.00     0.000 O
ATOM    148   S  IDS B   8      39.571 -16.781  28.7570  0.00  0.00     0.000 S
ATOM    149   O  IDS B   8      38.413 -17.188  27.9940  0.00  0.00     0.000 OA
ATOM    150   O  IDS B   8      40.619 -16.215  27.9290  0.00  0.00     0.000 OA
ATOM    151   O  IDS B   8      40.044 -17.840  29.6290  0.00  0.00     0.000 OA
ENDBRANCH 142 147
BRANCH 145 152
ATOM    152   C  IDS B   8      37.126 -13.507  33.5210  0.00  0.00     0.000 C
ATOM    153   O  IDS B   8      36.924 -14.454  34.2720  0.00  0.00     0.000 OA
ATOM    154   O  IDS B   8      37.412 -12.409  33.9630  0.00  0.00     0.000 OA
ENDBRANCH 145 152
ENDBRANCH 140 144
ENDBRANCH 120 140
ENDBRANCH 119 123
ENDBRANCH 103 119
ENDBRANCH 102 106
ENDBRANCH 82 102
ENDBRANCH 81 85
ENDBRANCH 65 81
ENDBRANCH 64 68
ENDBRANCH 41 64
ENDBRANCH 40 44
ENDBRANCH 24 40
ENDBRANCH 23 27
ENDBRANCH 1 23
TORSDOF 31
ENDMDL
MODEL 56
REMARK VINA RESULT:      -6.2     10.402     13.370
ROOT
ATOM      1  C1  SGN B   1      39.994  -1.553  18.6230  0.00  0.00     0.000 C
ATOM      2  C2  SGN B   1      39.410  -2.665  19.5100  0.00  0.00     0.000 C
ATOM      3  C3  SGN B   1      38.806  -3.782  18.6520  0.00  0.00     0.000 C
ATOM      4  C4  SGN B   1      37.765  -3.208  17.6970  0.00  0.00     0.000 C
ATOM      5  C5  SGN B   1      38.372  -2.020  16.9530  0.00  0.00     0.000 C
ATOM      6  O5  SGN B   1      38.871  -1.061  17.9040  0.00  0.00     0.000 O
ATOM      7   O  SGN B   1      38.227  -4.787  19.4760  0.00  0.00     0.000 O
ATOM      9  HD  SGN B   1      37.760  -4.091  19.6930  0.00  0.00     0.000 HD
ATOM      9   O  SGN B   1      37.368  -4.209  16.7770  0.00  0.00     0.000 O
ATOM     11  HD  SGN B   1      36.901  -3.512  16.9950  0.00  0.00     0.000 HD
ENDROOT
BRANCH 2 13
ATOM     11   N  SGN B   1      39.678  -2.227  20.8930  0.00  0.00     0.000 N
ATOM     13  HD  SGN B   1      40.306  -2.211  20.2970  0.00  0.00     0.000 HD
ATOM     13   S  SGN B   1      41.137  -2.341  21.5630  0.00  0.00     0.000 S
ATOM     14   O  SGN B   1      42.062  -2.852  20.6280  0.00  0.00     0.000 OA
ATOM     15   O  SGN B   1      41.422  -1.117  22.2320  0.00  0.00     0.000 OA
ATOM     16   O  SGN B   1      40.796  -3.397  22.6590  0.00  0.00     0.000 OA
ENDBRANCH 2 13
BRANCH 5 17
ATOM     17   C  SGN B   1      37.399  -1.297  16.0540  0.00  0.00     0.000 C
ATOM     18   O  SGN B   1      36.049  -1.437  16.5380  0.00  0.00     0.000 O
ATOM     19   S  SGN B   1      34.943  -1.794  15.4390  0.00  0.00     0.000 S
ATOM     20   O  SGN B   1      33.675  -1.646  16.1210  0.00  0.00     0.000 OA
ATOM     21   O  SGN B   1      35.156  -0.818  14.3950  0.00  0.00     0.000 OA
ATOM     22   O  SGN B   1      35.232  -3.154  15.0400  0.00  0.00     0.000 OA
ENDBRANCH 5 17
BRANCH 1 23
ATOM     23  O4  IDS B   2      41.158  -1.201  18.0050  0.00  0.00     0.000 O
BRANCH 23 27
ATOM     24  C1  IDS B   2      44.823   0.687  17.5240  0.00  0.00     0.000 C
ATOM     25  C2  IDS B   2      43.956   1.201  18.6950  0.00  0.00     0.000 C
ATOM     26  C3  IDS B   2      42.787   0.257  18.9640  0.00  0.00     0.000 C
ATOM     27  C4  IDS B   2      41.928  -0.011  17.7360  0.00  0.00     0.000 C
ATOM     28  C5  IDS B   2      42.818  -0.098  16.4790  0.00  0.00     0.000 C
ATOM     29  O5  IDS B   2      44.165  -0.380  16.8300  0.00  0.00     0.000 O
ATOM     30   O  IDS B   2      41.946   0.826  19.9610  0.00  0.00     0.000 O
ATOM     32  HD  IDS B   2      41.418   1.440  19.6530  0.00  0.00     0.000 HD
BRANCH 25 32
ATOM     32   O  IDS B   2      44.731   1.325  19.9550  0.00  0.00     0.000 O
ATOM     33   S  IDS B   2      44.881   2.765  20.7470  0.00  0.00     0.000 S
ATOM     34   O  IDS B   2      45.874   2.553  21.7880  0.00  0.00     0.000 OA
ATOM     35   O  IDS B   2      45.306   3.793  19.8070  0.00  0.00     0.000 OA
ATOM     36   O  IDS B   2      43.579   3.038  21.3100  0.00  0.00     0.000 OA
ENDBRANCH 25 32
BRANCH 28 37
ATOM     37   C  IDS B   2      42.393  -1.072  15.3610  0.00  0.00     0.000 C
ATOM     38   O  IDS B   2      43.259  -1.867  15.0800  0.00  0.00     0.000 OA
ATOM     39   O  IDS B   2      41.270  -1.141  14.8060  0.00  0.00     0.000 OA
ENDBRANCH 28 37
BRANCH 24 40
ATOM     40  O4  SUS B   3      45.869   1.421  17.0890  0.00  0.00     0.000 O
BRANCH 40 44
ATOM     41  C1  SUS B   3      49.605  -0.294  16.2860  0.00  0.00     0.000 C
ATOM     42  C2  SUS B   3      49.022   0.657  15.2220  0.00  0.00     0.000 C
ATOM     43  C3  SUS B   3      47.948   1.532  15.8630  0.00  0.00     0.000 C
ATOM     44  C4  SUS B   3      46.913   0.636  16.5240  0.00  0.00     0.000 C
ATOM     45  C5  SUS B   3      47.590  -0.178  17.6080  0.00  0.00     0.000 C
ATOM     46  O5  SUS B   3      48.586  -1.016  16.9870  0.00  0.00     0.000 O
BRANCH 42 49
ATOM     47   N  SUS B   3      49.680  -0.067  14.1200  0.00  0.00     0.000 N
ATOM     49  HD  SUS B   3      50.251  -0.678  14.3450  0.00  0.00     0.000 HD
ATOM     49   S  SUS B   3      50.389   0.915  13.0720  0.00  0.00     0.000 S
ATOM     50   O  SUS B   3      51.332   1.726  13.7360  0.00  0.00     0.000 OA
ATOM     51   O  SUS B   3      51.101  -0.187  12.2460  0.00  0.00     0.000 OA
ATOM     52   O  SUS B   3      49.405   1.561  12.2970  0.00  0.00     0.000 OA
ENDBRANCH 42 49
BRANCH 43 53
ATOM     53   O  SUS B   3      47.313   2.329  14.7950  0.00  0.00     0.000 O
ATOM     54   S  SUS B   3      46.307   1.536  13.7650  0.00  0.00     0.000 S
ATOM     55   O  SUS B   3      45.102   1.197  14.5080  0.00  0.00     0.000 OA
ATOM     56   O  SUS B   3      46.085   2.486  12.6900  0.00  0.00     0.000 OA
ATOM     57   O  SUS B   3      47.022   0.331  13.3340  0.00  0.00     0.000 OA
ENDBRANCH 43 53
BRANCH 45 58
ATOM     58   C  SUS B   3      46.603  -1.025  18.3810  0.00  0.00     0.000 C
ATOM     59   S  SUS B   3      45.812  -3.445  18.6990  0.00  0.00     0.000 S
ATOM     60   O  SUS B   3      46.879  -2.415  18.1430  0.00  0.00     0.000 O
ATOM     61   O  SUS B   3      44.713  -3.400  17.7530  0.00  0.00     0.000 OA
ATOM     62   O  SUS B   3      46.560  -4.671  18.6240  0.00  0.00     0.000 OA
ATOM     63   O  SUS B   3      45.503  -3.001  20.0120  0.00  0.00     0.000 OA
ENDBRANCH 45 58
BRANCH 41 64
ATOM     64  O4  IDS B   4      50.539   0.295  17.1030  0.00  0.00     0.000 O
BRANCH 64 68
ATOM     65  C1  IDS B   4      53.597   0.888  18.9920  0.00  0.00     0.000 C
ATOM     66  C2  IDS B   4      53.561   1.146  17.4800  0.00  0.00     0.000 C
ATOM     67  C3  IDS B   4      52.920   0.033  16.6690  0.00  0.00     0.000 C
ATOM     68  C4  IDS B   4      51.688  -0.549  17.3350  0.00  0.00     0.000 C
ATOM     69  C5  IDS B   4      52.003  -0.756  18.8230  0.00  0.00     0.000 C
ATOM     70  O5  IDS B   4      52.302   0.507  19.4210  0.00  0.00     0.000 O
ATOM     71   O  IDS B   4      53.893  -0.977  16.5000  0.00  0.00     0.000 O
ATOM     73  HD  IDS B   4      53.610  -0.179  16.6810  0.00  0.00     0.000 HD
BRANCH 66 73
ATOM     73   O  IDS B   4      52.742   2.339  17.2240  0.00  0.00     0.000 O
ATOM     74   S  IDS B   4      53.462   3.624  16.5550  0.00  0.00     0.000 S
ATOM     75   O  IDS B   4      54.568   3.971  17.4220  0.00  0.00     0.000 OA
ATOM     76   O  IDS B   4      52.394   4.592  16.5500  0.00  0.00     0.000 OA
ATOM     77   O  IDS B   4      53.879   3.192  15.2420  0.00  0.00     0.000 OA
ENDBRANCH 66 73
BRANCH 69 78
ATOM     78   C  IDS B   4      50.943  -1.537  19.5880  0.00  0.00     0.000 C
ATOM     79   O  IDS B   4      50.483  -1.053  20.6210  0.00  0.00     0.000 OA
ATOM     80   O  IDS B   4      50.501  -2.588  19.0890  0.00  0.00     0.000 OA
ENDBRANCH 69 78
BRANCH 65 81
ATOM     81  O4  SGN B   5      54.616   0.031  19.2800  0.00  0.00     0.000 O
BRANCH 81 85
ATOM     82  C1  SGN B   5      57.612  -0.811  22.1010  0.00  0.00     0.000 C
ATOM     83  C2  SGN B   5      56.196  -1.318  22.4140  0.00  0.00     0.000 C
ATOM     84  C3  SGN B   5      55.363  -1.346  21.1250  0.00  0.00     0.000 C
ATOM     85  C4  SGN B   5      55.377   0.034  20.4900  0.00  0.00     0.000 C
ATOM     86  C5  SGN B   5      56.827   0.416  20.2050  0.00  0.00     0.000 C
ATOM     87  O5  SGN B   5      57.551   0.444  21.4500  0.00  0.00     0.000 O
ATOM     88   O  SGN B   5      54.045  -1.756  21.4140  0.00  0.00     0.000 O
ATOM     90  HD  SGN B   5      54.662  -2.256  21.0680  0.00  0.00     0.000 HD
BRANCH 83 92
ATOM     90   N  SGN B   5      56.634  -2.513  23.1610  0.00  0.00     0.000 N
ATOM     92  HD  SGN B   5      57.467  -2.690  23.0040  0.00  0.00     0.000 HD
ATOM     92   S  SGN B   5      56.191  -2.647  24.6910  0.00  0.00     0.000 S
ATOM     93   O  SGN B   5      56.770  -3.885  25.1200  0.00  0.00     0.000 OA
ATOM     94   O  SGN B   5      56.576  -1.427  25.3120  0.00  0.00     0.000 OA
ATOM     95   O  SGN B   5      54.679  -2.678  24.6520  0.00  0.00     0.000 OA
ENDBRANCH 83 92
BRANCH 86 96
ATOM     96   C  SGN B   5      56.995   1.774  19.5550  0.00  0.00     0.000 C
ATOM     97   O  SGN B   5      56.271   2.771  20.2810  0.00  0.00     0.000 O
ATOM     98   S  SGN B   5      57.092   4.088  20.6830  0.00  0.00     0.000 S
ATOM     99   O  SGN B   5      56.064   4.958  21.2020  0.00  0.00     0.000 OA
ATOM    100   O  SGN B   5      58.077   3.704  21.6290  0.00  0.00     0.000 OA
ATOM    101   O  SGN B   5      57.652   4.546  19.4530  0.00  0.00     0.000 OA
ENDBRANCH 86 96
BRANCH 82 102
ATOM    102  O4  IDS B   6      58.333  -1.697  21.3570  0.00  0.00     0.000 O
BRANCH 102 106
ATOM    103  C1  IDS B   6      61.069  -3.960  20.5500  0.00  0.00     0.000 C
ATOM    104  C2  IDS B   6      60.241  -4.152  21.8310  0.00  0.00     0.000 C
ATOM    105  C3  IDS B   6      60.017  -2.894  22.6460  0.00  0.00     0.000 C
ATOM    106  C4  IDS B   6      59.719  -1.681  21.7830  0.00  0.00     0.000 C
ATOM    107  C5  IDS B   6      60.660  -1.663  20.5740  0.00  0.00     0.000 C
ATOM    108  O5  IDS B   6      60.567  -2.865  19.8080  0.00  0.00     0.000 O
ATOM    109   O  IDS B   6      61.168  -2.674  23.4450  0.00  0.00     0.000 O
ATOM    111  HD  IDS B   6      61.796  -3.098  23.0260  0.00  0.00     0.000 HD
BRANCH 104 111
ATOM    111   O  IDS B   6      58.897  -4.624  21.4660  0.00  0.00     0.000 O
ATOM    112   S  IDS B   6      58.460  -6.091  21.9350  0.00  0.00     0.000 S
ATOM    113   O  IDS B   6      59.452  -6.975  21.3450  0.00  0.00     0.000 OA
ATOM    114   O  IDS B   6      58.414  -6.114  23.4020  0.00  0.00     0.000 OA
ATOM    115   O  IDS B   6      57.160  -6.161  21.3030  0.00  0.00     0.000 OA
ENDBRANCH 104 111
BRANCH 107 116
ATOM    116   C  IDS B   6      60.330  -0.463  19.6960  0.00  0.00     0.000 C
ATOM    117   O  IDS B   6      60.586   0.625  20.1460  0.00  0.00     0.000 OA
ATOM    118   O  IDS B   6      59.822  -0.603  18.5950  0.00  0.00     0.000 OA
ENDBRANCH 107 116
BRANCH 103 119
ATOM    119  O4  SGN B   7      62.353  -3.985  20.9910  0.00  0.00     0.000 O
BRANCH 119 123
ATOM    120  C1  SGN B   7      66.094  -4.823  19.3200  0.00  0.00     0.000 C
ATOM    121  C2  SGN B   7      65.567  -3.380  19.2020  0.00  0.00     0.000 C
ATOM    122  C3  SGN B   7      64.415  -3.146  20.1880  0.00  0.00     0.000 C
ATOM    123  C4  SGN B   7      63.347  -4.210  19.9910  0.00  0.00     0.000 C
ATOM    124  C5  SGN B   7      63.972  -5.608  20.1210  0.00  0.00     0.000 C
ATOM    125  O5  SGN B   7      65.050  -5.785  19.1750  0.00  0.00     0.000 O
ATOM    126   O  SGN B   7      63.886  -1.831  19.9820  0.00  0.00     0.000 O
ATOM    128  HD  SGN B   7      64.511  -2.408  19.8150  0.00  0.00     0.000 HD
BRANCH 121 130
ATOM    128   N  SGN B   7      66.842  -3.172  18.5110  0.00  0.00     0.000 N
ATOM    130  HD  SGN B   7      66.422  -2.904  17.8030  0.00  0.00     0.000 HD
ATOM    130   S  SGN B   7      67.433  -1.703  18.2210  0.00  0.00     0.000 S
ATOM    131   O  SGN B   7      67.379  -1.027  19.4720  0.00  0.00     0.000 OA
ATOM    132   O  SGN B   7      68.666  -1.845  17.5350  0.00  0.00     0.000 OA
ATOM    133   O  SGN B   7      66.427  -1.206  17.1280  0.00  0.00     0.000 OA
ENDBRANCH 121 130
BRANCH 124 134
ATOM    134   C  SGN B   7      63.019  -6.729  19.8280  0.00  0.00     0.000 C
ATOM    135   O  SGN B   7      62.925  -6.890  18.4020  0.00  0.00     0.000 O
ATOM    136   S  SGN B   7      62.090  -8.118  17.8900  0.00  0.00     0.000 S
ATOM    137   O  SGN B   7      62.053  -8.012  16.4510  0.00  0.00     0.000 OA
ATOM    138   O  SGN B   7      60.789  -7.972  18.5010  0.00  0.00     0.000 OA
ATOM    139   O  SGN B   7      62.863  -9.249  18.3810  0.00  0.00     0.000 OA
ENDBRANCH 124 134
BRANCH 120 140
ATOM    140  O4  IDS B   8      66.749  -5.379  20.3460  0.00  0.00     0.000 O
BRANCH 140 144
ATOM    141  C1  IDS B   8      68.462  -7.371  22.8070  0.00  0.00     0.000 C
ATOM    142  C2  IDS B   8      66.955  -7.020  22.9700  0.00  0.00     0.000 C
ATOM    143  C3  IDS B   8      66.658  -5.524  22.7590  0.00  0.00     0.000 C
ATOM    144  C4  IDS B   8      67.402  -4.958  21.5500  0.00  0.00     0.000 C
ATOM    145  C5  IDS B   8      68.861  -5.436  21.5540  0.00  0.00     0.000 C
ATOM    146  O5  IDS B   8      68.949  -6.859  21.5730  0.00  0.00     0.000 O
BRANCH 142 147
ATOM    147   O  IDS B   8      66.159  -7.773  21.9660  0.00  0.00     0.000 O
ATOM    148   S  IDS B   8      65.378  -9.136  22.3700  0.00  0.00     0.000 S
ATOM    149   O  IDS B   8      65.923  -9.597  23.6260  0.00  0.00     0.000 OA
ATOM    150   O  IDS B   8      63.978  -8.765  22.4680  0.00  0.00     0.000 OA
ATOM    151   O  IDS B   8      65.646 -10.064  21.2890  0.00  0.00     0.000 OA
ENDBRANCH 142 147
BRANCH 145 152
ATOM    152   C  IDS B   8      69.626  -4.988  20.3250  0.00  0.00     0.000 C
ATOM    153   O  IDS B   8      70.185  -5.823  19.6230  0.00  0.00     0.000 OA
ATOM    154   O  IDS B   8      69.659  -3.805  20.0350  0.00  0.00     0.000 OA
ENDBRANCH 145 152
ENDBRANCH 140 144
ENDBRANCH 120 140
ENDBRANCH 119 123
ENDBRANCH 103 119
ENDBRANCH 102 106
ENDBRANCH 82 102
ENDBRANCH 81 85
ENDBRANCH 65 81
ENDBRANCH 64 68
ENDBRANCH 41 64
ENDBRANCH 40 44
ENDBRANCH 24 40
ENDBRANCH 23 27
ENDBRANCH 1 23
TORSDOF 31
ENDMDL
MODEL 57
REMARK VINA RESULT:      -6.1     14.806     25.766
ROOT
ATOM      1  C1  SGN B   1      66.554  12.234  12.7360  0.00  0.00     0.000 C
ATOM      2  C2  SGN B   1      67.096  10.935  13.3550  0.00  0.00     0.000 C
ATOM      3  C3  SGN B   1      66.051  10.295  14.2760  0.00  0.00     0.000 C
ATOM      4  C4  SGN B   1      65.606  11.292  15.3400  0.00  0.00     0.000 C
ATOM      5  C5  SGN B   1      65.217  12.605  14.6640  0.00  0.00     0.000 C
ATOM      6  O5  SGN B   1      66.314  13.074  13.8570  0.00  0.00     0.000 O
ATOM      7   O  SGN B   1      66.571   9.118  14.8810  0.00  0.00     0.000 O
ATOM      9  HD  SGN B   1      67.115   9.723  15.1770  0.00  0.00     0.000 HD
ATOM      9   O  SGN B   1      64.501  10.762  16.0500  0.00  0.00     0.000 O
ATOM     11  HD  SGN B   1      65.045  11.367  16.3460  0.00  0.00     0.000 HD
ENDROOT
BRANCH 2 13
ATOM     11   N  SGN B   1      68.451  10.815  12.7840  0.00  0.00     0.000 N
ATOM     13  HD  SGN B   1      67.768  10.956  12.2710  0.00  0.00     0.000 HD
ATOM     13   S  SGN B   1      68.709  10.276  11.2900  0.00  0.00     0.000 S
ATOM     14   O  SGN B   1      67.480  10.009  10.6510  0.00  0.00     0.000 OA
ATOM     15   O  SGN B   1      69.655  11.134  10.6600  0.00  0.00     0.000 OA
ATOM     16   O  SGN B   1      69.457   8.956  11.6550  0.00  0.00     0.000 OA
ENDBRANCH 2 13
BRANCH 5 17
ATOM     17   C  SGN B   1      64.861  13.710  15.6270  0.00  0.00     0.000 C
ATOM     18   O  SGN B   1      65.660  13.627  16.8230  0.00  0.00     0.000 O
ATOM     19   S  SGN B   1      64.875  13.804  18.2050  0.00  0.00     0.000 S
ATOM     20   O  SGN B   1      65.908  13.916  19.2130  0.00  0.00     0.000 OA
ATOM     21   O  SGN B   1      64.110  15.015  18.0230  0.00  0.00     0.000 OA
ATOM     22   O  SGN B   1      64.066  12.611  18.3350  0.00  0.00     0.000 OA
ENDBRANCH 5 17
BRANCH 1 23
ATOM     23  O4  IDS B   2      65.865  12.673  11.6450  0.00  0.00     0.000 O
BRANCH 23 27
ATOM     24  C1  IDS B   2      61.758  12.301  12.1220  0.00  0.00     0.000 C
ATOM     25  C2  IDS B   2      62.452  11.135  11.3850  0.00  0.00     0.000 C
ATOM     26  C3  IDS B   2      63.970  11.226  11.5260  0.00  0.00     0.000 C
ATOM     27  C4  IDS B   2      64.543  12.563  11.0780  0.00  0.00     0.000 C
ATOM     28  C5  IDS B   2      63.584  13.705  11.4700  0.00  0.00     0.000 C
ATOM     29  O5  IDS B   2      62.711  13.299  12.5130  0.00  0.00     0.000 O
ATOM     30   O  IDS B   2      64.575  10.211  10.7330  0.00  0.00     0.000 O
ATOM     32  HD  IDS B   2      64.611  10.412   9.8920  0.00  0.00     0.000 HD
BRANCH 25 32
ATOM     32   O  IDS B   2      62.032   9.812  11.9070  0.00  0.00     0.000 O
ATOM     33   S  IDS B   2      61.163   8.749  10.9900  0.00  0.00     0.000 S
ATOM     34   O  IDS B   2      60.748   7.684  11.8890  0.00  0.00     0.000 OA
ATOM     35   O  IDS B   2      60.016   9.434  10.4120  0.00  0.00     0.000 OA
ATOM     36   O  IDS B   2      62.079   8.262   9.9850  0.00  0.00     0.000 OA
ENDBRANCH 25 32
BRANCH 28 37
ATOM     37   C  IDS B   2      64.202  15.065  11.8560  0.00  0.00     0.000 C
ATOM     38   O  IDS B   2      64.719  15.626  10.9190  0.00  0.00     0.000 OA
ATOM     39   O  IDS B   2      64.155  15.624  12.9790  0.00  0.00     0.000 OA
ENDBRANCH 28 37
BRANCH 24 40
ATOM     40  O4  SUS B   3      60.417  12.435  12.0570  0.00  0.00     0.000 O
BRANCH 40 44
ATOM     41  C1  SUS B   3      57.703  13.910  14.8860  0.00  0.00     0.000 C
ATOM     42  C2  SUS B   3      58.557  14.943  14.1240  0.00  0.00     0.000 C
ATOM     43  C3  SUS B   3      59.102  14.301  12.8490  0.00  0.00     0.000 C
ATOM     44  C4  SUS B   3      59.852  13.032  13.2200  0.00  0.00     0.000 C
ATOM     45  C5  SUS B   3      58.887  12.066  13.8770  0.00  0.00     0.000 C
ATOM     46  O5  SUS B   3      58.397  12.674  15.0890  0.00  0.00     0.000 O
BRANCH 42 49
ATOM     47   N  SUS B   3      58.468  15.863  15.2700  0.00  0.00     0.000 N
ATOM     49  HD  SUS B   3      57.874  15.676  15.8720  0.00  0.00     0.000 HD
ATOM     49   S  SUS B   3      58.260  17.388  14.8230  0.00  0.00     0.000 S
ATOM     50   O  SUS B   3      57.098  17.502  14.0330  0.00  0.00     0.000 OA
ATOM     51   O  SUS B   3      58.013  17.959  16.2430  0.00  0.00     0.000 OA
ATOM     52   O  SUS B   3      59.465  17.886  14.2890  0.00  0.00     0.000 OA
ENDBRANCH 42 49
BRANCH 43 53
ATOM     53   O  SUS B   3      60.024  15.263  12.2150  0.00  0.00     0.000 O
ATOM     54   S  SUS B   3      59.573  15.891  10.7650  0.00  0.00     0.000 S
ATOM     55   O  SUS B   3      58.467  16.805  11.0100  0.00  0.00     0.000 OA
ATOM     56   O  SUS B   3      60.774  16.543  10.2740  0.00  0.00     0.000 OA
ATOM     57   O  SUS B   3      59.151  14.757   9.9360  0.00  0.00     0.000 OA
ENDBRANCH 43 53
BRANCH 45 58
ATOM     58   C  SUS B   3      59.539  10.736  14.1850  0.00  0.00     0.000 C
ATOM     59   S  SUS B   3      60.194   9.195  16.1300  0.00  0.00     0.000 S
ATOM     60   O  SUS B   3      59.386  10.444  15.5840  0.00  0.00     0.000 O
ATOM     61   O  SUS B   3      61.560   9.661  16.2750  0.00  0.00     0.000 OA
ATOM     62   O  SUS B   3      59.540   8.986  17.3940  0.00  0.00     0.000 OA
ATOM     63   O  SUS B   3      60.000   8.168  15.1690  0.00  0.00     0.000 OA
ENDBRANCH 45 58
BRANCH 41 64
ATOM     64  O4  IDS B   4      56.432  13.765  14.3860  0.00  0.00     0.000 O
BRANCH 64 68
ATOM     65  C1  IDS B   4      52.981  12.614  14.1800  0.00  0.00     0.000 C
ATOM     66  C2  IDS B   4      53.292  14.115  14.2430  0.00  0.00     0.000 C
ATOM     67  C3  IDS B   4      54.303  14.502  15.3090  0.00  0.00     0.000 C
ATOM     68  C4  IDS B   4      55.452  13.518  15.4190  0.00  0.00     0.000 C
ATOM     69  C5  IDS B   4      54.869  12.098  15.3810  0.00  0.00     0.000 C
ATOM     70  O5  IDS B   4      54.201  11.897  14.1330  0.00  0.00     0.000 O
ATOM     71   O  IDS B   4      53.611  14.567  16.5390  0.00  0.00     0.000 O
ATOM     73  HD  IDS B   4      53.683  14.550  15.6760  0.00  0.00     0.000 HD
BRANCH 66 73
ATOM     73   O  IDS B   4      53.893  14.527  12.9670  0.00  0.00     0.000 O
ATOM     74   S  IDS B   4      53.031  15.499  12.0020  0.00  0.00     0.000 S
ATOM     75   O  IDS B   4      51.777  14.821  11.7530  0.00  0.00     0.000 OA
ATOM     76   O  IDS B   4      53.884  15.600  10.8450  0.00  0.00     0.000 OA
ATOM     77   O  IDS B   4      52.878  16.733  12.7360  0.00  0.00     0.000 OA
ENDBRANCH 66 73
BRANCH 69 78
ATOM     78   C  IDS B   4      55.872  10.998  15.7000  0.00  0.00     0.000 C
ATOM     79   O  IDS B   4      56.306  10.909  16.8480  0.00  0.00     0.000 OA
ATOM     80   O  IDS B   4      56.138  10.160  14.8190  0.00  0.00     0.000 OA
ENDBRANCH 69 78
BRANCH 65 81
ATOM     81  O4  SGN B   5      52.116  12.289  15.1810  0.00  0.00     0.000 O
BRANCH 81 85
ATOM     82  C1  SGN B   5      48.906   9.781  16.2020  0.00  0.00     0.000 C
ATOM     83  C2  SGN B   5      50.261   9.107  15.9360  0.00  0.00     0.000 C
ATOM     84  C3  SGN B   5      51.382  10.150  16.0420  0.00  0.00     0.000 C
ATOM     85  C4  SGN B   5      51.090  11.298  15.0930  0.00  0.00     0.000 C
ATOM     86  C5  SGN B   5      49.738  11.899  15.4690  0.00  0.00     0.000 C
ATOM     87  O5  SGN B   5      48.726  10.882  15.3320  0.00  0.00     0.000 O
ATOM     88   O  SGN B   5      52.624   9.550  15.7430  0.00  0.00     0.000 O
ATOM     90  HD  SGN B   5      52.333   9.732  16.5380  0.00  0.00     0.000 HD
BRANCH 83 92
ATOM     90   N  SGN B   5      49.810   7.999  16.8000  0.00  0.00     0.000 N
ATOM     92  HD  SGN B   5      49.015   8.150  17.1100  0.00  0.00     0.000 HD
ATOM     92   S  SGN B   5      50.066   6.503  16.3000  0.00  0.00     0.000 S
ATOM     93   O  SGN B   5      49.518   5.683  17.3370  0.00  0.00     0.000 OA
ATOM     94   O  SGN B   5      49.531   6.440  14.9830  0.00  0.00     0.000 OA
ATOM     95   O  SGN B   5      51.571   6.390  16.1820  0.00  0.00     0.000 OA
ENDBRANCH 83 92
BRANCH 86 96
ATOM     96   C  SGN B   5      49.318  13.071  14.6070  0.00  0.00     0.000 C
ATOM     97   O  SGN B   5      49.562  12.792  13.2260  0.00  0.00     0.000 O
ATOM     98   S  SGN B   5      48.332  13.038  12.2280  0.00  0.00     0.000 S
ATOM     99   O  SGN B   5      48.938  12.873  10.9290  0.00  0.00     0.000 OA
ATOM    100   O  SGN B   5      47.331  12.082  12.5400  0.00  0.00     0.000 OA
ATOM    101   O  SGN B   5      47.921  14.379  12.4940  0.00  0.00     0.000 OA
ENDBRANCH 86 96
BRANCH 82 102
ATOM    102  O4  IDS B   6      48.761  10.172  17.5000  0.00  0.00     0.000 O
BRANCH 102 106
ATOM    103  C1  IDS B   6      46.991  10.180  20.6820  0.00  0.00     0.000 C
ATOM    104  C2  IDS B   6      47.042   8.913  19.8140  0.00  0.00     0.000 C
ATOM    105  C3  IDS B   6      46.731   9.127  18.3450  0.00  0.00     0.000 C
ATOM    106  C4  IDS B   6      47.358  10.394  17.7910  0.00  0.00     0.000 C
ATOM    107  C5  IDS B   6      47.184  11.538  18.7940  0.00  0.00     0.000 C
ATOM    108  O5  IDS B   6      47.737  11.216  20.0710  0.00  0.00     0.000 O
ATOM    109   O  IDS B   6      45.321   9.154  18.1920  0.00  0.00     0.000 O
ATOM    111  HD  IDS B   6      45.031   9.373  18.9780  0.00  0.00     0.000 HD
BRANCH 104 111
ATOM    111   O  IDS B   6      48.407   8.365  19.8460  0.00  0.00     0.000 O
ATOM    112   S  IDS B   6      48.668   7.046  20.7150  0.00  0.00     0.000 S
ATOM    113   O  IDS B   6      48.269   7.412  22.0650  0.00  0.00     0.000 OA
ATOM    114   O  IDS B   6      47.900   5.943  20.1270  0.00  0.00     0.000 OA
ATOM    115   O  IDS B   6      50.099   6.928  20.5360  0.00  0.00     0.000 OA
ENDBRANCH 104 111
BRANCH 107 116
ATOM    116   C  IDS B   6      47.848  12.795  18.2450  0.00  0.00     0.000 C
ATOM    117   O  IDS B   6      47.241  13.404  17.4020  0.00  0.00     0.000 OA
ATOM    118   O  IDS B   6      48.946  13.156  18.6380  0.00  0.00     0.000 OA
ENDBRANCH 107 116
BRANCH 103 119
ATOM    119  O4  SGN B   7      45.670  10.328  20.9570  0.00  0.00     0.000 O
BRANCH 119 123
ATOM    120  C1  SGN B   7      43.378  13.006  23.2070  0.00  0.00     0.000 C
ATOM    121  C2  SGN B   7      43.555  13.305  21.7070  0.00  0.00     0.000 C
ATOM    122  C3  SGN B   7      44.056  12.059  20.9650  0.00  0.00     0.000 C
ATOM    123  C4  SGN B   7      45.311  11.530  21.6400  0.00  0.00     0.000 C
ATOM    124  C5  SGN B   7      45.033  11.270  23.1300  0.00  0.00     0.000 C
ATOM    125  O5  SGN B   7      44.566  12.469  23.7870  0.00  0.00     0.000 O
ATOM    126   O  SGN B   7      44.303  12.399  19.5960  0.00  0.00     0.000 O
ATOM    128  HD  SGN B   7      43.971  12.628  20.3630  0.00  0.00     0.000 HD
BRANCH 121 130
ATOM    128   N  SGN B   7      42.983  14.632  21.9480  0.00  0.00     0.000 N
ATOM    130  HD  SGN B   7      43.511  14.976  21.3530  0.00  0.00     0.000 HD
ATOM    130   S  SGN B   7      41.998  15.348  20.8940  0.00  0.00     0.000 S
ATOM    131   O  SGN B   7      41.003  14.376  20.5950  0.00  0.00     0.000 OA
ATOM    132   O  SGN B   7      41.629  16.614  21.4170  0.00  0.00     0.000 OA
ATOM    133   O  SGN B   7      43.008  15.675  19.7420  0.00  0.00     0.000 OA
ENDBRANCH 121 130
BRANCH 124 134
ATOM    134   C  SGN B   7      46.245  10.854  23.9100  0.00  0.00     0.000 C
ATOM    135   O  SGN B   7      47.250  11.873  23.7730  0.00  0.00     0.000 O
ATOM    136   S  SGN B   7      48.547  11.699  24.6420  0.00  0.00     0.000 S
ATOM    137   O  SGN B   7      49.438  12.769  24.2620  0.00  0.00     0.000 OA
ATOM    138   O  SGN B   7      49.058  10.391  24.3010  0.00  0.00     0.000 OA
ATOM    139   O  SGN B   7      48.032  11.810  25.9980  0.00  0.00     0.000 OA
ENDBRANCH 124 134
BRANCH 120 140
ATOM    140  O4  IDS B   8      42.480  12.201  23.7860  0.00  0.00     0.000 O
BRANCH 140 144
ATOM    141  C1  IDS B   8      40.391  11.019  26.4690  0.00  0.00     0.000 C
ATOM    142  C2  IDS B   8      40.936  10.041  25.3900  0.00  0.00     0.000 C
ATOM    143  C3  IDS B   8      40.722  10.549  23.9520  0.00  0.00     0.000 C
ATOM    144  C4  IDS B   8      41.058  12.032  23.8120  0.00  0.00     0.000 C
ATOM    145  C5  IDS B   8      40.454  12.825  24.9810  0.00  0.00     0.000 C
ATOM    146  O5  IDS B   8      40.901  12.328  26.2410  0.00  0.00     0.000 O
BRANCH 142 147
ATOM    147   O  IDS B   8      42.399   9.860  25.5790  0.00  0.00     0.000 O
ATOM    148   S  IDS B   8      43.067   8.381  25.5670  0.00  0.00     0.000 S
ATOM    149   O  IDS B   8      42.003   7.419  25.7450  0.00  0.00     0.000 OA
ATOM    150   O  IDS B   8      43.723   8.263  24.2780  0.00  0.00     0.000 OA
ATOM    151   O  IDS B   8      43.996   8.373  26.6810  0.00  0.00     0.000 OA
ENDBRANCH 142 147
BRANCH 145 152
ATOM    152   C  IDS B   8      40.836  14.291  24.9520  0.00  0.00     0.000 C
ATOM    153   O  IDS B   8      40.497  14.985  24.0000  0.00  0.00     0.000 OA
ATOM    154   O  IDS B   8      41.458  14.769  25.8840  0.00  0.00     0.000 OA
ENDBRANCH 145 152
ENDBRANCH 140 144
ENDBRANCH 120 140
ENDBRANCH 119 123
ENDBRANCH 103 119
ENDBRANCH 102 106
ENDBRANCH 82 102
ENDBRANCH 81 85
ENDBRANCH 65 81
ENDBRANCH 64 68
ENDBRANCH 41 64
ENDBRANCH 40 44
ENDBRANCH 24 40
ENDBRANCH 23 27
ENDBRANCH 1 23
TORSDOF 31
ENDMDL
MODEL 58
REMARK VINA RESULT:      -6.1     16.626     27.396
ROOT
ATOM      1  C1  SGN B   1      60.187  12.060  17.6100  0.00  0.00     0.000 C
ATOM      2  C2  SGN B   1      60.852  11.370  18.8120  0.00  0.00     0.000 C
ATOM      3  C3  SGN B   1      59.947  11.441  20.0470  0.00  0.00     0.000 C
ATOM      4  C4  SGN B   1      59.582  12.890  20.3500  0.00  0.00     0.000 C
ATOM      5  C5  SGN B   1      59.062  13.551  19.0760  0.00  0.00     0.000 C
ATOM      6  O5  SGN B   1      60.039  13.411  18.0270  0.00  0.00     0.000 O
ATOM      7   O  SGN B   1      60.584  10.841  21.1690  0.00  0.00     0.000 O
ATOM      9  HD  SGN B   1      61.131  11.486  20.9790  0.00  0.00     0.000 HD
ATOM      9   O  SGN B   1      58.590  12.925  21.3590  0.00  0.00     0.000 O
ATOM     11  HD  SGN B   1      59.136  13.569  21.1700  0.00  0.00     0.000 HD
ENDROOT
BRANCH 2 13
ATOM     11   N  SGN B   1      62.131  10.710  18.4920  0.00  0.00     0.000 N
ATOM     13  HD  SGN B   1      61.511  10.782  17.8920  0.00  0.00     0.000 HD
ATOM     13   S  SGN B   1      62.248   9.557  17.3760  0.00  0.00     0.000 S
ATOM     14   O  SGN B   1      60.995   9.347  16.7620  0.00  0.00     0.000 OA
ATOM     15   O  SGN B   1      63.388   9.828  16.5660  0.00  0.00     0.000 OA
ATOM     16   O  SGN B   1      62.624   8.372  18.3180  0.00  0.00     0.000 OA
ENDBRANCH 2 13
BRANCH 5 17
ATOM     17   C  SGN B   1      58.769  15.024  19.2230  0.00  0.00     0.000 C
ATOM     18   O  SGN B   1      59.830  15.690  19.9370  0.00  0.00     0.000 O
ATOM     19   S  SGN B   1      59.373  16.711  21.0800  0.00  0.00     0.000 S
ATOM     20   O  SGN B   1      60.582  17.406  21.4680  0.00  0.00     0.000 OA
ATOM     21   O  SGN B   1      58.402  17.559  20.4280  0.00  0.00     0.000 OA
ATOM     22   O  SGN B   1      58.819  15.881  22.1280  0.00  0.00     0.000 OA
ENDBRANCH 5 17
BRANCH 1 23
ATOM     23  O4  IDS B   2      59.360  11.783  16.5610  0.00  0.00     0.000 O
BRANCH 23 27
ATOM     24  C1  IDS B   2      55.338  11.344  17.4910  0.00  0.00     0.000 C
ATOM     25  C2  IDS B   2      56.207  10.080  17.6720  0.00  0.00     0.000 C
ATOM     26  C3  IDS B   2      57.692  10.422  17.5940  0.00  0.00     0.000 C
ATOM     27  C4  IDS B   2      58.079  11.163  16.3220  0.00  0.00     0.000 C
ATOM     28  C5  IDS B   2      56.959  12.146  15.9240  0.00  0.00     0.000 C
ATOM     29  O5  IDS B   2      56.131  12.449  17.0360  0.00  0.00     0.000 O
ATOM     30   O  IDS B   2      58.452   9.220  17.6390  0.00  0.00     0.000 O
ATOM     32  HD  IDS B   2      58.478   8.803  16.8800  0.00  0.00     0.000 HD
BRANCH 25 32
ATOM     32   O  IDS B   2      55.967   9.416  18.9770  0.00  0.00     0.000 O
ATOM     33   S  IDS B   2      55.358   7.886  19.0780  0.00  0.00     0.000 S
ATOM     34   O  IDS B   2      55.052   7.663  20.4820  0.00  0.00     0.000 OA
ATOM     35   O  IDS B   2      54.164   7.784  18.2500  0.00  0.00     0.000 OA
ATOM     36   O  IDS B   2      56.417   7.014  18.6260  0.00  0.00     0.000 OA
ENDBRANCH 25 32
BRANCH 28 37
ATOM     37   C  IDS B   2      57.370  13.471  15.2490  0.00  0.00     0.000 C
ATOM     38   O  IDS B   2      57.159  13.476  14.0590  0.00  0.00     0.000 OA
ATOM     39   O  IDS B   2      57.816  14.500  15.8150  0.00  0.00     0.000 OA
ENDBRANCH 28 37
BRANCH 24 40
ATOM     40  O4  SUS B   3      53.993  11.238  17.4610  0.00  0.00     0.000 O
BRANCH 40 44
ATOM     41  C1  SUS B   3      51.038  13.849  18.8750  0.00  0.00     0.000 C
ATOM     42  C2  SUS B   3      51.756  14.238  17.5670  0.00  0.00     0.000 C
ATOM     43  C3  SUS B   3      52.413  12.998  16.9650  0.00  0.00     0.000 C
ATOM     44  C4  SUS B   3      53.325  12.370  18.0070  0.00  0.00     0.000 C
ATOM     45  C5  SUS B   3      52.490  11.949  19.1990  0.00  0.00     0.000 C
ATOM     46  O5  SUS B   3      51.894  13.131  19.7710  0.00  0.00     0.000 O
BRANCH 42 49
ATOM     47   N  SUS B   3      50.709  14.971  16.8340  0.00  0.00     0.000 N
ATOM     49  HD  SUS B   3      50.442  14.621  16.0880  0.00  0.00     0.000 HD
ATOM     49   S  SUS B   3      51.105  16.498  16.5540  0.00  0.00     0.000 S
ATOM     50   O  SUS B   3      52.316  16.555  15.8340  0.00  0.00     0.000 OA
ATOM     51   O  SUS B   3      49.905  16.828  15.6310  0.00  0.00     0.000 OA
ATOM     52   O  SUS B   3      51.025  17.229  17.7560  0.00  0.00     0.000 OA
ENDBRANCH 42 49
BRANCH 43 53
ATOM     53   O  SUS B   3      53.206  13.425  15.7960  0.00  0.00     0.000 O
ATOM     54   S  SUS B   3      52.661  12.971  14.3140  0.00  0.00     0.000 S
ATOM     55   O  SUS B   3      51.458  13.744  14.0350  0.00  0.00     0.000 OA
ATOM     56   O  SUS B   3      53.769  13.271  13.4240  0.00  0.00     0.000 OA
ATOM     57   O  SUS B   3      52.362  11.539  14.4020  0.00  0.00     0.000 OA
ENDBRANCH 43 53
BRANCH 45 58
ATOM     58   C  SUS B   3      53.314  11.224  20.2400  0.00  0.00     0.000 C
ATOM     59   S  SUS B   3      54.954  11.621  22.1740  0.00  0.00     0.000 S
ATOM     60   O  SUS B   3      53.886  12.181  21.1480  0.00  0.00     0.000 O
ATOM     61   O  SUS B   3      56.176  11.472  21.4060  0.00  0.00     0.000 OA
ATOM     62   O  SUS B   3      55.017  12.708  23.1140  0.00  0.00     0.000 OA
ATOM     63   O  SUS B   3      54.401  10.414  22.6770  0.00  0.00     0.000 OA
ENDBRANCH 45 58
BRANCH 41 64
ATOM     64  O4  IDS B   4      49.811  13.263  18.6790  0.00  0.00     0.000 O
BRANCH 64 68
ATOM     65  C1  IDS B   4      46.274  12.493  19.0960  0.00  0.00     0.000 C
ATOM     66  C2  IDS B   4      46.717  13.914  18.7260  0.00  0.00     0.000 C
ATOM     67  C3  IDS B   4      47.873  14.448  19.5550  0.00  0.00     0.000 C
ATOM     68  C4  IDS B   4      48.939  13.402  19.8230  0.00  0.00     0.000 C
ATOM     69  C5  IDS B   4      48.238  12.096  20.2190  0.00  0.00     0.000 C
ATOM     70  O5  IDS B   4      47.416  11.655  19.1350  0.00  0.00     0.000 O
ATOM     71   O  IDS B   4      47.335  14.905  20.7790  0.00  0.00     0.000 O
ATOM     73  HD  IDS B   4      47.306  14.658  19.9490  0.00  0.00     0.000 HD
BRANCH 66 73
ATOM     73   O  IDS B   4      47.199  13.913  17.3380  0.00  0.00     0.000 O
ATOM     74   S  IDS B   4      46.288  14.642  16.2180  0.00  0.00     0.000 S
ATOM     75   O  IDS B   4      44.984  14.016  16.2800  0.00  0.00     0.000 OA
ATOM     76   O  IDS B   4      47.019  14.356  15.0090  0.00  0.00     0.000 OA
ATOM     77   O  IDS B   4      46.269  16.038  16.5840  0.00  0.00     0.000 OA
ENDBRANCH 66 73
BRANCH 69 78
ATOM     78   C  IDS B   4      49.174  11.010  20.7320  0.00  0.00     0.000 C
ATOM     79   O  IDS B   4      50.016  11.307  21.5780  0.00  0.00     0.000 OA
ATOM     80   O  IDS B   4      48.987   9.837  20.3590  0.00  0.00     0.000 OA
ENDBRANCH 69 78
BRANCH 65 81
ATOM     81  O4  SGN B   5      45.506  12.536  20.2200  0.00  0.00     0.000 O
BRANCH 81 85
ATOM     82  C1  SGN B   5      42.336  10.653  22.2300  0.00  0.00     0.000 C
ATOM     83  C2  SGN B   5      43.615   9.829  22.0180  0.00  0.00     0.000 C
ATOM     84  C3  SGN B   5      44.787  10.771  21.7110  0.00  0.00     0.000 C
ATOM     85  C4  SGN B   5      44.432  11.641  20.5190  0.00  0.00     0.000 C
ATOM     86  C5  SGN B   5      43.166  12.424  20.8560  0.00  0.00     0.000 C
ATOM     87  O5  SGN B   5      42.100  11.490  21.1140  0.00  0.00     0.000 O
ATOM     88   O  SGN B   5      45.954  10.019  21.4590  0.00  0.00     0.000 O
ATOM     90  HD  SGN B   5      45.772  10.429  22.1990  0.00  0.00     0.000 HD
BRANCH 83 92
ATOM     90   N  SGN B   5      42.823   8.936  22.8860  0.00  0.00     0.000 N
ATOM     92  HD  SGN B   5      41.977   9.006  22.7150  0.00  0.00     0.000 HD
ATOM     92   S  SGN B   5      43.348   7.442  23.1040  0.00  0.00     0.000 S
ATOM     93   O  SGN B   5      42.375   6.848  23.9720  0.00  0.00     0.000 OA
ATOM     94   O  SGN B   5      43.558   6.913  21.8010  0.00  0.00     0.000 OA
ATOM     95   O  SGN B   5      44.706   7.602  23.7520  0.00  0.00     0.000 OA
ENDBRANCH 83 92
BRANCH 86 96
ATOM     96   C  SGN B   5      42.697  13.351  19.7540  0.00  0.00     0.000 C
ATOM     97   O  SGN B   5      42.384  14.642  20.2820  0.00  0.00     0.000 O
ATOM     98   S  SGN B   5      43.056  15.892  19.5370  0.00  0.00     0.000 S
ATOM     99   O  SGN B   5      42.401  17.020  20.1540  0.00  0.00     0.000 OA
ATOM    100   O  SGN B   5      44.455  15.822  19.7630  0.00  0.00     0.000 OA
ATOM    101   O  SGN B   5      42.705  15.717  18.1640  0.00  0.00     0.000 OA
ENDBRANCH 86 96
BRANCH 82 102
ATOM    102  O4  IDS B   6      42.371  11.389  23.3770  0.00  0.00     0.000 O
BRANCH 102 106
ATOM    103  C1  IDS B   6      40.997  12.018  26.6890  0.00  0.00     0.000 C
ATOM    104  C2  IDS B   6      40.902  10.623  26.0520  0.00  0.00     0.000 C
ATOM    105  C3  IDS B   6      40.424  10.606  24.6130  0.00  0.00     0.000 C
ATOM    106  C4  IDS B   6      41.020  11.729  23.7820  0.00  0.00     0.000 C
ATOM    107  C5  IDS B   6      41.005  13.031  24.5870  0.00  0.00     0.000 C
ATOM    108  O5  IDS B   6      41.697  12.898  25.8300  0.00  0.00     0.000 O
ATOM    109   O  IDS B   6      39.008  10.680  24.6180  0.00  0.00     0.000 O
ATOM    111  HD  IDS B   6      38.821  11.042  25.3820  0.00  0.00     0.000 HD
BRANCH 104 111
ATOM    111   O  IDS B   6      42.243  10.018  26.0230  0.00  0.00     0.000 O
ATOM    112   S  IDS B   6      42.594   8.914  27.1280  0.00  0.00     0.000 S
ATOM    113   O  IDS B   6      42.406   9.596  28.3990  0.00  0.00     0.000 OA
ATOM    114   O  IDS B   6      41.721   7.754  26.9200  0.00  0.00     0.000 OA
ATOM    115   O  IDS B   6      43.981   8.677  26.7880  0.00  0.00     0.000 OA
ENDBRANCH 104 111
BRANCH 107 116
ATOM    116   C  IDS B   6      41.638  14.143  23.7600  0.00  0.00     0.000 C
ATOM    117   O  IDS B   6      42.804  14.370  23.9590  0.00  0.00     0.000 OA
ATOM    118   O  IDS B   6      40.988  14.775  22.9430  0.00  0.00     0.000 OA
ENDBRANCH 107 116
BRANCH 103 119
ATOM    119  O4  SGN B   7      39.724  12.279  27.0820  0.00  0.00     0.000 O
BRANCH 119 123
ATOM    120  C1  SGN B   7      37.904  15.505  29.0240  0.00  0.00     0.000 C
ATOM    121  C2  SGN B   7      37.629  15.331  27.5180  0.00  0.00     0.000 C
ATOM    122  C3  SGN B   7      38.020  13.921  27.0590  0.00  0.00     0.000 C
ATOM    123  C4  SGN B   7      39.456  13.630  27.4600  0.00  0.00     0.000 C
ATOM    124  C5  SGN B   7      39.628  13.837  28.9740  0.00  0.00     0.000 C
ATOM    125  O5  SGN B   7      39.251  15.177  29.3610  0.00  0.00     0.000 O
ATOM    126   O  SGN B   7      37.845  13.827  25.6410  0.00  0.00     0.000 O
ATOM    128  HD  SGN B   7      37.718  14.278  26.3700  0.00  0.00     0.000 HD
BRANCH 121 130
ATOM    128   N  SGN B   7      36.858  16.565  27.6880  0.00  0.00     0.000 N
ATOM    130  HD  SGN B   7      37.295  16.936  27.0390  0.00  0.00     0.000 HD
ATOM    130   S  SGN B   7      35.722  17.020  26.6400  0.00  0.00     0.000 S
ATOM    131   O  SGN B   7      34.889  15.878  26.4760  0.00  0.00     0.000 OA
ATOM    132   O  SGN B   7      35.174  18.251  27.0830  0.00  0.00     0.000 OA
ATOM    133   O  SGN B   7      36.613  17.403  25.4100  0.00  0.00     0.000 OA
ENDBRANCH 121 130
BRANCH 124 134
ATOM    134   C  SGN B   7      41.043  13.685  29.4510  0.00  0.00     0.000 C
ATOM    135   O  SGN B   7      41.149  14.263  30.7630  0.00  0.00     0.000 O
ATOM    136   S  SGN B   7      42.520  14.070  31.5040  0.00  0.00     0.000 S
ATOM    137   O  SGN B   7      42.423  14.815  32.7370  0.00  0.00     0.000 OA
ATOM    138   O  SGN B   7      43.516  14.600  30.6010  0.00  0.00     0.000 OA
ATOM    139   O  SGN B   7      42.577  12.628  31.6860  0.00  0.00     0.000 OA
ENDBRANCH 124 134
BRANCH 120 140
ATOM    140  O4  IDS B   8      37.282  14.910  30.0480  0.00  0.00     0.000 O
BRANCH 140 144
ATOM    141  C1  IDS B   8      35.642  14.138  33.1590  0.00  0.00     0.000 C
ATOM    142  C2  IDS B   8      36.694  13.170  32.5480  0.00  0.00     0.000 C
ATOM    143  C3  IDS B   8      36.449  12.875  31.0560  0.00  0.00     0.000 C
ATOM    144  C4  IDS B   8      36.095  14.138  30.2740  0.00  0.00     0.000 C
ATOM    145  C5  IDS B   8      35.064  14.971  31.0500  0.00  0.00     0.000 C
ATOM    146  O5  IDS B   8      35.532  15.306  32.3550  0.00  0.00     0.000 O
BRANCH 142 147
ATOM    147   O  IDS B   8      38.048  13.773  32.6600  0.00  0.00     0.000 O
ATOM    148   S  IDS B   8      38.965  13.530  33.9760  0.00  0.00     0.000 S
ATOM    149   O  IDS B   8      38.104  13.033  35.0250  0.00  0.00     0.000 OA
ATOM    150   O  IDS B   8      39.973  12.567  33.5730  0.00  0.00     0.000 OA
ATOM    151   O  IDS B   8      39.519  14.831  34.3010  0.00  0.00     0.000 OA
ENDBRANCH 142 147
BRANCH 145 152
ATOM    152   C  IDS B   8      34.746  16.288  30.3710  0.00  0.00     0.000 C
ATOM    153   O  IDS B   8      33.788  16.359  29.6100  0.00  0.00     0.000 OA
ATOM    154   O  IDS B   8      35.433  17.266  30.6030  0.00  0.00     0.000 OA
ENDBRANCH 145 152
ENDBRANCH 140 144
ENDBRANCH 120 140
ENDBRANCH 119 123
ENDBRANCH 103 119
ENDBRANCH 102 106
ENDBRANCH 82 102
ENDBRANCH 81 85
ENDBRANCH 65 81
ENDBRANCH 64 68
ENDBRANCH 41 64
ENDBRANCH 40 44
ENDBRANCH 24 40
ENDBRANCH 23 27
ENDBRANCH 1 23
TORSDOF 31
ENDMDL
MODEL 59
REMARK VINA RESULT:      -6.1     12.995     25.370
ROOT
ATOM      1  C1  SGN B   1      57.825  -2.685  21.4260  0.00  0.00     0.000 C
ATOM      2  C2  SGN B   1      59.044  -3.148  22.2410  0.00  0.00     0.000 C
ATOM      3  C3  SGN B   1      58.804  -4.541  22.8320  0.00  0.00     0.000 C
ATOM      4  C4  SGN B   1      57.526  -4.547  23.6640  0.00  0.00     0.000 C
ATOM      5  C5  SGN B   1      56.391  -3.943  22.8400  0.00  0.00     0.000 C
ATOM      6  O5  SGN B   1      56.773  -2.633  22.3810  0.00  0.00     0.000 O
ATOM      7   O  SGN B   1      59.915  -4.948  23.6220  0.00  0.00     0.000 O
ATOM      9  HD  SGN B   1      59.654  -4.235  24.0390  0.00  0.00     0.000 HD
ATOM      9   O  SGN B   1      57.209  -5.877  24.0310  0.00  0.00     0.000 O
ATOM     11  HD  SGN B   1      56.948  -5.165  24.4490  0.00  0.00     0.000 HD
ENDROOT
BRANCH 2 13
ATOM     11   N  SGN B   1      60.064  -2.087  22.1450  0.00  0.00     0.000 N
ATOM     13  HD  SGN B   1      59.624  -2.338  21.4430  0.00  0.00     0.000 HD
ATOM     13   S  SGN B   1      60.891  -1.809  20.7930  0.00  0.00     0.000 S
ATOM     14   O  SGN B   1      60.451  -2.674  19.7690  0.00  0.00     0.000 OA
ATOM     15   O  SGN B   1      60.916  -0.404  20.5600  0.00  0.00     0.000 OA
ATOM     16   O  SGN B   1      62.306  -2.215  21.3100  0.00  0.00     0.000 OA
ENDBRANCH 2 13
BRANCH 5 17
ATOM     17   C  SGN B   1      55.094  -3.794  23.5970  0.00  0.00     0.000 C
ATOM     18   O  SGN B   1      55.339  -3.439  24.9730  0.00  0.00     0.000 O
ATOM     19   S  SGN B   1      54.493  -4.242  26.0660  0.00  0.00     0.000 S
ATOM     20   O  SGN B   1      54.740  -3.551  27.3140  0.00  0.00     0.000 OA
ATOM     21   O  SGN B   1      53.128  -4.133  25.6050  0.00  0.00     0.000 OA
ATOM     22   O  SGN B   1      55.018  -5.589  26.0350  0.00  0.00     0.000 OA
ENDBRANCH 5 17
BRANCH 1 23
ATOM     23  O4  IDS B   2      57.326  -2.731  20.1580  0.00  0.00     0.000 O
BRANCH 23 27
ATOM     24  C1  IDS B   2      54.028  -0.224  19.9010  0.00  0.00     0.000 C
ATOM     25  C2  IDS B   2      53.742  -1.727  19.6870  0.00  0.00     0.000 C
ATOM     26  C3  IDS B   2      54.944  -2.575  20.0930  0.00  0.00     0.000 C
ATOM     27  C4  IDS B   2      56.236  -2.168  19.3980  0.00  0.00     0.000 C
ATOM     28  C5  IDS B   2      56.292  -0.635  19.2420  0.00  0.00     0.000 C
ATOM     29  O5  IDS B   2      55.419   0.000  20.1650  0.00  0.00     0.000 O
ATOM     30   O  IDS B   2      54.690  -3.936  19.7660  0.00  0.00     0.000 O
ATOM     32  HD  IDS B   2      54.810  -4.114  18.9270  0.00  0.00     0.000 HD
BRANCH 25 32
ATOM     32   O  IDS B   2      52.576  -2.194  20.4780  0.00  0.00     0.000 O
ATOM     33   S  IDS B   2      51.274  -2.917  19.7670  0.00  0.00     0.000 S
ATOM     34   O  IDS B   2      50.258  -3.027  20.8020  0.00  0.00     0.000 OA
ATOM     35   O  IDS B   2      50.814  -2.099  18.6540  0.00  0.00     0.000 OA
ATOM     36   O  IDS B   2      51.735  -4.218  19.3410  0.00  0.00     0.000 OA
ENDBRANCH 25 32
BRANCH 28 37
ATOM     37   C  IDS B   2      57.672   0.049  19.3310  0.00  0.00     0.000 C
ATOM     38   O  IDS B   2      58.402  -0.253  18.4160  0.00  0.00     0.000 OA
ATOM     39   O  IDS B   2      58.045   0.889  20.1850  0.00  0.00     0.000 OA
ENDBRANCH 28 37
BRANCH 24 40
ATOM     40  O4  SUS B   3      53.109   0.694  19.5360  0.00  0.00     0.000 O
BRANCH 40 44
ATOM     41  C1  SUS B   3      52.147   4.271  21.4930  0.00  0.00     0.000 C
ATOM     42  C2  SUS B   3      52.989   4.376  20.2050  0.00  0.00     0.000 C
ATOM     43  C3  SUS B   3      52.832   3.091  19.3950  0.00  0.00     0.000 C
ATOM     44  C4  SUS B   3      53.196   1.906  20.2770  0.00  0.00     0.000 C
ATOM     45  C5  SUS B   3      52.243   1.860  21.4540  0.00  0.00     0.000 C
ATOM     46  O5  SUS B   3      52.417   3.068  22.2220  0.00  0.00     0.000 O
BRANCH 42 49
ATOM     47   N  SUS B   3      53.647   5.600  20.6920  0.00  0.00     0.000 N
ATOM     49  HD  SUS B   3      53.307   5.967  21.4000  0.00  0.00     0.000 HD
ATOM     49   S  SUS B   3      53.772   6.726  19.5600  0.00  0.00     0.000 S
ATOM     50   O  SUS B   3      52.495   7.044  19.0550  0.00  0.00     0.000 OA
ATOM     51   O  SUS B   3      54.290   7.856  20.4860  0.00  0.00     0.000 OA
ATOM     52   O  SUS B   3      54.765   6.348  18.6340  0.00  0.00     0.000 OA
ENDBRANCH 42 49
BRANCH 43 53
ATOM     53   O  SUS B   3      53.754   3.163  18.2450  0.00  0.00     0.000 O
ATOM     54   S  SUS B   3      53.082   3.354  16.7570  0.00  0.00     0.000 S
ATOM     55   O  SUS B   3      52.563   4.712  16.6840  0.00  0.00     0.000 OA
ATOM     56   O  SUS B   3      54.179   3.096  15.8410  0.00  0.00     0.000 OA
ATOM     57   O  SUS B   3      52.003   2.367  16.6590  0.00  0.00     0.000 OA
ENDBRANCH 43 53
BRANCH 45 58
ATOM     58   C  SUS B   3      52.479   0.647  22.3260  0.00  0.00     0.000 C
ATOM     59   S  SUS B   3      53.330  -0.057  24.6430  0.00  0.00     0.000 S
ATOM     60   O  SUS B   3      52.836   1.075  23.6510  0.00  0.00     0.000 O
ATOM     61   O  SUS B   3      54.701  -0.329  24.2550  0.00  0.00     0.000 OA
ATOM     62   O  SUS B   3      53.235   0.631  25.9020  0.00  0.00     0.000 OA
ATOM     63   O  SUS B   3      52.423  -1.136  24.4700  0.00  0.00     0.000 OA
ENDBRANCH 45 58
BRANCH 41 64
ATOM     64  O4  IDS B   4      50.811   4.524  21.3030  0.00  0.00     0.000 O
BRANCH 64 68
ATOM     65  C1  IDS B   4      47.365   5.546  21.9010  0.00  0.00     0.000 C
ATOM     66  C2  IDS B   4      48.421   6.586  21.5060  0.00  0.00     0.000 C
ATOM     67  C3  IDS B   4      49.728   6.477  22.2740  0.00  0.00     0.000 C
ATOM     68  C4  IDS B   4      50.167   5.041  22.4890  0.00  0.00     0.000 C
ATOM     69  C5  IDS B   4      48.942   4.226  22.9230  0.00  0.00     0.000 C
ATOM     70  O5  IDS B   4      47.961   4.261  21.8840  0.00  0.00     0.000 O
ATOM     71   O  IDS B   4      49.534   7.109  23.5230  0.00  0.00     0.000 O
ATOM     73  HD  IDS B   4      49.351   6.925  22.6960  0.00  0.00     0.000 HD
BRANCH 66 73
ATOM     73   O  IDS B   4      48.779   6.384  20.0950  0.00  0.00     0.000 O
ATOM     74   S  IDS B   4      48.608   7.634  19.0830  0.00  0.00     0.000 S
ATOM     75   O  IDS B   4      47.226   8.053  19.1790  0.00  0.00     0.000 OA
ATOM     76   O  IDS B   4      48.955   7.040  17.8170  0.00  0.00     0.000 OA
ATOM     77   O  IDS B   4      49.541   8.635  19.5450  0.00  0.00     0.000 OA
ENDBRANCH 66 73
BRANCH 69 78
ATOM     78   C  IDS B   4      49.259   2.812  23.3900  0.00  0.00     0.000 C
ATOM     79   O  IDS B   4      48.920   1.865  22.6810  0.00  0.00     0.000 OA
ATOM     80   O  IDS B   4      49.944   2.664  24.4190  0.00  0.00     0.000 OA
ENDBRANCH 69 78
BRANCH 65 81
ATOM     81  O4  SGN B   5      46.765   5.929  23.0630  0.00  0.00     0.000 O
BRANCH 81 85
ATOM     82  C1  SGN B   5      43.128   5.728  25.1520  0.00  0.00     0.000 C
ATOM     83  C2  SGN B   5      44.165   4.635  25.4500  0.00  0.00     0.000 C
ATOM     84  C3  SGN B   5      45.551   5.103  24.9860  0.00  0.00     0.000 C
ATOM     85  C4  SGN B   5      45.487   5.479  23.5160  0.00  0.00     0.000 C
ATOM     86  C5  SGN B   5      44.445   6.583  23.3500  0.00  0.00     0.000 C
ATOM     87  O5  SGN B   5      43.166   6.080  23.7820  0.00  0.00     0.000 O
ATOM     88   O  SGN B   5      46.500   4.081  25.2050  0.00  0.00     0.000 O
ATOM     90  HD  SGN B   5      46.392   4.782  25.7030  0.00  0.00     0.000 HD
BRANCH 83 92
ATOM     90   N  SGN B   5      43.094   4.317  26.4150  0.00  0.00     0.000 N
ATOM     92  HD  SGN B   5      42.312   4.430  26.0600  0.00  0.00     0.000 HD
ATOM     92   S  SGN B   5      43.249   2.996  27.3010  0.00  0.00     0.000 S
ATOM     93   O  SGN B   5      42.068   2.971  28.1110  0.00  0.00     0.000 OA
ATOM     94   O  SGN B   5      43.506   1.941  26.3810  0.00  0.00     0.000 OA
ATOM     95   O  SGN B   5      44.515   3.216  28.1000  0.00  0.00     0.000 OA
ENDBRANCH 83 92
BRANCH 86 96
ATOM     96   C  SGN B   5      44.280   7.071  21.9250  0.00  0.00     0.000 C
ATOM     97   O  SGN B   5      43.333   8.140  21.8670  0.00  0.00     0.000 O
ATOM     98   S  SGN B   5      43.808   9.463  21.0960  0.00  0.00     0.000 S
ATOM     99   O  SGN B   5      42.597  10.246  21.0330  0.00  0.00     0.000 OA
ATOM    100   O  SGN B   5      44.853  10.048  21.8570  0.00  0.00     0.000 OA
ATOM    101   O  SGN B   5      44.244   8.993  19.8210  0.00  0.00     0.000 OA
ENDBRANCH 86 96
BRANCH 82 102
ATOM    102  O4  IDS B   6      43.292   6.834  25.9310  0.00  0.00     0.000 O
BRANCH 102 106
ATOM    103  C1  IDS B   6      42.264   9.038  28.6410  0.00  0.00     0.000 C
ATOM    104  C2  IDS B   6      42.056   7.518  28.7420  0.00  0.00     0.000 C
ATOM    105  C3  IDS B   6      41.442   6.871  27.5150  0.00  0.00     0.000 C
ATOM    106  C4  IDS B   6      42.000   7.429  26.2170  0.00  0.00     0.000 C
ATOM    107  C5  IDS B   6      42.112   8.953  26.3150  0.00  0.00     0.000 C
ATOM    108  O5  IDS B   6      42.913   9.359  27.4260  0.00  0.00     0.000 O
ATOM    109   O  IDS B   6      40.037   7.051  27.5770  0.00  0.00     0.000 O
ATOM    111  HD  IDS B   6      39.938   7.740  28.0930  0.00  0.00     0.000 HD
BRANCH 104 111
ATOM    111   O  IDS B   6      43.362   6.865  28.9130  0.00  0.00     0.000 O
ATOM    112   S  IDS B   6      43.650   6.106  30.2930  0.00  0.00     0.000 S
ATOM    113   O  IDS B   6      43.491   7.130  31.3140  0.00  0.00     0.000 OA
ATOM    114   O  IDS B   6      42.718   4.979  30.4050  0.00  0.00     0.000 OA
ATOM    115   O  IDS B   6      45.024   5.715  30.0630  0.00  0.00     0.000 OA
ENDBRANCH 104 111
BRANCH 107 116
ATOM    116   C  IDS B   6      42.707   9.498  25.0220  0.00  0.00     0.000 C
ATOM    117   O  IDS B   6      41.937   9.717  24.1220  0.00  0.00     0.000 OA
ATOM    118   O  IDS B   6      43.906   9.692  24.9070  0.00  0.00     0.000 OA
ENDBRANCH 107 116
BRANCH 103 119
ATOM    119  O4  SGN B   7      41.045   9.550  28.9480  0.00  0.00     0.000 O
BRANCH 119 123
ATOM    120  C1  SGN B   7      39.425  13.404  29.0670  0.00  0.00     0.000 C
ATOM    121  C2  SGN B   7      39.112  12.536  27.8340  0.00  0.00     0.000 C
ATOM    122  C3  SGN B   7      39.423  11.062  28.1200  0.00  0.00     0.000 C
ATOM    123  C4  SGN B   7      40.852  10.927  28.6210  0.00  0.00     0.000 C
ATOM    124  C5  SGN B   7      41.065  11.833  29.8440  0.00  0.00     0.000 C
ATOM    125  O5  SGN B   7      40.761  13.211  29.5290  0.00  0.00     0.000 O
ATOM    126   O  SGN B   7      39.215  10.301  26.9250  0.00  0.00     0.000 O
ATOM    128  HD  SGN B   7      39.126  11.054  27.3420  0.00  0.00     0.000 HD
BRANCH 121 130
ATOM    128   N  SGN B   7      38.057  13.533  27.6330  0.00  0.00     0.000 N
ATOM    130  HD  SGN B   7      38.586  14.004  27.1350  0.00  0.00     0.000 HD
ATOM    130   S  SGN B   7      37.273  13.684  26.2340  0.00  0.00     0.000 S
ATOM    131   O  SGN B   7      36.845  12.368  25.9030  0.00  0.00     0.000 OA
ATOM    132   O  SGN B   7      36.328  14.734  26.3640  0.00  0.00     0.000 OA
ATOM    133   O  SGN B   7      38.409  14.283  25.3380  0.00  0.00     0.000 OA
ENDBRANCH 121 130
BRANCH 124 134
ATOM    134   C  SGN B   7      42.479  11.858  30.3430  0.00  0.00     0.000 C
ATOM    135   O  SGN B   7      42.553  11.078  31.5490  0.00  0.00     0.000 O
ATOM    136   S  SGN B   7      43.987  10.850  32.1490  0.00  0.00     0.000 S
ATOM    137   O  SGN B   7      43.800  10.142  33.3920  0.00  0.00     0.000 OA
ATOM    138   O  SGN B   7      44.535  12.175  32.3310  0.00  0.00     0.000 OA
ATOM    139   O  SGN B   7      44.640  10.066  31.1120  0.00  0.00     0.000 OA
ENDBRANCH 124 134
BRANCH 120 140
ATOM    140  O4  IDS B   8      38.795  13.415  30.2470  0.00  0.00     0.000 O
BRANCH 140 144
ATOM    141  C1  IDS B   8      37.727  14.450  33.5260  0.00  0.00     0.000 C
ATOM    142  C2  IDS B   8      37.869  12.943  33.1700  0.00  0.00     0.000 C
ATOM    143  C3  IDS B   8      37.185  12.569  31.8420  0.00  0.00     0.000 C
ATOM    144  C4  IDS B   8      37.464  13.596  30.7450  0.00  0.00     0.000 C
ATOM    145  C5  IDS B   8      37.296  15.019  31.2980  0.00  0.00     0.000 C
ATOM    146  O5  IDS B   8      38.139  15.250  32.4240  0.00  0.00     0.000 O
BRANCH 142 147
ATOM    147   O  IDS B   8      39.309  12.599  33.0350  0.00  0.00     0.000 O
ATOM    148   S  IDS B   8      40.142  11.983  34.2840  0.00  0.00     0.000 S
ATOM    149   O  IDS B   8      39.377  12.229  35.4850  0.00  0.00     0.000 OA
ATOM    150   O  IDS B   8      40.289  10.569  33.9910  0.00  0.00     0.000 OA
ATOM    151   O  IDS B   8      41.405  12.697  34.2900  0.00  0.00     0.000 OA
ENDBRANCH 142 147
BRANCH 145 152
ATOM    152   C  IDS B   8      37.656  16.085  30.2820  0.00  0.00     0.000 C
ATOM    153   O  IDS B   8      37.045  16.139  29.2210  0.00  0.00     0.000 OA
ATOM    154   O  IDS B   8      38.534  16.889  30.5390  0.00  0.00     0.000 OA
ENDBRANCH 145 152
ENDBRANCH 140 144
ENDBRANCH 120 140
ENDBRANCH 119 123
ENDBRANCH 103 119
ENDBRANCH 102 106
ENDBRANCH 82 102
ENDBRANCH 81 85
ENDBRANCH 65 81
ENDBRANCH 64 68
ENDBRANCH 41 64
ENDBRANCH 40 44
ENDBRANCH 24 40
ENDBRANCH 23 27
ENDBRANCH 1 23
TORSDOF 31
ENDMDL
MODEL 60
REMARK VINA RESULT:      -6.0     16.756     22.036
ROOT
ATOM      1  C1  SGN B   1      65.681   3.865  21.8830  0.00  0.00     0.000 C
ATOM      2  C2  SGN B   1      65.714   4.489  23.2880  0.00  0.00     0.000 C
ATOM      3  C3  SGN B   1      64.305   4.552  23.8880  0.00  0.00     0.000 C
ATOM      4  C4  SGN B   1      63.368   5.306  22.9510  0.00  0.00     0.000 C
ATOM      5  C5  SGN B   1      63.493   4.724  21.5440  0.00  0.00     0.000 C
ATOM      6  O5  SGN B   1      64.872   4.758  21.1300  0.00  0.00     0.000 O
ATOM      7   O  SGN B   1      64.334   5.170  25.1690  0.00  0.00     0.000 O
ATOM      9  HD  SGN B   1      64.631   5.805  24.6600  0.00  0.00     0.000 HD
ATOM      9   O  SGN B   1      62.037   5.180  23.4150  0.00  0.00     0.000 O
ATOM     11  HD  SGN B   1      62.333   5.815  22.9060  0.00  0.00     0.000 HD
ENDROOT
BRANCH 2 13
ATOM     11   N  SGN B   1      67.146   4.774  23.5000  0.00  0.00     0.000 N
ATOM     13  HD  SGN B   1      66.887   3.988  23.2440  0.00  0.00     0.000 HD
ATOM     13   S  SGN B   1      68.195   3.633  23.9310  0.00  0.00     0.000 S
ATOM     14   O  SGN B   1      67.547   2.382  24.0110  0.00  0.00     0.000 OA
ATOM     15   O  SGN B   1      69.362   3.766  23.1250  0.00  0.00     0.000 OA
ATOM     16   O  SGN B   1      68.550   4.180  25.3480  0.00  0.00     0.000 OA
ENDBRANCH 2 13
BRANCH 5 17
ATOM     17   C  SGN B   1      62.692   5.462  20.5010  0.00  0.00     0.000 C
ATOM     18   O  SGN B   1      62.984   6.873  20.5300  0.00  0.00     0.000 O
ATOM     19   S  SGN B   1      61.721   7.852  20.4620  0.00  0.00     0.000 S
ATOM     20   O  SGN B   1      62.281   9.173  20.2700  0.00  0.00     0.000 OA
ATOM     21   O  SGN B   1      60.965   7.374  19.3290  0.00  0.00     0.000 OA
ATOM     22   O  SGN B   1      61.047   7.688  21.7320  0.00  0.00     0.000 OA
ENDBRANCH 5 17
BRANCH 1 23
ATOM     23  O4  IDS B   2      65.766   2.651  21.2670  0.00  0.00     0.000 O
BRANCH 23 27
ATOM     24  C1  IDS B   2      64.904  -1.229  20.0720  0.00  0.00     0.000 C
ATOM     25  C2  IDS B   2      63.904  -0.600  21.0660  0.00  0.00     0.000 C
ATOM     26  C3  IDS B   2      64.142   0.901  21.2040  0.00  0.00     0.000 C
ATOM     27  C4  IDS B   2      65.574   1.256  21.5830  0.00  0.00     0.000 C
ATOM     28  C5  IDS B   2      66.558   0.301  20.8780  0.00  0.00     0.000 C
ATOM     29  O5  IDS B   2      65.952  -0.307  19.7470  0.00  0.00     0.000 O
ATOM     30   O  IDS B   2      63.289   1.420  22.2170  0.00  0.00     0.000 O
ATOM     32  HD  IDS B   2      63.579   1.270  23.0190  0.00  0.00     0.000 HD
BRANCH 25 32
ATOM     32   O  IDS B   2      62.495  -0.793  20.6430  0.00  0.00     0.000 O
ATOM     33   S  IDS B   2      61.805   0.131  19.4630  0.00  0.00     0.000 S
ATOM     34   O  IDS B   2      60.385  -0.183  19.4800  0.00  0.00     0.000 OA
ATOM     35   O  IDS B   2      62.042   1.539  19.7500  0.00  0.00     0.000 OA
ATOM     36   O  IDS B   2      62.423  -0.290  18.2260  0.00  0.00     0.000 OA
ENDBRANCH 25 32
BRANCH 28 37
ATOM     37   C  IDS B   2      67.928   0.866  20.4500  0.00  0.00     0.000 C
ATOM     38   O  IDS B   2      68.751   0.817  21.3330  0.00  0.00     0.000 OA
ATOM     39   O  IDS B   2      68.250   1.284  19.3100  0.00  0.00     0.000 OA
ENDBRANCH 28 37
BRANCH 24 40
ATOM     40  O4  SUS B   3      64.898  -2.563  19.8650  0.00  0.00     0.000 O
BRANCH 40 44
ATOM     41  C1  SUS B   3      64.044  -4.765  16.4050  0.00  0.00     0.000 C
ATOM     42  C2  SUS B   3      65.265  -3.825  16.3590  0.00  0.00     0.000 C
ATOM     43  C3  SUS B   3      65.701  -3.496  17.7850  0.00  0.00     0.000 C
ATOM     44  C4  SUS B   3      64.512  -2.928  18.5440  0.00  0.00     0.000 C
ATOM     45  C5  SUS B   3      63.419  -3.975  18.5980  0.00  0.00     0.000 C
ATOM     46  O5  SUS B   3      63.002  -4.260  17.2480  0.00  0.00     0.000 O
BRANCH 42 49
ATOM     47   N  SUS B   3      65.097  -3.615  14.9110  0.00  0.00     0.000 N
ATOM     49  HD  SUS B   3      64.533  -4.134  14.5070  0.00  0.00     0.000 HD
ATOM     49   S  SUS B   3      66.485  -3.671  14.1130  0.00  0.00     0.000 S
ATOM     50   O  SUS B   3      67.120  -4.909  14.3420  0.00  0.00     0.000 OA
ATOM     51   O  SUS B   3      65.875  -3.625  12.6890  0.00  0.00     0.000 OA
ATOM     52   O  SUS B   3      67.223  -2.501  14.3770  0.00  0.00     0.000 OA
ENDBRANCH 42 49
BRANCH 43 53
ATOM     53   O  SUS B   3      66.777  -2.489  17.7110  0.00  0.00     0.000 O
ATOM     54   S  SUS B   3      68.287  -2.972  18.1440  0.00  0.00     0.000 S
ATOM     55   O  SUS B   3      68.775  -3.865  17.1030  0.00  0.00     0.000 OA
ATOM     56   O  SUS B   3      69.036  -1.732  18.2510  0.00  0.00     0.000 OA
ATOM     57   O  SUS B   3      68.147  -3.674  19.4230  0.00  0.00     0.000 OA
ENDBRANCH 43 53
BRANCH 45 58
ATOM     58   C  SUS B   3      62.237  -3.519  19.4260  0.00  0.00     0.000 C
ATOM     59   S  SUS B   3      60.384  -4.386  20.9740  0.00  0.00     0.000 S
ATOM     60   O  SUS B   3      61.751  -4.621  20.2100  0.00  0.00     0.000 O
ATOM     61   O  SUS B   3      59.355  -4.524  19.9620  0.00  0.00     0.000 OA
ATOM     62   O  SUS B   3      60.403  -5.487  21.9010  0.00  0.00     0.000 OA
ATOM     63   O  SUS B   3      60.493  -3.097  21.5600  0.00  0.00     0.000 OA
ENDBRANCH 45 58
BRANCH 41 64
ATOM     64  O4  IDS B   4      64.366  -6.080  16.6360  0.00  0.00     0.000 O
BRANCH 64 68
ATOM     65  C1  IDS B   4      64.343  -9.720  16.4940  0.00  0.00     0.000 C
ATOM     66  C2  IDS B   4      64.978  -8.907  15.3590  0.00  0.00     0.000 C
ATOM     67  C3  IDS B   4      64.132  -7.742  14.8720  0.00  0.00     0.000 C
ATOM     68  C4  IDS B   4      63.447  -6.998  16.0030  0.00  0.00     0.000 C
ATOM     69  C5  IDS B   4      62.857  -8.035  16.9690  0.00  0.00     0.000 C
ATOM     70  O5  IDS B   4      63.915  -8.830  17.5090  0.00  0.00     0.000 O
ATOM     71   O  IDS B   4      63.162  -8.267  13.9900  0.00  0.00     0.000 O
ATOM     73  HD  IDS B   4      63.898  -8.275  14.4460  0.00  0.00     0.000 HD
BRANCH 66 73
ATOM     73   O  IDS B   4      66.227  -8.307  15.8480  0.00  0.00     0.000 O
ATOM     74   S  IDS B   4      67.606  -8.722  15.1120  0.00  0.00     0.000 S
ATOM     75   O  IDS B   4      67.696 -10.164  15.1930  0.00  0.00     0.000 OA
ATOM     76   O  IDS B   4      68.587  -8.027  15.9080  0.00  0.00     0.000 OA
ATOM     77   O  IDS B   4      67.484  -8.232  13.7600  0.00  0.00     0.000 OA
ENDBRANCH 66 73
BRANCH 69 78
ATOM     78   C  IDS B   4      61.949  -7.450  18.0410  0.00  0.00     0.000 C
ATOM     79   O  IDS B   4      61.051  -6.680  17.7010  0.00  0.00     0.000 OA
ATOM     80   O  IDS B   4      62.075  -7.852  19.2130  0.00  0.00     0.000 OA
ENDBRANCH 69 78
BRANCH 65 81
ATOM     81  O4  SGN B   5      63.403 -10.560  15.9780  0.00  0.00     0.000 O
BRANCH 81 85
ATOM     82  C1  SGN B   5      61.458 -14.231  16.5960  0.00  0.00     0.000 C
ATOM     83  C2  SGN B   5      61.445 -13.229  17.7610  0.00  0.00     0.000 C
ATOM     84  C3  SGN B   5      61.765 -11.824  17.2330  0.00  0.00     0.000 C
ATOM     85  C4  SGN B   5      63.088 -11.857  16.4890  0.00  0.00     0.000 C
ATOM     86  C5  SGN B   5      62.970 -12.864  15.3480  0.00  0.00     0.000 C
ATOM     87  O5  SGN B   5      62.690 -14.163  15.9040  0.00  0.00     0.000 O
ATOM     88   O  SGN B   5      61.811 -10.908  18.3060  0.00  0.00     0.000 O
ATOM     90  HD  SGN B   5      61.150 -11.003  17.7540  0.00  0.00     0.000 HD
BRANCH 83 92
ATOM     90   N  SGN B   5      60.212 -13.889  18.2330  0.00  0.00     0.000 N
ATOM     92  HD  SGN B   5      59.982 -14.534  17.7030  0.00  0.00     0.000 HD
ATOM     92   S  SGN B   5      60.085 -14.217  19.7920  0.00  0.00     0.000 S
ATOM     93   O  SGN B   5      58.805 -14.847  19.9190  0.00  0.00     0.000 OA
ATOM     94   O  SGN B   5      61.268 -14.931  20.1340  0.00  0.00     0.000 OA
ATOM     95   O  SGN B   5      60.158 -12.869  20.4760  0.00  0.00     0.000 OA
ENDBRANCH 83 92
BRANCH 86 96
ATOM     96   C  SGN B   5      64.222 -12.995  14.5040  0.00  0.00     0.000 C
ATOM     97   O  SGN B   5      65.110 -13.962  15.0710  0.00  0.00     0.000 O
ATOM     98   S  SGN B   5      65.650 -15.095  14.0730  0.00  0.00     0.000 S
ATOM     99   O  SGN B   5      66.651 -15.767  14.8660  0.00  0.00     0.000 OA
ATOM    100   O  SGN B   5      64.543 -15.903  13.7070  0.00  0.00     0.000 OA
ATOM    101   O  SGN B   5      66.195 -14.368  12.9720  0.00  0.00     0.000 OA
ENDBRANCH 86 96
BRANCH 82 102
ATOM    102  O4  IDS B   6      60.418 -14.045  15.7340  0.00  0.00     0.000 O
BRANCH 102 106
ATOM    103  C1  IDS B   6      57.484 -15.215  13.9230  0.00  0.00     0.000 C
ATOM    104  C2  IDS B   6      57.776 -15.709  15.3490  0.00  0.00     0.000 C
ATOM    105  C3  IDS B   6      59.205 -16.152  15.5950  0.00  0.00     0.000 C
ATOM    106  C4  IDS B   6      60.225 -15.240  14.9360  0.00  0.00     0.000 C
ATOM    107  C5  IDS B   6      59.759 -14.881  13.5220  0.00  0.00     0.000 C
ATOM    108  O5  IDS B   6      58.465 -14.275  13.5250  0.00  0.00     0.000 O
ATOM    109   O  IDS B   6      59.341 -17.483  15.1250  0.00  0.00     0.000 O
ATOM    111  HD  IDS B   6      58.705 -17.565  14.5440  0.00  0.00     0.000 HD
BRANCH 104 111
ATOM    111   O  IDS B   6      57.543 -14.607  16.2940  0.00  0.00     0.000 O
ATOM    112   S  IDS B   6      56.209 -14.643  17.1790  0.00  0.00     0.000 S
ATOM    113   O  IDS B   6      55.127 -14.676  16.2080  0.00  0.00     0.000 OA
ATOM    114   O  IDS B   6      56.273 -15.811  18.0660  0.00  0.00     0.000 OA
ATOM    115   O  IDS B   6      56.347 -13.375  17.8630  0.00  0.00     0.000 OA
ENDBRANCH 104 111
BRANCH 107 116
ATOM    116   C  IDS B   6      60.769 -13.937  12.8820  0.00  0.00     0.000 C
ATOM    117   O  IDS B   6      61.785 -14.433  12.4660  0.00  0.00     0.000 OA
ATOM    118   O  IDS B   6      60.559 -12.737  12.8080  0.00  0.00     0.000 OA
ENDBRANCH 107 116
BRANCH 103 119
ATOM    119  O4  SGN B   7      57.277 -16.360  13.2230  0.00  0.00     0.000 O
BRANCH 119 123
ATOM    120  C1  SGN B   7      55.173 -17.373   9.7530  0.00  0.00     0.000 C
ATOM    121  C2  SGN B   7      56.681 -17.088   9.6160  0.00  0.00     0.000 C
ATOM    122  C3  SGN B   7      57.365 -17.134  10.9880  0.00  0.00     0.000 C
ATOM    123  C4  SGN B   7      56.647 -16.202  11.9510  0.00  0.00     0.000 C
ATOM    124  C5  SGN B   7      55.154 -16.564  12.0120  0.00  0.00     0.000 C
ATOM    125  O5  SGN B   7      54.551 -16.506  10.7000  0.00  0.00     0.000 O
ATOM    126   O  SGN B   7      58.741 -16.768  10.8350  0.00  0.00     0.000 O
ATOM    128  HD  SGN B   7      57.990 -16.980  10.4590  0.00  0.00     0.000 HD
BRANCH 121 130
ATOM    128   N  SGN B   7      56.635 -17.932   8.4190  0.00  0.00     0.000 N
ATOM    130  HD  SGN B   7      56.252 -17.294   7.9750  0.00  0.00     0.000 HD
ATOM    130   S  SGN B   7      57.599 -17.682   7.1540  0.00  0.00     0.000 S
ATOM    131   O  SGN B   7      58.910 -17.585   7.6980  0.00  0.00     0.000 OA
ATOM    132   O  SGN B   7      57.302 -18.657   6.1670  0.00  0.00     0.000 OA
ATOM    133   O  SGN B   7      56.987 -16.353   6.5930  0.00  0.00     0.000 OA
ENDBRANCH 121 130
BRANCH 124 134
ATOM    134   C  SGN B   7      54.336 -15.625  12.8510  0.00  0.00     0.000 C
ATOM    135   O  SGN B   7      53.199 -15.198  12.0830  0.00  0.00     0.000 O
ATOM    136   S  SGN B   7      52.131 -14.328  12.8380  0.00  0.00     0.000 S
ATOM    137   O  SGN B   7      51.153 -13.938  11.8510  0.00  0.00     0.000 OA
ATOM    138   O  SGN B   7      52.869 -13.207  13.3750  0.00  0.00     0.000 OA
ATOM    139   O  SGN B   7      51.625 -15.252  13.8400  0.00  0.00     0.000 OA
ENDBRANCH 124 134
BRANCH 120 140
ATOM    140  O4  IDS B   8      54.582 -18.521  10.1010  0.00  0.00     0.000 O
BRANCH 140 144
ATOM    141  C1  IDS B   8      53.546 -21.740  11.3370  0.00  0.00     0.000 C
ATOM    142  C2  IDS B   8      54.637 -21.620  10.2350  0.00  0.00     0.000 C
ATOM    143  C3  IDS B   8      54.229 -20.686   9.0810  0.00  0.00     0.000 C
ATOM    144  C4  IDS B   8      53.574 -19.402   9.5880  0.00  0.00     0.000 C
ATOM    145  C5  IDS B   8      52.549 -19.727  10.6840  0.00  0.00     0.000 C
ATOM    146  O5  IDS B   8      53.141 -20.445  11.7640  0.00  0.00     0.000 O
BRANCH 142 147
ATOM    147   O  IDS B   8      55.883 -21.067  10.8300  0.00  0.00     0.000 O
ATOM    148   S  IDS B   8      57.342 -21.540  10.3030  0.00  0.00     0.000 S
ATOM    149   O  IDS B   8      57.161 -22.759   9.5470  0.00  0.00     0.000 OA
ATOM    150   O  IDS B   8      57.834 -20.443   9.4900  0.00  0.00     0.000 OA
ATOM    151   O  IDS B   8      58.128 -21.758  11.5020  0.00  0.00     0.000 OA
ENDBRANCH 142 147
BRANCH 145 152
ATOM    152   C  IDS B   8      51.936 -18.484  11.2970  0.00  0.00     0.000 C
ATOM    153   O  IDS B   8      51.378 -17.666  10.5740  0.00  0.00     0.000 OA
ATOM    154   O  IDS B   8      51.986 -18.320  12.5030  0.00  0.00     0.000 OA
ENDBRANCH 145 152
ENDBRANCH 140 144
ENDBRANCH 120 140
ENDBRANCH 119 123
ENDBRANCH 103 119
ENDBRANCH 102 106
ENDBRANCH 82 102
ENDBRANCH 81 85
ENDBRANCH 65 81
ENDBRANCH 64 68
ENDBRANCH 41 64
ENDBRANCH 40 44
ENDBRANCH 24 40
ENDBRANCH 23 27
ENDBRANCH 1 23
TORSDOF 31
ENDMDL
MODEL 61
REMARK VINA RESULT:      -6.0     16.419     21.975
ROOT
ATOM      1  C1  SGN B   1      63.899   5.632  21.5190  0.00  0.00     0.000 C
ATOM      2  C2  SGN B   1      64.038   6.601  22.7050  0.00  0.00     0.000 C
ATOM      3  C3  SGN B   1      62.672   7.170  23.1040  0.00  0.00     0.000 C
ATOM      4  C4  SGN B   1      62.006   7.831  21.9020  0.00  0.00     0.000 C
ATOM      5  C5  SGN B   1      62.030   6.862  20.7220  0.00  0.00     0.000 C
ATOM      6  O5  SGN B   1      63.385   6.443  20.4710  0.00  0.00     0.000 O
ATOM      7   O  SGN B   1      62.811   8.099  24.1720  0.00  0.00     0.000 O
ATOM      9  HD  SGN B   1      63.285   8.473  23.5510  0.00  0.00     0.000 HD
ATOM      9   O  SGN B   1      60.670   8.167  22.2310  0.00  0.00     0.000 O
ATOM     11  HD  SGN B   1      61.144   8.541  21.6100  0.00  0.00     0.000 HD
ENDROOT
BRANCH 2 13
ATOM     11   N  SGN B   1      65.498   6.512  22.8940  0.00  0.00     0.000 N
ATOM     13  HD  SGN B   1      65.003   5.804  22.9540  0.00  0.00     0.000 HD
ATOM     13   S  SGN B   1      66.178   5.389  23.8250  0.00  0.00     0.000 S
ATOM     14   O  SGN B   1      65.189   4.528  24.3470  0.00  0.00     0.000 OA
ATOM     15   O  SGN B   1      67.289   4.836  23.1250  0.00  0.00     0.000 OA
ATOM     16   O  SGN B   1      66.751   6.330  24.9280  0.00  0.00     0.000 OA
ENDBRANCH 2 13
BRANCH 5 17
ATOM     17   C  SGN B   1      61.494   7.445  19.4380  0.00  0.00     0.000 C
ATOM     18   O  SGN B   1      62.555   8.029  18.6560  0.00  0.00     0.000 O
ATOM     19   S  SGN B   1      62.255   9.469  18.0290  0.00  0.00     0.000 S
ATOM     20   O  SGN B   1      63.352   9.719  17.1190  0.00  0.00     0.000 OA
ATOM     21   O  SGN B   1      60.980   9.307  17.3690  0.00  0.00     0.000 OA
ATOM     22   O  SGN B   1      62.221  10.372  19.1590  0.00  0.00     0.000 OA
ENDBRANCH 5 17
BRANCH 1 23
ATOM     23  O4  IDS B   2      63.686   4.311  21.2570  0.00  0.00     0.000 O
BRANCH 23 27
ATOM     24  C1  IDS B   2      62.265   0.417  21.0240  0.00  0.00     0.000 C
ATOM     25  C2  IDS B   2      61.204   1.498  21.3250  0.00  0.00     0.000 C
ATOM     26  C3  IDS B   2      61.768   2.897  21.0950  0.00  0.00     0.000 C
ATOM     27  C4  IDS B   2      63.050   3.170  21.8710  0.00  0.00     0.000 C
ATOM     28  C5  IDS B   2      63.922   1.899  21.9120  0.00  0.00     0.000 C
ATOM     29  O5  IDS B   2      63.564   1.005  20.8690  0.00  0.00     0.000 O
ATOM     30   O  IDS B   2      60.806   3.863  21.5020  0.00  0.00     0.000 O
ATOM     32  HD  IDS B   2      60.782   3.981  22.3590  0.00  0.00     0.000 HD
BRANCH 25 32
ATOM     32   O  IDS B   2      59.999   1.355  20.4710  0.00  0.00     0.000 O
ATOM     33   S  IDS B   2      58.484   1.681  21.0390  0.00  0.00     0.000 S
ATOM     34   O  IDS B   2      57.560   1.219  20.0160  0.00  0.00     0.000 OA
ATOM     35   O  IDS B   2      58.278   0.980  22.2990  0.00  0.00     0.000 OA
ATOM     36   O  IDS B   2      58.426   3.116  21.1920  0.00  0.00     0.000 OA
ENDBRANCH 25 32
BRANCH 28 37
ATOM     37   C  IDS B   2      65.454   2.076  21.8960  0.00  0.00     0.000 C
ATOM     38   O  IDS B   2      65.986   1.634  22.8880  0.00  0.00     0.000 OA
ATOM     39   O  IDS B   2      66.150   2.551  20.9660  0.00  0.00     0.000 OA
ENDBRANCH 28 37
BRANCH 24 40
ATOM     40  O4  SUS B   3      61.979  -0.885  21.2330  0.00  0.00     0.000 O
BRANCH 40 44
ATOM     41  C1  SUS B   3      61.870  -4.062  18.5050  0.00  0.00     0.000 C
ATOM     42  C2  SUS B   3      63.112  -3.149  18.4750  0.00  0.00     0.000 C
ATOM     43  C3  SUS B   3      63.209  -2.388  19.7950  0.00  0.00     0.000 C
ATOM     44  C4  SUS B   3      61.903  -1.646  20.0330  0.00  0.00     0.000 C
ATOM     45  C5  SUS B   3      60.778  -2.656  20.1340  0.00  0.00     0.000 C
ATOM     46  O5  SUS B   3      60.682  -3.351  18.8750  0.00  0.00     0.000 O
BRANCH 42 49
ATOM     47   N  SUS B   3      64.203  -4.053  18.0720  0.00  0.00     0.000 N
ATOM     49  HD  SUS B   3      64.849  -4.156  18.6380  0.00  0.00     0.000 HD
ATOM     49   S  SUS B   3      64.841  -3.658  16.6560  0.00  0.00     0.000 S
ATOM     50   O  SUS B   3      65.315  -2.331  16.6970  0.00  0.00     0.000 OA
ATOM     51   O  SUS B   3      66.020  -4.662  16.7040  0.00  0.00     0.000 OA
ATOM     52   O  SUS B   3      63.940  -3.997  15.6270  0.00  0.00     0.000 OA
ENDBRANCH 42 49
BRANCH 43 53
ATOM     53   O  SUS B   3      64.320  -1.423  19.6830  0.00  0.00     0.000 O
ATOM     54   S  SUS B   3      65.704  -1.776  20.4970  0.00  0.00     0.000 S
ATOM     55   O  SUS B   3      66.339  -2.895  19.8150  0.00  0.00     0.000 OA
ATOM     56   O  SUS B   3      66.470  -0.544  20.4400  0.00  0.00     0.000 OA
ATOM     57   O  SUS B   3      65.303  -2.144  21.8580  0.00  0.00     0.000 OA
ENDBRANCH 43 53
BRANCH 45 58
ATOM     58   C  SUS B   3      59.457  -2.000  20.4710  0.00  0.00     0.000 C
ATOM     59   S  SUS B   3      56.919  -2.297  20.2280  0.00  0.00     0.000 S
ATOM     60   O  SUS B   3      58.382  -2.897  20.1450  0.00  0.00     0.000 O
ATOM     61   O  SUS B   3      56.762  -1.512  19.0190  0.00  0.00     0.000 OA
ATOM     62   O  SUS B   3      56.134  -3.502  20.2150  0.00  0.00     0.000 OA
ATOM     63   O  SUS B   3      56.880  -1.559  21.4410  0.00  0.00     0.000 OA
ENDBRANCH 45 58
BRANCH 41 64
ATOM     64  O4  IDS B   4      62.061  -5.234  19.1950  0.00  0.00     0.000 O
BRANCH 64 68
ATOM     65  C1  IDS B   4      61.892  -8.785  19.9920  0.00  0.00     0.000 C
ATOM     66  C2  IDS B   4      62.437  -8.323  18.6350  0.00  0.00     0.000 C
ATOM     67  C3  IDS B   4      61.590  -7.268  17.9430  0.00  0.00     0.000 C
ATOM     68  C4  IDS B   4      61.050  -6.224  18.9020  0.00  0.00     0.000 C
ATOM     69  C5  IDS B   4      60.524  -6.947  20.1490  0.00  0.00     0.000 C
ATOM     70  O5  IDS B   4      61.602  -7.644  20.7790  0.00  0.00     0.000 O
ATOM     71   O  IDS B   4      60.517  -7.938  17.3140  0.00  0.00     0.000 O
ATOM     73  HD  IDS B   4      61.295  -7.876  17.6900  0.00  0.00     0.000 HD
BRANCH 66 73
ATOM     73   O  IDS B   4      63.750  -7.696  18.8410  0.00  0.00     0.000 O
ATOM     74   S  IDS B   4      64.976  -8.175  17.8990  0.00  0.00     0.000 S
ATOM     75   O  IDS B   4      65.088  -9.608  18.0710  0.00  0.00     0.000 OA
ATOM     76   O  IDS B   4      66.080  -7.429  18.4490  0.00  0.00     0.000 OA
ATOM     77   O  IDS B   4      64.606  -7.787  16.5590  0.00  0.00     0.000 OA
ENDBRANCH 66 73
BRANCH 69 78
ATOM     78   C  IDS B   4      59.750  -6.058  21.1130  0.00  0.00     0.000 C
ATOM     79   O  IDS B   4      60.356  -5.525  22.0420  0.00  0.00     0.000 OA
ATOM     80   O  IDS B   4      58.554  -5.815  20.8690  0.00  0.00     0.000 OA
ENDBRANCH 69 78
BRANCH 65 81
ATOM     81  O4  SGN B   5      60.874  -9.669  19.7940  0.00  0.00     0.000 O
BRANCH 81 85
ATOM     82  C1  SGN B   5      58.883 -12.945  21.5080  0.00  0.00     0.000 C
ATOM     83  C2  SGN B   5      59.087 -11.709  22.3980  0.00  0.00     0.000 C
ATOM     84  C3  SGN B   5      59.387 -10.487  21.5180  0.00  0.00     0.000 C
ATOM     85  C4  SGN B   5      60.582 -10.789  20.6310  0.00  0.00     0.000 C
ATOM     86  C5  SGN B   5      60.252 -12.015  19.7830  0.00  0.00     0.000 C
ATOM     87  O5  SGN B   5      60.000 -13.130  20.6610  0.00  0.00     0.000 O
ATOM     88   O  SGN B   5      59.632  -9.360  22.3300  0.00  0.00     0.000 O
ATOM     90  HD  SGN B   5      58.893  -9.525  21.9100  0.00  0.00     0.000 HD
BRANCH 83 92
ATOM     90   N  SGN B   5      58.356 -12.623  23.2970  0.00  0.00     0.000 N
ATOM     92  HD  SGN B   5      58.684 -13.424  23.2590  0.00  0.00     0.000 HD
ATOM     92   S  SGN B   5      58.002 -12.106  24.7670  0.00  0.00     0.000 S
ATOM     93   O  SGN B   5      57.314 -13.206  25.3730  0.00  0.00     0.000 OA
ATOM     94   O  SGN B   5      59.228 -11.640  25.3190  0.00  0.00     0.000 OA
ATOM     95   O  SGN B   5      57.118 -10.898  24.5470  0.00  0.00     0.000 OA
ENDBRANCH 83 92
BRANCH 86 96
ATOM     96   C  SGN B   5      61.357 -12.429  18.8340  0.00  0.00     0.000 C
ATOM     97   O  SGN B   5      60.837 -12.641  17.5190  0.00  0.00     0.000 O
ATOM     98   S  SGN B   5      61.601 -11.889  16.3270  0.00  0.00     0.000 S
ATOM     99   O  SGN B   5      60.986 -12.453  15.1490  0.00  0.00     0.000 OA
ATOM    100   O  SGN B   5      61.390 -10.497  16.4970  0.00  0.00     0.000 OA
ATOM    101   O  SGN B   5      62.968 -12.268  16.4870  0.00  0.00     0.000 OA
ENDBRANCH 86 96
BRANCH 82 102
ATOM    102  O4  IDS B   6      57.736 -12.878  20.7740  0.00  0.00     0.000 O
BRANCH 102 106
ATOM    103  C1  IDS B   6      54.396 -13.951  19.7990  0.00  0.00     0.000 C
ATOM    104  C2  IDS B   6      54.794 -13.870  21.2810  0.00  0.00     0.000 C
ATOM    105  C3  IDS B   6      56.130 -14.500  21.6240  0.00  0.00     0.000 C
ATOM    106  C4  IDS B   6      57.198 -14.212  20.5840  0.00  0.00     0.000 C
ATOM    107  C5  IDS B   6      56.607 -14.365  19.1790  0.00  0.00     0.000 C
ATOM    108  O5  IDS B   6      55.470 -13.522  18.9850  0.00  0.00     0.000 O
ATOM    109   O  IDS B   6      55.934 -15.897  21.7710  0.00  0.00     0.000 O
ATOM    111  HD  IDS B   6      55.215 -16.056  21.3150  0.00  0.00     0.000 HD
BRANCH 104 111
ATOM    111   O  IDS B   6      54.921 -12.456  21.6660  0.00  0.00     0.000 O
ATOM    112   S  IDS B   6      53.984 -11.909  22.8430  0.00  0.00     0.000 S
ATOM    113   O  IDS B   6      52.628 -12.156  22.3760  0.00  0.00     0.000 OA
ATOM    114   O  IDS B   6      54.341 -12.606  24.0840  0.00  0.00     0.000 OA
ATOM    115   O  IDS B   6      54.368 -10.514  22.8190  0.00  0.00     0.000 OA
ENDBRANCH 104 111
BRANCH 107 116
ATOM    116   C  IDS B   6      57.676 -14.038  18.1440  0.00  0.00     0.000 C
ATOM    117   O  IDS B   6      58.558 -14.847  18.0020  0.00  0.00     0.000 OA
ATOM    118   O  IDS B   6      57.641 -13.001  17.5000  0.00  0.00     0.000 OA
ENDBRANCH 107 116
BRANCH 103 119
ATOM    119  O4  SGN B   7      53.870 -15.197  19.6760  0.00  0.00     0.000 O
BRANCH 119 123
ATOM    120  C1  SGN B   7      50.930 -17.021  17.3260  0.00  0.00     0.000 C
ATOM    121  C2  SGN B   7      52.329 -16.842  16.7070  0.00  0.00     0.000 C
ATOM    122  C3  SGN B   7      53.366 -16.545  17.7980  0.00  0.00     0.000 C
ATOM    123  C4  SGN B   7      52.908 -15.362  18.6330  0.00  0.00     0.000 C
ATOM    124  C5  SGN B   7      51.504 -15.634  19.1990  0.00  0.00     0.000 C
ATOM    125  O5  SGN B   7      50.561 -15.907  18.1380  0.00  0.00     0.000 O
ATOM    126   O  SGN B   7      54.632 -16.289  17.1790  0.00  0.00     0.000 O
ATOM    128  HD  SGN B   7      53.815 -16.564  17.0960  0.00  0.00     0.000 HD
BRANCH 121 130
ATOM    128   N  SGN B   7      52.233 -18.074  15.9190  0.00  0.00     0.000 N
ATOM    130  HD  SGN B   7      51.509 -17.784  15.5410  0.00  0.00     0.000 HD
ATOM    130   S  SGN B   7      52.554 -18.112  14.3420  0.00  0.00     0.000 S
ATOM    131   O  SGN B   7      53.821 -17.479  14.2040  0.00  0.00     0.000 OA
ATOM    132   O  SGN B   7      52.362 -19.439  13.8790  0.00  0.00     0.000 OA
ATOM    133   O  SGN B   7      51.324 -17.317  13.7850  0.00  0.00     0.000 OA
ENDBRANCH 121 130
BRANCH 124 134
ATOM    134   C  SGN B   7      50.915 -14.474  19.9450  0.00  0.00     0.000 C
ATOM    135   O  SGN B   7      49.482 -14.585  19.9080  0.00  0.00     0.000 O
ATOM    136   S  SGN B   7      48.676 -13.545  20.7660  0.00  0.00     0.000 S
ATOM    137   O  SGN B   7      47.280 -13.785  20.4900  0.00  0.00     0.000 OA
ATOM    138   O  SGN B   7      49.127 -12.249  20.3110  0.00  0.00     0.000 OA
ATOM    139   O  SGN B   7      49.078 -13.881  22.1230  0.00  0.00     0.000 OA
ENDBRANCH 124 134
BRANCH 120 140
ATOM    140  O4  IDS B   8      50.501 -18.009  18.1190  0.00  0.00     0.000 O
BRANCH 140 144
ATOM    141  C1  IDS B   8      50.261 -20.961  20.1660  0.00  0.00     0.000 C
ATOM    142  C2  IDS B   8      50.982 -20.999  18.7890  0.00  0.00     0.000 C
ATOM    143  C3  IDS B   8      50.157 -20.358  17.6570  0.00  0.00     0.000 C
ATOM    144  C4  IDS B   8      49.511 -19.044  18.0930  0.00  0.00     0.000 C
ATOM    145  C5  IDS B   8      48.876 -19.202  19.4830  0.00  0.00     0.000 C
ATOM    146  O5  IDS B   8      49.828 -19.636  20.4510  0.00  0.00     0.000 O
BRANCH 142 147
ATOM    147   O  IDS B   8      52.263 -20.249  18.8790  0.00  0.00     0.000 O
ATOM    148   S  IDS B   8      53.646 -20.888  18.3220  0.00  0.00     0.000 S
ATOM    149   O  IDS B   8      53.436 -22.308  18.1530  0.00  0.00     0.000 OA
ATOM    150   O  IDS B   8      53.911 -20.205  17.0690  0.00  0.00     0.000 OA
ATOM    151   O  IDS B   8      54.635 -20.605  19.3440  0.00  0.00     0.000 OA
ENDBRANCH 142 147
BRANCH 145 152
ATOM    152   C  IDS B   8      48.303 -17.904  20.0140  0.00  0.00     0.000 C
ATOM    153   O  IDS B   8      48.675 -17.480  21.1020  0.00  0.00     0.000 OA
ATOM    154   O  IDS B   8      47.495 -17.285  19.3460  0.00  0.00     0.000 OA
ENDBRANCH 145 152
ENDBRANCH 140 144
ENDBRANCH 120 140
ENDBRANCH 119 123
ENDBRANCH 103 119
ENDBRANCH 102 106
ENDBRANCH 82 102
ENDBRANCH 81 85
ENDBRANCH 65 81
ENDBRANCH 64 68
ENDBRANCH 41 64
ENDBRANCH 40 44
ENDBRANCH 24 40
ENDBRANCH 23 27
ENDBRANCH 1 23
TORSDOF 31
ENDMDL
MODEL 62
REMARK VINA RESULT:      -6.0     17.092     22.765
ROOT
ATOM      1  C1  SGN B   1      65.401   4.626  21.8700  0.00  0.00     0.000 C
ATOM      2  C2  SGN B   1      65.298   5.367  23.2130  0.00  0.00     0.000 C
ATOM      3  C3  SGN B   1      63.844   5.419  23.6940  0.00  0.00     0.000 C
ATOM      4  C4  SGN B   1      62.958   6.050  22.6250  0.00  0.00     0.000 C
ATOM      5  C5  SGN B   1      63.218   5.357  21.2890  0.00  0.00     0.000 C
ATOM      6  O5  SGN B   1      64.624   5.416  20.9810  0.00  0.00     0.000 O
ATOM      7   O  SGN B   1      63.747   6.144  24.9140  0.00  0.00     0.000 O
ATOM      9  HD  SGN B   1      64.060   6.746  24.3770  0.00  0.00     0.000 HD
ATOM      9   O  SGN B   1      61.599   5.906  22.9940  0.00  0.00     0.000 O
ATOM     11  HD  SGN B   1      61.913   6.508  22.4570  0.00  0.00     0.000 HD
ENDROOT
BRANCH 2 13
ATOM     11   N  SGN B   1      66.702   5.725  23.4890  0.00  0.00     0.000 N
ATOM     13  HD  SGN B   1      66.485   4.907  23.3070  0.00  0.00     0.000 HD
ATOM     13   S  SGN B   1      67.749   4.677  24.1180  0.00  0.00     0.000 S
ATOM     14   O  SGN B   1      67.132   3.421  24.2930  0.00  0.00     0.000 OA
ATOM     15   O  SGN B   1      68.967   4.763  23.3840  0.00  0.00     0.000 OA
ATOM     16   O  SGN B   1      67.984   5.390  25.4850  0.00  0.00     0.000 OA
ENDBRANCH 2 13
BRANCH 5 17
ATOM     17   C  SGN B   1      62.476   5.969  20.1260  0.00  0.00     0.000 C
ATOM     18   O  SGN B   1      62.603   7.405  20.1330  0.00  0.00     0.000 O
ATOM     19   S  SGN B   1      61.257   8.229  19.8710  0.00  0.00     0.000 S
ATOM     20   O  SGN B   1      61.685   9.600  19.6950  0.00  0.00     0.000 OA
ATOM     21   O  SGN B   1      60.707   7.635  18.6750  0.00  0.00     0.000 OA
ATOM     22   O  SGN B   1      60.451   8.021  21.0550  0.00  0.00     0.000 OA
ENDBRANCH 5 17
BRANCH 1 23
ATOM     23  O4  IDS B   2      65.580   3.370  21.3710  0.00  0.00     0.000 O
BRANCH 23 27
ATOM     24  C1  IDS B   2      64.899  -0.636  20.5190  0.00  0.00     0.000 C
ATOM     25  C2  IDS B   2      63.874   0.029  21.4650  0.00  0.00     0.000 C
ATOM     26  C3  IDS B   2      64.042   1.546  21.4720  0.00  0.00     0.000 C
ATOM     27  C4  IDS B   2      65.456   2.000  21.8060  0.00  0.00     0.000 C
ATOM     28  C5  IDS B   2      66.482   1.035  21.1760  0.00  0.00     0.000 C
ATOM     29  O5  IDS B   2      65.900   0.304  20.1070  0.00  0.00     0.000 O
ATOM     30   O  IDS B   2      63.169   2.109  22.4450  0.00  0.00     0.000 O
ATOM     32  HD  IDS B   2      63.471   2.042  23.2540  0.00  0.00     0.000 HD
BRANCH 25 32
ATOM     32   O  IDS B   2      62.474  -0.266  21.0720  0.00  0.00     0.000 O
ATOM     33   S  IDS B   2      61.728   0.536  19.8380  0.00  0.00     0.000 S
ATOM     34   O  IDS B   2      60.327   0.150  19.8930  0.00  0.00     0.000 OA
ATOM     35   O  IDS B   2      61.893   1.970  20.0220  0.00  0.00     0.000 OA
ATOM     36   O  IDS B   2      62.357   0.060  18.6270  0.00  0.00     0.000 OA
ENDBRANCH 25 32
BRANCH 28 37
ATOM     37   C  IDS B   2      67.821   1.625  20.6890  0.00  0.00     0.000 C
ATOM     38   O  IDS B   2      68.539   1.970  21.5980  0.00  0.00     0.000 OA
ATOM     39   O  IDS B   2      68.222   1.708  19.5030  0.00  0.00     0.000 OA
ENDBRANCH 28 37
BRANCH 24 40
ATOM     40  O4  SUS B   3      64.956  -1.980  20.4270  0.00  0.00     0.000 O
BRANCH 40 44
ATOM     41  C1  SUS B   3      63.985  -4.525  17.2440  0.00  0.00     0.000 C
ATOM     42  C2  SUS B   3      65.186  -3.579  17.0490  0.00  0.00     0.000 C
ATOM     43  C3  SUS B   3      65.680  -3.104  18.4140  0.00  0.00     0.000 C
ATOM     44  C4  SUS B   3      64.517  -2.480  19.1680  0.00  0.00     0.000 C
ATOM     45  C5  SUS B   3      63.446  -3.531  19.3750  0.00  0.00     0.000 C
ATOM     46  O5  SUS B   3      62.973  -3.953  18.0800  0.00  0.00     0.000 O
BRANCH 42 49
ATOM     47   N  SUS B   3      64.961  -3.438  15.6000  0.00  0.00     0.000 N
ATOM     49  HD  SUS B   3      64.346  -3.940  15.2540  0.00  0.00     0.000 HD
ATOM     49   S  SUS B   3      66.301  -3.632  14.7440  0.00  0.00     0.000 S
ATOM     50   O  SUS B   3      66.865  -4.895  15.0160  0.00  0.00     0.000 OA
ATOM     51   O  SUS B   3      65.626  -3.624  13.3490  0.00  0.00     0.000 OA
ATOM     52   O  SUS B   3      67.126  -2.501  14.9050  0.00  0.00     0.000 OA
ENDBRANCH 42 49
BRANCH 43 53
ATOM     53   O  SUS B   3      66.734  -2.095  18.1910  0.00  0.00     0.000 O
ATOM     54   S  SUS B   3      68.264  -2.498  18.6350  0.00  0.00     0.000 S
ATOM     55   O  SUS B   3      68.742  -3.501  17.6930  0.00  0.00     0.000 OA
ATOM     56   O  SUS B   3      68.991  -1.243  18.5730  0.00  0.00     0.000 OA
ATOM     57   O  SUS B   3      68.172  -3.046  19.9910  0.00  0.00     0.000 OA
ENDBRANCH 43 53
BRANCH 45 58
ATOM     58   C  SUS B   3      62.295  -3.011  20.2080  0.00  0.00     0.000 C
ATOM     59   S  SUS B   3      60.078  -3.726  21.2830  0.00  0.00     0.000 S
ATOM     60   O  SUS B   3      61.449  -4.108  20.5900  0.00  0.00     0.000 O
ATOM     61   O  SUS B   3      59.209  -3.305  20.2000  0.00  0.00     0.000 OA
ATOM     62   O  SUS B   3      59.696  -4.996  21.8400  0.00  0.00     0.000 OA
ATOM     63   O  SUS B   3      60.399  -2.719  22.2310  0.00  0.00     0.000 OA
ENDBRANCH 45 58
BRANCH 41 64
ATOM     64  O4  IDS B   4      64.341  -5.806  17.5880  0.00  0.00     0.000 O
BRANCH 64 68
ATOM     65  C1  IDS B   4      64.540  -9.443  17.4980  0.00  0.00     0.000 C
ATOM     66  C2  IDS B   4      64.969  -8.616  16.2790  0.00  0.00     0.000 C
ATOM     67  C3  IDS B   4      63.993  -7.518  15.8920  0.00  0.00     0.000 C
ATOM     68  C4  IDS B   4      63.411  -6.795  17.0920  0.00  0.00     0.000 C
ATOM     69  C5  IDS B   4      63.020  -7.846  18.1390  0.00  0.00     0.000 C
ATOM     70  O5  IDS B   4      64.189  -8.561  18.5480  0.00  0.00     0.000 O
ATOM     71   O  IDS B   4      62.954  -8.123  15.1490  0.00  0.00     0.000 O
ATOM     73  HD  IDS B   4      63.742  -8.074  15.5060  0.00  0.00     0.000 HD
BRANCH 66 73
ATOM     73   O  IDS B   4      66.228  -7.927  16.5950  0.00  0.00     0.000 O
ATOM     74   S  IDS B   4      67.571  -8.419  15.8390  0.00  0.00     0.000 S
ATOM     75   O  IDS B   4      67.706  -9.832  16.1220  0.00  0.00     0.000 OA
ATOM     76   O  IDS B   4      68.578  -7.597  16.4610  0.00  0.00     0.000 OA
ATOM     77   O  IDS B   4      67.353  -8.135  14.4410  0.00  0.00     0.000 OA
ENDBRANCH 66 73
BRANCH 69 78
ATOM     78   C  IDS B   4      62.220  -7.298  19.3130  0.00  0.00     0.000 C
ATOM     79   O  IDS B   4      61.204  -6.643  19.0810  0.00  0.00     0.000 OA
ATOM     80   O  IDS B   4      62.559  -7.619  20.4670  0.00  0.00     0.000 OA
ENDBRANCH 69 78
BRANCH 65 81
ATOM     81  O4  SGN B   5      63.599 -10.352  17.1200  0.00  0.00     0.000 O
BRANCH 81 85
ATOM     82  C1  SGN B   5      61.844 -13.884  18.5630  0.00  0.00     0.000 C
ATOM     83  C2  SGN B   5      62.573 -12.999  19.5850  0.00  0.00     0.000 C
ATOM     84  C3  SGN B   5      62.734 -11.583  19.0150  0.00  0.00     0.000 C
ATOM     85  C4  SGN B   5      63.446 -11.660  17.6760  0.00  0.00     0.000 C
ATOM     86  C5  SGN B   5      62.620 -12.542  16.7430  0.00  0.00     0.000 C
ATOM     87  O5  SGN B   5      62.520 -13.858  17.3200  0.00  0.00     0.000 O
ATOM     88   O  SGN B   5      63.453 -10.779  19.9250  0.00  0.00     0.000 O
ATOM     90  HD  SGN B   5      62.594 -10.765  19.8120  0.00  0.00     0.000 HD
BRANCH 83 92
ATOM     90   N  SGN B   5      62.647 -14.210  20.4260  0.00  0.00     0.000 N
ATOM     92  HD  SGN B   5      63.335 -14.692  20.2150  0.00  0.00     0.000 HD
ATOM     92   S  SGN B   5      62.385 -14.053  21.9940  0.00  0.00     0.000 S
ATOM     93   O  SGN B   5      62.534 -15.379  22.5130  0.00  0.00     0.000 OA
ATOM     94   O  SGN B   5      63.256 -13.015  22.4290  0.00  0.00     0.000 OA
ATOM     95   O  SGN B   5      60.970 -13.527  22.0970  0.00  0.00     0.000 OA
ENDBRANCH 83 92
BRANCH 86 96
ATOM     96   C  SGN B   5      63.208 -12.700  15.3570  0.00  0.00     0.000 C
ATOM     97   O  SGN B   5      62.178 -12.650  14.3660  0.00  0.00     0.000 O
ATOM     98   S  SGN B   5      62.417 -11.632  13.1500  0.00  0.00     0.000 S
ATOM     99   O  SGN B   5      61.340 -11.958  12.2460  0.00  0.00     0.000 OA
ATOM    100   O  SGN B   5      62.369 -10.317  13.6790  0.00  0.00     0.000 OA
ATOM    101   O  SGN B   5      63.705 -11.981  12.6440  0.00  0.00     0.000 OA
ENDBRANCH 86 96
BRANCH 82 102
ATOM    102  O4  IDS B   6      60.538 -13.531  18.4000  0.00  0.00     0.000 O
BRANCH 102 106
ATOM    103  C1  IDS B   6      56.922 -13.958  18.4780  0.00  0.00     0.000 C
ATOM    104  C2  IDS B   6      57.774 -14.240  19.7260  0.00  0.00     0.000 C
ATOM    105  C3  IDS B   6      59.009 -15.086  19.4830  0.00  0.00     0.000 C
ATOM    106  C4  IDS B   6      59.729 -14.718  18.1980  0.00  0.00     0.000 C
ATOM    107  C5  IDS B   6      58.709 -14.499  17.0780  0.00  0.00     0.000 C
ATOM    108  O5  IDS B   6      57.746 -13.501  17.4220  0.00  0.00     0.000 O
ATOM    109   O  IDS B   6      58.614 -16.448  19.4670  0.00  0.00     0.000 O
ATOM    111  HD  IDS B   6      57.772 -16.419  19.2680  0.00  0.00     0.000 HD
BRANCH 104 111
ATOM    111   O  IDS B   6      58.277 -12.965  20.2610  0.00  0.00     0.000 O
ATOM    112   S  IDS B   6      57.604 -12.392  21.5960  0.00  0.00     0.000 S
ATOM    113   O  IDS B   6      56.195 -12.247  21.2630  0.00  0.00     0.000 OA
ATOM    114   O  IDS B   6      57.881 -13.325  22.6940  0.00  0.00     0.000 OA
ATOM    115   O  IDS B   6      58.315 -11.136  21.6950  0.00  0.00     0.000 OA
ENDBRANCH 104 111
BRANCH 107 116
ATOM    116   C  IDS B   6      59.439 -14.094  15.8030  0.00  0.00     0.000 C
ATOM    117   O  IDS B   6      59.938 -14.982  15.1600  0.00  0.00     0.000 OA
ATOM    118   O  IDS B   6      59.518 -12.925  15.4600  0.00  0.00     0.000 OA
ENDBRANCH 107 116
BRANCH 103 119
ATOM    119  O4  SGN B   7      56.163 -15.076  18.3490  0.00  0.00     0.000 O
BRANCH 119 123
ATOM    120  C1  SGN B   7      52.349 -16.000  16.9020  0.00  0.00     0.000 C
ATOM    121  C2  SGN B   7      53.382 -15.456  15.8960  0.00  0.00     0.000 C
ATOM    122  C3  SGN B   7      54.799 -15.552  16.4750  0.00  0.00     0.000 C
ATOM    123  C4  SGN B   7      54.846 -14.874  17.8330  0.00  0.00     0.000 C
ATOM    124  C5  SGN B   7      53.778 -15.480  18.7580  0.00  0.00     0.000 C
ATOM    125  O5  SGN B   7      52.461 -15.366  18.1750  0.00  0.00     0.000 O
ATOM    126   O  SGN B   7      55.719 -14.949  15.5580  0.00  0.00     0.000 O
ATOM    128  HD  SGN B   7      54.916 -15.236  15.7130  0.00  0.00     0.000 HD
BRANCH 121 130
ATOM    128   N  SGN B   7      52.423 -15.039  14.8690  0.00  0.00     0.000 N
ATOM    130  HD  SGN B   7      53.033 -14.558  14.4860  0.00  0.00     0.000 HD
ATOM    130   S  SGN B   7      52.487 -15.592  13.3590  0.00  0.00     0.000 S
ATOM    131   O  SGN B   7      52.564 -17.008  13.4840  0.00  0.00     0.000 OA
ATOM    132   O  SGN B   7      51.434 -14.995  12.6200  0.00  0.00     0.000 OA
ATOM    133   O  SGN B   7      53.783 -14.875  12.8510  0.00  0.00     0.000 OA
ENDBRANCH 121 130
BRANCH 124 134
ATOM    134   C  SGN B   7      53.668 -14.797  20.0890  0.00  0.00     0.000 C
ATOM    135   O  SGN B   7      52.354 -14.226  20.2030  0.00  0.00     0.000 O
ATOM    136   S  SGN B   7      51.984 -13.594  21.5930  0.00  0.00     0.000 S
ATOM    137   O  SGN B   7      50.677 -13.001  21.4340  0.00  0.00     0.000 OA
ATOM    138   O  SGN B   7      53.018 -12.618  21.8520  0.00  0.00     0.000 OA
ATOM    139   O  SGN B   7      52.008 -14.747  22.4780  0.00  0.00     0.000 OA
ENDBRANCH 124 134
BRANCH 120 140
ATOM    140  O4  IDS B   8      52.185 -17.263  17.3100  0.00  0.00     0.000 O
BRANCH 140 144
ATOM    141  C1  IDS B   8      53.047 -20.560  18.4720  0.00  0.00     0.000 C
ATOM    142  C2  IDS B   8      53.934 -19.822  17.4290  0.00  0.00     0.000 C
ATOM    143  C3  IDS B   8      53.125 -19.229  16.2610  0.00  0.00     0.000 C
ATOM    144  C4  IDS B   8      51.851 -18.534  16.7400  0.00  0.00     0.000 C
ATOM    145  C5  IDS B   8      51.132 -19.407  17.7810  0.00  0.00     0.000 C
ATOM    146  O5  IDS B   8      51.978 -19.716  18.8850  0.00  0.00     0.000 O
BRANCH 142 147
ATOM    147   O  IDS B   8      54.643 -18.696  18.0900  0.00  0.00     0.000 O
ATOM    148   S  IDS B   8      56.205 -18.822  18.5100  0.00  0.00     0.000 S
ATOM    149   O  IDS B   8      56.552 -20.226  18.4890  0.00  0.00     0.000 OA
ATOM    150   O  IDS B   8      56.935 -18.049  17.5220  0.00  0.00     0.000 OA
ATOM    151   O  IDS B   8      56.288 -18.263  19.8450  0.00  0.00     0.000 OA
ENDBRANCH 142 147
BRANCH 145 152
ATOM    152   C  IDS B   8      49.912 -18.727  18.3680  0.00  0.00     0.000 C
ATOM    153   O  IDS B   8      48.923 -18.546  17.6660  0.00  0.00     0.000 OA
ATOM    154   O  IDS B   8      49.918 -18.385  19.5370  0.00  0.00     0.000 OA
ENDBRANCH 145 152
ENDBRANCH 140 144
ENDBRANCH 120 140
ENDBRANCH 119 123
ENDBRANCH 103 119
ENDBRANCH 102 106
ENDBRANCH 82 102
ENDBRANCH 81 85
ENDBRANCH 65 81
ENDBRANCH 64 68
ENDBRANCH 41 64
ENDBRANCH 40 44
ENDBRANCH 24 40
ENDBRANCH 23 27
ENDBRANCH 1 23
TORSDOF 31
ENDMDL
MODEL 63
REMARK VINA RESULT:      -6.0     10.673     13.809
ROOT
ATOM      1  C1  SGN B   1      40.438  -2.266  21.1210  0.00  0.00     0.000 C
ATOM      2  C2  SGN B   1      41.288  -3.502  20.7830  0.00  0.00     0.000 C
ATOM      3  C3  SGN B   1      41.941  -3.352  19.4050  0.00  0.00     0.000 C
ATOM      4  C4  SGN B   1      40.878  -3.084  18.3450  0.00  0.00     0.000 C
ATOM      5  C5  SGN B   1      39.984  -1.937  18.8130  0.00  0.00     0.000 C
ATOM      6  O5  SGN B   1      39.440  -2.250  20.1090  0.00  0.00     0.000 O
ATOM      7   O  SGN B   1      42.691  -4.516  19.0770  0.00  0.00     0.000 O
ATOM      9  HD  SGN B   1      41.891  -4.838  19.1580  0.00  0.00     0.000 HD
ATOM      9   O  SGN B   1      41.506  -2.746  17.1220  0.00  0.00     0.000 O
ATOM     11  HD  SGN B   1      40.707  -3.068  17.2040  0.00  0.00     0.000 HD
ENDROOT
BRANCH 2 13
ATOM     11   N  SGN B   1      42.138  -4.239  21.7370  0.00  0.00     0.000 N
ATOM     13  HD  SGN B   1      41.329  -4.016  21.9500  0.00  0.00     0.000 HD
ATOM     13   S  SGN B   1      41.958  -4.103  23.3310  0.00  0.00     0.000 S
ATOM     14   O  SGN B   1      40.875  -3.250  23.6260  0.00  0.00     0.000 OA
ATOM     15   O  SGN B   1      41.997  -5.408  23.9010  0.00  0.00     0.000 OA
ATOM     16   O  SGN B   1      43.323  -3.420  23.6520  0.00  0.00     0.000 OA
ENDBRANCH 2 13
BRANCH 5 17
ATOM     17   C  SGN B   1      38.822  -1.650  17.8940  0.00  0.00     0.000 C
ATOM     18   O  SGN B   1      38.396  -2.847  17.2140  0.00  0.00     0.000 O
ATOM     19   S  SGN B   1      38.118  -2.702  15.6460  0.00  0.00     0.000 S
ATOM     20   O  SGN B   1      37.490  -3.947  15.2590  0.00  0.00     0.000 OA
ATOM     21   O  SGN B   1      37.242  -1.558  15.5480  0.00  0.00     0.000 OA
ATOM     22   O  SGN B   1      39.420  -2.499  15.0490  0.00  0.00     0.000 OA
ENDBRANCH 5 17
BRANCH 1 23
ATOM     23  O4  IDS B   2      40.546  -1.044  21.7150  0.00  0.00     0.000 O
BRANCH 23 27
ATOM     24  C1  IDS B   2      44.473   0.270  21.4350  0.00  0.00     0.000 C
ATOM     25  C2  IDS B   2      43.974  -0.039  22.8640  0.00  0.00     0.000 C
ATOM     26  C3  IDS B   2      42.644  -0.787  22.8270  0.00  0.00     0.000 C
ATOM     27  C4  IDS B   2      41.566  -0.072  22.0230  0.00  0.00     0.000 C
ATOM     28  C5  IDS B   2      42.194   0.607  20.7880  0.00  0.00     0.000 C
ATOM     29  O5  IDS B   2      43.446   0.019  20.4680  0.00  0.00     0.000 O
ATOM     30   O  IDS B   2      42.157  -0.943  24.1550  0.00  0.00     0.000 O
ATOM     32  HD  IDS B   2      41.780  -0.228  24.4660  0.00  0.00     0.000 HD
BRANCH 25 32
ATOM     32   O  IDS B   2      44.936  -0.873  23.6260  0.00  0.00     0.000 O
ATOM     33   S  IDS B   2      45.535  -0.395  25.0880  0.00  0.00     0.000 S
ATOM     34   O  IDS B   2      46.595  -1.334  25.4170  0.00  0.00     0.000 OA
ATOM     35   O  IDS B   2      46.042   0.965  24.9820  0.00  0.00     0.000 OA
ATOM     36   O  IDS B   2      44.432  -0.501  26.0150  0.00  0.00     0.000 OA
ENDBRANCH 25 32
BRANCH 28 37
ATOM     37   C  IDS B   2      41.348   0.682  19.5000  0.00  0.00     0.000 C
ATOM     38   O  IDS B   2      41.896   0.172  18.5510  0.00  0.00     0.000 OA
ATOM     39   O  IDS B   2      40.186   1.142  19.3850  0.00  0.00     0.000 OA
ENDBRANCH 28 37
BRANCH 24 40
ATOM     40  O4  SUS B   3      45.602   0.988  21.2580  0.00  0.00     0.000 O
BRANCH 40 44
ATOM     41  C1  SUS B   3      48.515   0.625  18.2690  0.00  0.00     0.000 C
ATOM     42  C2  SUS B   3      47.391   1.655  18.0380  0.00  0.00     0.000 C
ATOM     43  C3  SUS B   3      46.735   1.993  19.3750  0.00  0.00     0.000 C
ATOM     44  C4  SUS B   3      46.265   0.704  20.0310  0.00  0.00     0.000 C
ATOM     45  C5  SUS B   3      47.468  -0.181  20.2880  0.00  0.00     0.000 C
ATOM     46  O5  SUS B   3      48.065  -0.510  19.0180  0.00  0.00     0.000 O
BRANCH 42 49
ATOM     47   N  SUS B   3      48.088   2.673  17.2320  0.00  0.00     0.000 N
ATOM     49  HD  SUS B   3      48.187   3.453  17.5950  0.00  0.00     0.000 HD
ATOM     49   S  SUS B   3      47.428   2.876  15.7870  0.00  0.00     0.000 S
ATOM     50   O  SUS B   3      46.070   3.230  15.9260  0.00  0.00     0.000 OA
ATOM     51   O  SUS B   3      48.274   4.107  15.3740  0.00  0.00     0.000 OA
ATOM     52   O  SUS B   3      47.733   1.767  14.9740  0.00  0.00     0.000 OA
ENDBRANCH 42 49
BRANCH 43 53
ATOM     53   O  SUS B   3      45.578   2.868  19.1050  0.00  0.00     0.000 O
ATOM     54   S  SUS B   3      45.709   4.444  19.5560  0.00  0.00     0.000 S
ATOM     55   O  SUS B   3      46.658   5.079  18.6530  0.00  0.00     0.000 OA
ATOM     56   O  SUS B   3      44.355   4.957  19.4400  0.00  0.00     0.000 OA
ATOM     57   O  SUS B   3      46.208   4.440  20.9340  0.00  0.00     0.000 OA
ENDBRANCH 43 53
BRANCH 45 58
ATOM     58   C  SUS B   3      47.093  -1.444  21.0330  0.00  0.00     0.000 C
ATOM     59   S  SUS B   3      46.306  -3.860  20.6710  0.00  0.00     0.000 S
ATOM     60   O  SUS B   3      46.912  -2.515  20.0920  0.00  0.00     0.000 O
ATOM     61   O  SUS B   3      44.885  -3.607  20.8070  0.00  0.00     0.000 OA
ATOM     62   O  SUS B   3      46.609  -4.772  19.6010  0.00  0.00     0.000 OA
ATOM     63   O  SUS B   3      47.001  -4.097  21.8860  0.00  0.00     0.000 OA
ENDBRANCH 45 58
BRANCH 41 64
ATOM     64  O4  IDS B   4      49.684   1.176  18.7330  0.00  0.00     0.000 O
BRANCH 64 68
ATOM     65  C1  IDS B   4      53.258   1.569  19.3240  0.00  0.00     0.000 C
ATOM     66  C2  IDS B   4      52.729   1.364  17.8990  0.00  0.00     0.000 C
ATOM     67  C3  IDS B   4      51.712   0.242  17.7630  0.00  0.00     0.000 C
ATOM     68  C4  IDS B   4      50.728   0.195  18.9160  0.00  0.00     0.000 C
ATOM     69  C5  IDS B   4      51.514   0.375  20.2220  0.00  0.00     0.000 C
ATOM     70  O5  IDS B   4      52.157   1.652  20.2120  0.00  0.00     0.000 O
ATOM     71   O  IDS B   4      52.433  -0.971  17.6990  0.00  0.00     0.000 O
ATOM     73  HD  IDS B   4      52.331  -0.113  17.6530  0.00  0.00     0.000 HD
BRANCH 66 73
ATOM     73   O  IDS B   4      52.026   2.582  17.4750  0.00  0.00     0.000 O
ATOM     74   S  IDS B   4      52.703   3.483  16.3140  0.00  0.00     0.000 S
ATOM     75   O  IDS B   4      54.029   3.824  16.7810  0.00  0.00     0.000 OA
ATOM     76   O  IDS B   4      51.799   4.603  16.2430  0.00  0.00     0.000 OA
ATOM     77   O  IDS B   4      52.710   2.650  15.1350  0.00  0.00     0.000 OA
ENDBRANCH 66 73
BRANCH 69 78
ATOM     78   C  IDS B   4      50.700   0.132  21.4850  0.00  0.00     0.000 C
ATOM     79   O  IDS B   4      50.105   1.080  21.9960  0.00  0.00     0.000 OA
ATOM     80   O  IDS B   4      50.576  -1.035  21.8990  0.00  0.00     0.000 OA
ENDBRANCH 69 78
BRANCH 65 81
ATOM     81  O4  SGN B   5      54.198   0.624  19.5990  0.00  0.00     0.000 O
BRANCH 81 85
ATOM     82  C1  SGN B   5      57.337  -0.309  22.2280  0.00  0.00     0.000 C
ATOM     83  C2  SGN B   5      55.927  -0.759  22.6380  0.00  0.00     0.000 C
ATOM     84  C3  SGN B   5      55.012  -0.766  21.4050  0.00  0.00     0.000 C
ATOM     85  C4  SGN B   5      55.036   0.607  20.7570  0.00  0.00     0.000 C
ATOM     86  C5  SGN B   5      56.478   0.932  20.3750  0.00  0.00     0.000 C
ATOM     87  O5  SGN B   5      57.282   0.942  21.5700  0.00  0.00     0.000 O
ATOM     88   O  SGN B   5      53.701  -1.123  21.7840  0.00  0.00     0.000 O
ATOM     90  HD  SGN B   5      54.274  -1.649  21.4040  0.00  0.00     0.000 HD
BRANCH 83 92
ATOM     90   N  SGN B   5      56.513  -0.871  23.9880  0.00  0.00     0.000 N
ATOM     92  HD  SGN B   5      56.555  -0.097  24.3740  0.00  0.00     0.000 HD
ATOM     92   S  SGN B   5      56.020  -2.069  24.9240  0.00  0.00     0.000 S
ATOM     93   O  SGN B   5      56.759  -1.896  26.1390  0.00  0.00     0.000 OA
ATOM     94   O  SGN B   5      54.600  -1.990  24.9360  0.00  0.00     0.000 OA
ATOM     95   O  SGN B   5      56.397  -3.326  24.1710  0.00  0.00     0.000 OA
ENDBRANCH 83 92
BRANCH 86 96
ATOM     96   C  SGN B   5      56.654   2.277  19.7010  0.00  0.00     0.000 C
ATOM     97   O  SGN B   5      56.429   3.338  20.6330  0.00  0.00     0.000 O
ATOM     98   S  SGN B   5      57.567   4.465  20.7080  0.00  0.00     0.000 S
ATOM     99   O  SGN B   5      56.966   5.467  21.5560  0.00  0.00     0.000 OA
ATOM    100   O  SGN B   5      58.733   3.858  21.2420  0.00  0.00     0.000 OA
ATOM    101   O  SGN B   5      57.732   4.893  19.3570  0.00  0.00     0.000 OA
ENDBRANCH 86 96
BRANCH 82 102
ATOM    102  O4  IDS B   6      57.975  -1.228  21.4490  0.00  0.00     0.000 O
BRANCH 102 106
ATOM    103  C1  IDS B   6      60.553  -3.609  20.4790  0.00  0.00     0.000 C
ATOM    104  C2  IDS B   6      59.774  -3.786  21.7910  0.00  0.00     0.000 C
ATOM    105  C3  IDS B   6      59.650  -2.535  22.6390  0.00  0.00     0.000 C
ATOM    106  C4  IDS B   6      59.378  -1.290  21.8120  0.00  0.00     0.000 C
ATOM    107  C5  IDS B   6      60.265  -1.295  20.5640  0.00  0.00     0.000 C
ATOM    108  O5  IDS B   6      60.076  -2.475  19.7810  0.00  0.00     0.000 O
ATOM    109   O  IDS B   6      60.845  -2.390  23.3890  0.00  0.00     0.000 O
ATOM    111  HD  IDS B   6      61.431  -2.837  22.9350  0.00  0.00     0.000 HD
BRANCH 104 111
ATOM    111   O  IDS B   6      58.392  -4.181  21.4780  0.00  0.00     0.000 O
ATOM    112   S  IDS B   6      57.956  -5.693  21.7720  0.00  0.00     0.000 S
ATOM    113   O  IDS B   6      58.874  -6.499  20.9800  0.00  0.00     0.000 OA
ATOM    114   O  IDS B   6      58.030  -5.925  23.2190  0.00  0.00     0.000 OA
ATOM    115   O  IDS B   6      56.608  -5.654  21.2480  0.00  0.00     0.000 OA
ENDBRANCH 104 111
BRANCH 107 116
ATOM    116   C  IDS B   6      59.958  -0.062  19.7230  0.00  0.00     0.000 C
ATOM    117   O  IDS B   6      59.422  -0.250  18.6610  0.00  0.00     0.000 OA
ATOM    118   O  IDS B   6      60.252   1.059  20.1090  0.00  0.00     0.000 OA
ENDBRANCH 107 116
BRANCH 103 119
ATOM    119  O4  SGN B   7      61.852  -3.708  20.8610  0.00  0.00     0.000 O
BRANCH 119 123
ATOM    120  C1  SGN B   7      65.465  -4.807  19.0650  0.00  0.00     0.000 C
ATOM    121  C2  SGN B   7      64.939  -3.385  18.7960  0.00  0.00     0.000 C
ATOM    122  C3  SGN B   7      63.858  -3.009  19.8180  0.00  0.00     0.000 C
ATOM    123  C4  SGN B   7      62.774  -4.074  19.8340  0.00  0.00     0.000 C
ATOM    124  C5  SGN B   7      63.400  -5.453  20.1020  0.00  0.00     0.000 C
ATOM    125  O5  SGN B   7      64.409  -5.765  19.1160  0.00  0.00     0.000 O
ATOM    126   O  SGN B   7      63.323  -1.724  19.4800  0.00  0.00     0.000 O
ATOM    128  HD  SGN B   7      63.932  -2.326  19.3470  0.00  0.00     0.000 HD
BRANCH 121 130
ATOM    128   N  SGN B   7      66.145  -3.288  17.9690  0.00  0.00     0.000 N
ATOM    130  HD  SGN B   7      65.664  -3.074  17.2810  0.00  0.00     0.000 HD
ATOM    130   S  SGN B   7      66.741  -1.874  17.4820  0.00  0.00     0.000 S
ATOM    131   O  SGN B   7      66.827  -1.080  18.6600  0.00  0.00     0.000 OA
ATOM    132   O  SGN B   7      67.898  -2.123  16.6990  0.00  0.00     0.000 OA
ATOM    133   O  SGN B   7      65.646  -1.450  16.4450  0.00  0.00     0.000 OA
ENDBRANCH 121 130
BRANCH 124 134
ATOM    134   C  SGN B   7      62.423  -6.588  20.0220  0.00  0.00     0.000 C
ATOM    135   O  SGN B   7      62.702  -7.350  18.8350  0.00  0.00     0.000 O
ATOM    136   S  SGN B   7      61.883  -8.678  18.6470  0.00  0.00     0.000 S
ATOM    137   O  SGN B   7      62.255  -9.204  17.3550  0.00  0.00     0.000 OA
ATOM    138   O  SGN B   7      60.496  -8.280  18.7160  0.00  0.00     0.000 OA
ATOM    139   O  SGN B   7      62.336  -9.486  19.7680  0.00  0.00     0.000 OA
ENDBRANCH 124 134
BRANCH 120 140
ATOM    140  O4  IDS B   8      66.186  -5.235  20.1070  0.00  0.00     0.000 O
BRANCH 140 144
ATOM    141  C1  IDS B   8      67.234  -5.469  23.5430  0.00  0.00     0.000 C
ATOM    142  C2  IDS B   8      66.772  -4.112  22.9390  0.00  0.00     0.000 C
ATOM    143  C3  IDS B   8      67.442  -3.794  21.5890  0.00  0.00     0.000 C
ATOM    144  C4  IDS B   8      67.485  -5.013  20.6700  0.00  0.00     0.000 C
ATOM    145  C5  IDS B   8      67.939  -6.253  21.4550  0.00  0.00     0.000 C
ATOM    146  O5  IDS B   8      67.097  -6.503  22.5770  0.00  0.00     0.000 O
BRANCH 142 147
ATOM    147   O  IDS B   8      65.305  -4.148  22.7040  0.00  0.00     0.000 O
ATOM    148   S  IDS B   8      64.276  -3.432  23.7340  0.00  0.00     0.000 S
ATOM    149   O  IDS B   8      64.992  -3.179  24.9640  0.00  0.00     0.000 OA
ATOM    150   O  IDS B   8      63.850  -2.214  23.0710  0.00  0.00     0.000 OA
ATOM    151   O  IDS B   8      63.198  -4.385  23.9210  0.00  0.00     0.000 OA
ENDBRANCH 142 147
BRANCH 145 152
ATOM    152   C  IDS B   8      67.907  -7.517  20.6190  0.00  0.00     0.000 C
ATOM    153   O  IDS B   8      67.082  -8.388  20.8720  0.00  0.00     0.000 OA
ATOM    154   O  IDS B   8      68.687  -7.646  19.6930  0.00  0.00     0.000 OA
ENDBRANCH 145 152
ENDBRANCH 140 144
ENDBRANCH 120 140
ENDBRANCH 119 123
ENDBRANCH 103 119
ENDBRANCH 102 106
ENDBRANCH 82 102
ENDBRANCH 81 85
ENDBRANCH 65 81
ENDBRANCH 64 68
ENDBRANCH 41 64
ENDBRANCH 40 44
ENDBRANCH 24 40
ENDBRANCH 23 27
ENDBRANCH 1 23
TORSDOF 31
ENDMDL
MODEL 64
REMARK VINA RESULT:      -6.0     13.300     23.899
ROOT
ATOM      1  C1  SGN B   1      65.730  12.754  13.9740  0.00  0.00     0.000 C
ATOM      2  C2  SGN B   1      66.480  11.416  14.0760  0.00  0.00     0.000 C
ATOM      3  C3  SGN B   1      65.598  10.349  14.7320  0.00  0.00     0.000 C
ATOM      4  C4  SGN B   1      65.109  10.834  16.0930  0.00  0.00     0.000 C
ATOM      5  C5  SGN B   1      64.504  12.228  15.9380  0.00  0.00     0.000 C
ATOM      6  O5  SGN B   1      65.468  13.106  15.3250  0.00  0.00     0.000 O
ATOM      7   O  SGN B   1      66.310   9.124  14.8660  0.00  0.00     0.000 O
ATOM      9  HD  SGN B   1      66.791   9.661  15.3450  0.00  0.00     0.000 HD
ATOM      9   O  SGN B   1      64.138   9.933  16.5930  0.00  0.00     0.000 O
ATOM     11  HD  SGN B   1      64.620  10.470  17.0730  0.00  0.00     0.000 HD
ENDROOT
BRANCH 2 13
ATOM     11   N  SGN B   1      67.789  11.718  13.4670  0.00  0.00     0.000 N
ATOM     13  HD  SGN B   1      67.055  11.910  13.0500  0.00  0.00     0.000 HD
ATOM     13   S  SGN B   1      68.006  11.764  11.8730  0.00  0.00     0.000 S
ATOM     14   O  SGN B   1      66.782  11.532  11.2100  0.00  0.00     0.000 OA
ATOM     15   O  SGN B   1      68.765  12.927  11.5560  0.00  0.00     0.000 OA
ATOM     16   O  SGN B   1      68.963  10.540  11.7430  0.00  0.00     0.000 OA
ENDBRANCH 2 13
BRANCH 5 17
ATOM     17   C  SGN B   1      64.082  12.862  17.2400  0.00  0.00     0.000 C
ATOM     18   O  SGN B   1      62.955  12.167  17.8100  0.00  0.00     0.000 O
ATOM     19   S  SGN B   1      61.770  13.088  18.3630  0.00  0.00     0.000 S
ATOM     20   O  SGN B   1      60.895  12.183  19.0790  0.00  0.00     0.000 OA
ATOM     21   O  SGN B   1      62.436  14.044  19.2160  0.00  0.00     0.000 OA
ATOM     22   O  SGN B   1      61.164  13.671  17.1870  0.00  0.00     0.000 OA
ENDBRANCH 5 17
BRANCH 1 23
ATOM     23  O4  IDS B   2      64.911  13.441  13.1270  0.00  0.00     0.000 O
BRANCH 23 27
ATOM     24  C1  IDS B   2      60.875  12.556  13.5250  0.00  0.00     0.000 C
ATOM     25  C2  IDS B   2      61.664  11.650  12.5540  0.00  0.00     0.000 C
ATOM     26  C3  IDS B   2      63.167  11.864  12.7080  0.00  0.00     0.000 C
ATOM     27  C4  IDS B   2      63.592  13.318  12.5530  0.00  0.00     0.000 C
ATOM     28  C5  IDS B   2      62.534  14.246  13.1830  0.00  0.00     0.000 C
ATOM     29  O5  IDS B   2      61.732  13.540  14.1180  0.00  0.00     0.000 O
ATOM     30   O  IDS B   2      63.852  11.109  11.7150  0.00  0.00     0.000 O
ATOM     32  HD  IDS B   2      63.847  11.486  10.9350  0.00  0.00     0.000 HD
BRANCH 25 32
ATOM     32   O  IDS B   2      61.391  10.210  12.7830  0.00  0.00     0.000 O
ATOM     33   S  IDS B   2      60.797   9.235  11.5910  0.00  0.00     0.000 S
ATOM     34   O  IDS B   2      60.449   7.977  12.2320  0.00  0.00     0.000 OA
ATOM     35   O  IDS B   2      59.631   9.864  10.9870  0.00  0.00     0.000 OA
ATOM     36   O  IDS B   2      61.880   9.065  10.6510  0.00  0.00     0.000 OA
ENDBRANCH 25 32
BRANCH 28 37
ATOM     37   C  IDS B   2      63.023  15.549  13.8480  0.00  0.00     0.000 C
ATOM     38   O  IDS B   2      62.996  15.496  15.0550  0.00  0.00     0.000 OA
ATOM     39   O  IDS B   2      63.477  16.567  13.2720  0.00  0.00     0.000 OA
ENDBRANCH 28 37
BRANCH 24 40
ATOM     40  O4  SUS B   3      59.526  12.561  13.4940  0.00  0.00     0.000 O
BRANCH 40 44
ATOM     41  C1  SUS B   3      56.745  13.404  16.5110  0.00  0.00     0.000 C
ATOM     42  C2  SUS B   3      57.565  14.586  15.9580  0.00  0.00     0.000 C
ATOM     43  C3  SUS B   3      58.140  14.206  14.5960  0.00  0.00     0.000 C
ATOM     44  C4  SUS B   3      58.933  12.917  14.7390  0.00  0.00     0.000 C
ATOM     45  C5  SUS B   3      58.001  11.816  15.1990  0.00  0.00     0.000 C
ATOM     46  O5  SUS B   3      57.483  12.177  16.4950  0.00  0.00     0.000 O
BRANCH 42 49
ATOM     47   N  SUS B   3      56.737  15.805  15.9570  0.00  0.00     0.000 N
ATOM     49  HD  SUS B   3      56.675  16.230  15.2050  0.00  0.00     0.000 HD
ATOM     49   S  SUS B   3      57.177  16.852  17.0860  0.00  0.00     0.000 S
ATOM     50   O  SUS B   3      58.532  17.201  16.9150  0.00  0.00     0.000 OA
ATOM     51   O  SUS B   3      56.254  18.010  16.6260  0.00  0.00     0.000 OA
ATOM     52   O  SUS B   3      56.781  16.371  18.3490  0.00  0.00     0.000 OA
ENDBRANCH 42 49
BRANCH 43 53
ATOM     53   O  SUS B   3      59.031  15.298  14.1570  0.00  0.00     0.000 O
ATOM     54   S  SUS B   3      58.603  16.114  12.7960  0.00  0.00     0.000 S
ATOM     55   O  SUS B   3      57.437  16.924  13.1210  0.00  0.00     0.000 OA
ATOM     56   O  SUS B   3      59.783  16.893  12.4670  0.00  0.00     0.000 OA
ATOM     57   O  SUS B   3      58.280  15.100  11.7880  0.00  0.00     0.000 OA
ENDBRANCH 43 53
BRANCH 45 58
ATOM     58   C  SUS B   3      58.698  10.475  15.2680  0.00  0.00     0.000 C
ATOM     59   S  SUS B   3      60.345   9.112  16.6880  0.00  0.00     0.000 S
ATOM     60   O  SUS B   3      59.382  10.359  16.5270  0.00  0.00     0.000 O
ATOM     61   O  SUS B   3      61.546   9.463  15.9540  0.00  0.00     0.000 OA
ATOM     62   O  SUS B   3      60.544   9.109  18.1120  0.00  0.00     0.000 OA
ATOM     63   O  SUS B   3      59.621   8.004  16.1730  0.00  0.00     0.000 OA
ENDBRANCH 45 58
BRANCH 41 64
ATOM     64  O4  IDS B   4      55.483  13.308  15.9780  0.00  0.00     0.000 O
BRANCH 64 68
ATOM     65  C1  IDS B   4      52.059  12.191  15.4280  0.00  0.00     0.000 C
ATOM     66  C2  IDS B   4      52.332  13.540  16.1070  0.00  0.00     0.000 C
ATOM     67  C3  IDS B   4      53.385  13.489  17.2010  0.00  0.00     0.000 C
ATOM     68  C4  IDS B   4      54.565  12.605  16.8440  0.00  0.00     0.000 C
ATOM     69  C5  IDS B   4      54.020  11.307  16.2310  0.00  0.00     0.000 C
ATOM     70  O5  IDS B   4      53.294  11.618  15.0390  0.00  0.00     0.000 O
ATOM     71   O  IDS B   4      52.756  12.999  18.3670  0.00  0.00     0.000 O
ATOM     73  HD  IDS B   4      52.784  13.349  17.5750  0.00  0.00     0.000 HD
BRANCH 66 73
ATOM     73   O  IDS B   4      52.854  14.478  15.1040  0.00  0.00     0.000 O
ATOM     74   S  IDS B   4      51.931  15.742  14.6950  0.00  0.00     0.000 S
ATOM     75   O  IDS B   4      50.669  15.198  14.2410  0.00  0.00     0.000 OA
ATOM     76   O  IDS B   4      52.714  16.355  13.6520  0.00  0.00     0.000 OA
ATOM     77   O  IDS B   4      51.813  16.536  15.8940  0.00  0.00     0.000 OA
ENDBRANCH 66 73
BRANCH 69 78
ATOM     78   C  IDS B   4      55.067  10.222  16.0210  0.00  0.00     0.000 C
ATOM     79   O  IDS B   4      55.615   9.731  17.0060  0.00  0.00     0.000 OA
ATOM     80   O  IDS B   4      55.259   9.794  14.8680  0.00  0.00     0.000 OA
ENDBRANCH 69 78
BRANCH 65 81
ATOM     81  O4  SGN B   5      51.256  11.436  16.2270  0.00  0.00     0.000 O
BRANCH 81 85
ATOM     82  C1  SGN B   5      48.659   8.136  16.2260  0.00  0.00     0.000 C
ATOM     83  C2  SGN B   5      50.030   7.944  15.5620  0.00  0.00     0.000 C
ATOM     84  C3  SGN B   5      50.993   9.037  16.0470  0.00  0.00     0.000 C
ATOM     85  C4  SGN B   5      50.382  10.400  15.7740  0.00  0.00     0.000 C
ATOM     86  C5  SGN B   5      49.042  10.479  16.5000  0.00  0.00     0.000 C
ATOM     87  O5  SGN B   5      48.178   9.445  15.9900  0.00  0.00     0.000 O
ATOM     88   O  SGN B   5      52.238   8.902  15.3980  0.00  0.00     0.000 O
ATOM     90  HD  SGN B   5      52.063   8.648  16.2080  0.00  0.00     0.000 HD
BRANCH 83 92
ATOM     90   N  SGN B   5      49.461   6.584  15.4890  0.00  0.00     0.000 N
ATOM     92  HD  SGN B   5      48.612   6.612  15.3220  0.00  0.00     0.000 HD
ATOM     92   S  SGN B   5      50.275   5.471  14.6810  0.00  0.00     0.000 S
ATOM     93   O  SGN B   5      49.469   4.293  14.7920  0.00  0.00     0.000 OA
ATOM     94   O  SGN B   5      50.537   6.038  13.4020  0.00  0.00     0.000 OA
ATOM     95   O  SGN B   5      51.598   5.361  15.4050  0.00  0.00     0.000 OA
ENDBRANCH 83 92
BRANCH 86 96
ATOM     96   C  SGN B   5      48.318  11.798  16.3260  0.00  0.00     0.000 C
ATOM     97   O  SGN B   5      48.399  12.240  14.9680  0.00  0.00     0.000 O
ATOM     98   S  SGN B   5      47.012  12.650  14.2760  0.00  0.00     0.000 S
ATOM     99   O  SGN B   5      47.441  13.229  13.0250  0.00  0.00     0.000 OA
ATOM    100   O  SGN B   5      46.234  11.471  14.1470  0.00  0.00     0.000 OA
ATOM    101   O  SGN B   5      46.436  13.601  15.1700  0.00  0.00     0.000 OA
ENDBRANCH 86 96
BRANCH 82 102
ATOM    102  O4  IDS B   6      48.682   7.872  17.5630  0.00  0.00     0.000 O
BRANCH 102 106
ATOM    103  C1  IDS B   6      47.309   5.957  20.3390  0.00  0.00     0.000 C
ATOM    104  C2  IDS B   6      47.244   5.415  18.9030  0.00  0.00     0.000 C
ATOM    105  C3  IDS B   6      46.759   6.407  17.8630  0.00  0.00     0.000 C
ATOM    106  C4  IDS B   6      47.326   7.800  18.0720  0.00  0.00     0.000 C
ATOM    107  C5  IDS B   6      47.284   8.157  19.5610  0.00  0.00     0.000 C
ATOM    108  O5  IDS B   6      47.984   7.201  20.3580  0.00  0.00     0.000 O
ATOM    109   O  IDS B   6      45.342   6.428  17.9000  0.00  0.00     0.000 O
ATOM    111  HD  IDS B   6      45.150   6.142  18.6950  0.00  0.00     0.000 HD
BRANCH 104 111
ATOM    111   O  IDS B   6      48.598   5.033  18.4740  0.00  0.00     0.000 O
ATOM    112   S  IDS B   6      48.908   3.477  18.2600  0.00  0.00     0.000 S
ATOM    113   O  IDS B   6      48.626   2.866  19.5500  0.00  0.00     0.000 OA
ATOM    114   O  IDS B   6      48.077   2.985  17.1550  0.00  0.00     0.000 OA
ATOM    115   O  IDS B   6      50.318   3.561  17.9450  0.00  0.00     0.000 OA
ENDBRANCH 104 111
BRANCH 107 116
ATOM    116   C  IDS B   6      47.887   9.541  19.7650  0.00  0.00     0.000 C
ATOM    117   O  IDS B   6      49.011   9.584  20.1950  0.00  0.00     0.000 OA
ATOM    118   O  IDS B   6      47.253  10.554  19.5120  0.00  0.00     0.000 OA
ENDBRANCH 107 116
BRANCH 103 119
ATOM    119  O4  SGN B   7      46.031   5.840  20.7850  0.00  0.00     0.000 O
BRANCH 119 123
ATOM    120  C1  SGN B   7      44.474   4.677  24.4870  0.00  0.00     0.000 C
ATOM    121  C2  SGN B   7      44.192   6.116  24.0150  0.00  0.00     0.000 C
ATOM    122  C3  SGN B   7      44.468   6.253  22.5130  0.00  0.00     0.000 C
ATOM    123  C4  SGN B   7      45.874   5.767  22.2020  0.00  0.00     0.000 C
ATOM    124  C5  SGN B   7      46.056   4.329  22.7170  0.00  0.00     0.000 C
ATOM    125  O5  SGN B   7      45.788   4.248  24.1340  0.00  0.00     0.000 O
ATOM    126   O  SGN B   7      44.292   7.621  22.1290  0.00  0.00     0.000 O
ATOM    128  HD  SGN B   7      44.200   7.009  22.7350  0.00  0.00     0.000 HD
BRANCH 121 130
ATOM    128   N  SGN B   7      43.165   6.057  25.0590  0.00  0.00     0.000 N
ATOM    130  HD  SGN B   7      43.722   6.387  25.6350  0.00  0.00     0.000 HD
ATOM    130   S  SGN B   7      42.435   7.378  25.6200  0.00  0.00     0.000 S
ATOM    131   O  SGN B   7      41.992   8.079  24.4640  0.00  0.00     0.000 OA
ATOM    132   O  SGN B   7      41.507   6.984  26.6190  0.00  0.00     0.000 OA
ATOM    133   O  SGN B   7      43.614   8.036  26.4130  0.00  0.00     0.000 OA
ENDBRANCH 121 130
BRANCH 124 134
ATOM    134   C  SGN B   7      47.451   3.800  22.5600  0.00  0.00     0.000 C
ATOM    135   O  SGN B   7      48.320   4.530  23.4430  0.00  0.00     0.000 O
ATOM    136   S  SGN B   7      49.803   4.024  23.5420  0.00  0.00     0.000 S
ATOM    137   O  SGN B   7      50.497   4.961  24.3920  0.00  0.00     0.000 OA
ATOM    138   O  SGN B   7      50.295   4.024  22.1830  0.00  0.00     0.000 OA
ATOM    139   O  SGN B   7      49.644   2.701  24.1250  0.00  0.00     0.000 OA
ENDBRANCH 124 134
BRANCH 120 140
ATOM    140  O4  IDS B   8      43.800   3.563  24.1780  0.00  0.00     0.000 O
BRANCH 140 144
ATOM    141  C1  IDS B   8      41.620   0.941  25.3340  0.00  0.00     0.000 C
ATOM    142  C2  IDS B   8      42.692   1.562  26.2740  0.00  0.00     0.000 C
ATOM    143  C3  IDS B   8      44.087   1.647  25.6270  0.00  0.00     0.000 C
ATOM    144  C4  IDS B   8      44.019   2.147  24.1850  0.00  0.00     0.000 C
ATOM    145  C5  IDS B   8      42.887   1.434  23.4290  0.00  0.00     0.000 C
ATOM    146  O5  IDS B   8      41.630   1.609  24.0780  0.00  0.00     0.000 O
BRANCH 142 147
ATOM    147   O  IDS B   8      42.290   2.947  26.6370  0.00  0.00     0.000 O
ATOM    148   S  IDS B   8      42.782   3.623  28.0270  0.00  0.00     0.000 S
ATOM    149   O  IDS B   8      43.258   2.562  28.8860  0.00  0.00     0.000 OA
ATOM    150   O  IDS B   8      43.829   4.557  27.6540  0.00  0.00     0.000 OA
ATOM    151   O  IDS B   8      41.606   4.274  28.5710  0.00  0.00     0.000 OA
ENDBRANCH 142 147
BRANCH 145 152
ATOM    152   C  IDS B   8      42.706   1.959  22.0190  0.00  0.00     0.000 C
ATOM    153   O  IDS B   8      42.900   1.212  21.0670  0.00  0.00     0.000 OA
ATOM    154   O  IDS B   8      42.350   3.111  21.8470  0.00  0.00     0.000 OA
ENDBRANCH 145 152
ENDBRANCH 140 144
ENDBRANCH 120 140
ENDBRANCH 119 123
ENDBRANCH 103 119
ENDBRANCH 102 106
ENDBRANCH 82 102
ENDBRANCH 81 85
ENDBRANCH 65 81
ENDBRANCH 64 68
ENDBRANCH 41 64
ENDBRANCH 40 44
ENDBRANCH 24 40
ENDBRANCH 23 27
ENDBRANCH 1 23
TORSDOF 31
ENDMDL
MODEL 65
REMARK VINA RESULT:      -5.9     15.806     21.993
ROOT
ATOM      1  C1  SGN B   1      64.238   5.448  21.5200  0.00  0.00     0.000 C
ATOM      2  C2  SGN B   1      64.391   6.443  22.6830  0.00  0.00     0.000 C
ATOM      3  C3  SGN B   1      63.034   7.046  23.0620  0.00  0.00     0.000 C
ATOM      4  C4  SGN B   1      62.384   7.690  21.8420  0.00  0.00     0.000 C
ATOM      5  C5  SGN B   1      62.395   6.692  20.6860  0.00  0.00     0.000 C
ATOM      6  O5  SGN B   1      63.744   6.242  20.4510  0.00  0.00     0.000 O
ATOM      7   O  SGN B   1      63.185   7.999  24.1080  0.00  0.00     0.000 O
ATOM      9  HD  SGN B   1      63.668   8.349  23.4800  0.00  0.00     0.000 HD
ATOM      9   O  SGN B   1      61.054   8.058  22.1560  0.00  0.00     0.000 O
ATOM     11  HD  SGN B   1      61.537   8.408  21.5280  0.00  0.00     0.000 HD
ENDROOT
BRANCH 2 13
ATOM     11   N  SGN B   1      65.847   6.343  22.8930  0.00  0.00     0.000 N
ATOM     13  HD  SGN B   1      65.345   5.640  22.9520  0.00  0.00     0.000 HD
ATOM     13   S  SGN B   1      66.503   5.221  23.8410  0.00  0.00     0.000 S
ATOM     14   O  SGN B   1      65.500   4.373  24.3560  0.00  0.00     0.000 OA
ATOM     15   O  SGN B   1      67.619   4.652  23.1610  0.00  0.00     0.000 OA
ATOM     16   O  SGN B   1      67.071   6.165  24.9450  0.00  0.00     0.000 OA
ENDBRANCH 2 13
BRANCH 5 17
ATOM     17   C  SGN B   1      61.875   7.253  19.3850  0.00  0.00     0.000 C
ATOM     18   O  SGN B   1      62.373   8.588  19.1650  0.00  0.00     0.000 O
ATOM     19   S  SGN B   1      61.298   9.664  18.6710  0.00  0.00     0.000 S
ATOM     20   O  SGN B   1      62.076  10.829  18.3030  0.00  0.00     0.000 OA
ATOM     21   O  SGN B   1      60.649   9.025  17.5500  0.00  0.00     0.000 OA
ATOM     22   O  SGN B   1      60.431   9.881  19.8080  0.00  0.00     0.000 OA
ENDBRANCH 5 17
BRANCH 1 23
ATOM     23  O4  IDS B   2      64.003   4.125  21.2900  0.00  0.00     0.000 O
BRANCH 23 27
ATOM     24  C1  IDS B   2      62.429   0.289  21.0830  0.00  0.00     0.000 C
ATOM     25  C2  IDS B   2      61.405   1.418  21.3350  0.00  0.00     0.000 C
ATOM     26  C3  IDS B   2      62.033   2.788  21.0970  0.00  0.00     0.000 C
ATOM     27  C4  IDS B   2      63.302   3.023  21.9050  0.00  0.00     0.000 C
ATOM     28  C5  IDS B   2      64.119   1.718  21.9940  0.00  0.00     0.000 C
ATOM     29  O5  IDS B   2      63.755   0.820  20.9570  0.00  0.00     0.000 O
ATOM     30   O  IDS B   2      61.101   3.800  21.4580  0.00  0.00     0.000 O
ATOM     32  HD  IDS B   2      61.057   3.935  22.3130  0.00  0.00     0.000 HD
BRANCH 25 32
ATOM     32   O  IDS B   2      60.220   1.308  20.4490  0.00  0.00     0.000 O
ATOM     33   S  IDS B   2      58.698   1.660  20.9810  0.00  0.00     0.000 S
ATOM     34   O  IDS B   2      57.791   1.228  19.9290  0.00  0.00     0.000 OA
ATOM     35   O  IDS B   2      58.445   0.952  22.2270  0.00  0.00     0.000 OA
ATOM     36   O  IDS B   2      58.665   3.095  21.1460  0.00  0.00     0.000 OA
ENDBRANCH 25 32
BRANCH 28 37
ATOM     37   C  IDS B   2      65.658   1.832  22.0200  0.00  0.00     0.000 C
ATOM     38   O  IDS B   2      66.107   2.323  21.0110  0.00  0.00     0.000 OA
ATOM     39   O  IDS B   2      66.421   1.534  22.9710  0.00  0.00     0.000 OA
ENDBRANCH 28 37
BRANCH 24 40
ATOM     40  O4  SUS B   3      62.083  -0.996  21.3070  0.00  0.00     0.000 O
BRANCH 40 44
ATOM     41  C1  SUS B   3      61.907  -4.208  18.6240  0.00  0.00     0.000 C
ATOM     42  C2  SUS B   3      63.176  -3.333  18.5940  0.00  0.00     0.000 C
ATOM     43  C3  SUS B   3      63.283  -2.555  19.9040  0.00  0.00     0.000 C
ATOM     44  C4  SUS B   3      61.997  -1.773  20.1170  0.00  0.00     0.000 C
ATOM     45  C5  SUS B   3      60.841  -2.747  20.2210  0.00  0.00     0.000 C
ATOM     46  O5  SUS B   3      60.738  -3.458  18.9710  0.00  0.00     0.000 O
BRANCH 42 49
ATOM     47   N  SUS B   3      64.245  -2.797  17.7330  0.00  0.00     0.000 N
ATOM     49  HD  SUS B   3      64.038  -2.120  17.2340  0.00  0.00     0.000 HD
ATOM     49   S  SUS B   3      64.907  -3.919  16.8000  0.00  0.00     0.000 S
ATOM     50   O  SUS B   3      63.916  -4.525  16.0020  0.00  0.00     0.000 OA
ATOM     51   O  SUS B   3      65.778  -2.956  15.9530  0.00  0.00     0.000 OA
ATOM     52   O  SUS B   3      65.718  -4.761  17.5860  0.00  0.00     0.000 OA
ENDBRANCH 42 49
BRANCH 43 53
ATOM     53   O  SUS B   3      64.423  -1.626  19.7890  0.00  0.00     0.000 O
ATOM     54   S  SUS B   3      65.765  -1.972  20.6730  0.00  0.00     0.000 S
ATOM     55   O  SUS B   3      66.395  -3.139  20.0710  0.00  0.00     0.000 OA
ATOM     56   O  SUS B   3      66.565  -0.764  20.5870  0.00  0.00     0.000 OA
ATOM     57   O  SUS B   3      65.302  -2.262  22.0340  0.00  0.00     0.000 OA
ENDBRANCH 43 53
BRANCH 45 58
ATOM     58   C  SUS B   3      59.537  -2.048  20.5350  0.00  0.00     0.000 C
ATOM     59   S  SUS B   3      56.999  -2.233  20.2000  0.00  0.00     0.000 S
ATOM     60   O  SUS B   3      58.439  -2.891  20.1460  0.00  0.00     0.000 O
ATOM     61   O  SUS B   3      56.914  -1.407  19.0110  0.00  0.00     0.000 OA
ATOM     62   O  SUS B   3      56.168  -3.405  20.1240  0.00  0.00     0.000 OA
ATOM     63   O  SUS B   3      56.948  -1.531  21.4330  0.00  0.00     0.000 OA
ENDBRANCH 45 58
BRANCH 41 64
ATOM     64  O4  IDS B   4      62.057  -5.375  19.3330  0.00  0.00     0.000 O
BRANCH 64 68
ATOM     65  C1  IDS B   4      61.819  -8.935  20.0700  0.00  0.00     0.000 C
ATOM     66  C2  IDS B   4      62.330  -8.462  18.7030  0.00  0.00     0.000 C
ATOM     67  C3  IDS B   4      61.488  -7.372  18.0620  0.00  0.00     0.000 C
ATOM     68  C4  IDS B   4      61.010  -6.332  19.0580  0.00  0.00     0.000 C
ATOM     69  C5  IDS B   4      60.509  -7.065  20.3100  0.00  0.00     0.000 C
ATOM     70  O5  IDS B   4      61.588  -7.802  20.8880  0.00  0.00     0.000 O
ATOM     71   O  IDS B   4      60.376  -8.001  17.4590  0.00  0.00     0.000 O
ATOM     73  HD  IDS B   4      61.167  -7.967  17.8090  0.00  0.00     0.000 HD
BRANCH 66 73
ATOM     73   O  IDS B   4      63.666  -7.874  18.8750  0.00  0.00     0.000 O
ATOM     74   S  IDS B   4      64.885  -8.499  18.0140  0.00  0.00     0.000 S
ATOM     75   O  IDS B   4      64.930  -9.910  18.3310  0.00  0.00     0.000 OA
ATOM     76   O  IDS B   4      66.011  -7.749  18.5090  0.00  0.00     0.000 OA
ATOM     77   O  IDS B   4      64.556  -8.234  16.6330  0.00  0.00     0.000 OA
ENDBRANCH 66 73
BRANCH 69 78
ATOM     78   C  IDS B   4      59.793  -6.174  21.3160  0.00  0.00     0.000 C
ATOM     79   O  IDS B   4      58.751  -5.616  20.9760  0.00  0.00     0.000 OA
ATOM     80   O  IDS B   4      60.228  -6.124  22.4820  0.00  0.00     0.000 OA
ENDBRANCH 69 78
BRANCH 65 81
ATOM     81  O4  SGN B   5      60.772  -9.787  19.8930  0.00  0.00     0.000 O
BRANCH 81 85
ATOM     82  C1  SGN B   5      58.678 -12.954  21.6890  0.00  0.00     0.000 C
ATOM     83  C2  SGN B   5      58.970 -11.725  22.5640  0.00  0.00     0.000 C
ATOM     84  C3  SGN B   5      59.301 -10.524  21.6670  0.00  0.00     0.000 C
ATOM     85  C4  SGN B   5      60.452 -10.889  20.7460  0.00  0.00     0.000 C
ATOM     86  C5  SGN B   5      60.036 -12.101  19.9170  0.00  0.00     0.000 C
ATOM     87  O5  SGN B   5      59.759 -13.197  20.8080  0.00  0.00     0.000 O
ATOM     88   O  SGN B   5      59.626  -9.406  22.4640  0.00  0.00     0.000 O
ATOM     90  HD  SGN B   5      58.867  -9.537  22.0690  0.00  0.00     0.000 HD
BRANCH 83 92
ATOM     90   N  SGN B   5      58.221 -12.597  23.4900  0.00  0.00     0.000 N
ATOM     92  HD  SGN B   5      58.504 -13.414  23.4450  0.00  0.00     0.000 HD
ATOM     92   S  SGN B   5      57.942 -12.058  24.9680  0.00  0.00     0.000 S
ATOM     93   O  SGN B   5      57.216 -13.118  25.6010  0.00  0.00     0.000 OA
ATOM     94   O  SGN B   5      59.207 -11.656  25.4780  0.00  0.00     0.000 OA
ATOM     95   O  SGN B   5      57.116 -10.805  24.7710  0.00  0.00     0.000 OA
ENDBRANCH 83 92
BRANCH 86 96
ATOM     96   C  SGN B   5      61.090 -12.573  18.9360  0.00  0.00     0.000 C
ATOM     97   O  SGN B   5      60.521 -12.756  17.6370  0.00  0.00     0.000 O
ATOM     98   S  SGN B   5      61.290 -12.045  16.4230  0.00  0.00     0.000 S
ATOM     99   O  SGN B   5      60.612 -12.574  15.2640  0.00  0.00     0.000 OA
ATOM    100   O  SGN B   5      61.159 -10.643  16.5970  0.00  0.00     0.000 OA
ATOM    101   O  SGN B   5      62.638 -12.497  16.5440  0.00  0.00     0.000 OA
ENDBRANCH 86 96
BRANCH 82 102
ATOM    102  O4  IDS B   6      57.514 -12.835  20.9910  0.00  0.00     0.000 O
BRANCH 102 106
ATOM    103  C1  IDS B   6      54.106 -13.752  20.0950  0.00  0.00     0.000 C
ATOM    104  C2  IDS B   6      54.539 -13.680  21.5670  0.00  0.00     0.000 C
ATOM    105  C3  IDS B   6      55.850 -14.372  21.8860  0.00  0.00     0.000 C
ATOM    106  C4  IDS B   6      56.908 -14.142  20.8220  0.00  0.00     0.000 C
ATOM    107  C5  IDS B   6      56.281 -14.276  19.4310  0.00  0.00     0.000 C
ATOM    108  O5  IDS B   6      55.182 -13.380  19.2540  0.00  0.00     0.000 O
ATOM    109   O  IDS B   6      55.591 -15.757  22.0480  0.00  0.00     0.000 O
ATOM    111  HD  IDS B   6      54.855 -15.884  21.6090  0.00  0.00     0.000 HD
BRANCH 104 111
ATOM    111   O  IDS B   6      54.742 -12.272  21.9390  0.00  0.00     0.000 O
ATOM    112   S  IDS B   6      53.885 -11.683  23.1560  0.00  0.00     0.000 S
ATOM    113   O  IDS B   6      52.500 -11.875  22.7540  0.00  0.00     0.000 OA
ATOM    114   O  IDS B   6      54.271 -12.390  24.3820  0.00  0.00     0.000 OA
ATOM    115   O  IDS B   6      54.325 -10.305  23.1060  0.00  0.00     0.000 OA
ENDBRANCH 104 111
BRANCH 107 116
ATOM    116   C  IDS B   6      57.342 -14.008  18.3710  0.00  0.00     0.000 C
ATOM    117   O  IDS B   6      58.212 -14.833  18.2550  0.00  0.00     0.000 OA
ATOM    118   O  IDS B   6      57.312 -13.000  17.6830  0.00  0.00     0.000 OA
ENDBRANCH 107 116
BRANCH 103 119
ATOM    119  O4  SGN B   7      53.518 -14.971  19.9920  0.00  0.00     0.000 O
BRANCH 119 123
ATOM    120  C1  SGN B   7      50.995 -16.778  17.1880  0.00  0.00     0.000 C
ATOM    121  C2  SGN B   7      52.487 -17.159  17.1540  0.00  0.00     0.000 C
ATOM    122  C3  SGN B   7      53.178 -16.743  18.4600  0.00  0.00     0.000 C
ATOM    123  C4  SGN B   7      52.924 -15.268  18.7270  0.00  0.00     0.000 C
ATOM    124  C5  SGN B   7      51.412 -14.990  18.7340  0.00  0.00     0.000 C
ATOM    125  O5  SGN B   7      50.805 -15.396  17.4870  0.00  0.00     0.000 O
ATOM    126   O  SGN B   7      54.578 -17.021  18.3550  0.00  0.00     0.000 O
ATOM    128  HD  SGN B   7      53.784 -17.112  18.0230  0.00  0.00     0.000 HD
BRANCH 121 130
ATOM    128   N  SGN B   7      52.121 -17.924  15.9600  0.00  0.00     0.000 N
ATOM    130  HD  SGN B   7      52.792 -17.586  15.5290  0.00  0.00     0.000 HD
ATOM    130   S  SGN B   7      52.970 -19.199  15.4630  0.00  0.00     0.000 S
ATOM    131   O  SGN B   7      53.109 -20.025  16.6130  0.00  0.00     0.000 OA
ATOM    132   O  SGN B   7      52.364 -19.707  14.2850  0.00  0.00     0.000 OA
ATOM    133   O  SGN B   7      54.274 -18.491  14.9630  0.00  0.00     0.000 OA
ENDBRANCH 121 130
BRANCH 124 134
ATOM    134   C  SGN B   7      51.062 -13.538  18.8760  0.00  0.00     0.000 C
ATOM    135   O  SGN B   7      49.829 -13.294  18.1790  0.00  0.00     0.000 O
ATOM    136   S  SGN B   7      49.208 -11.860  18.3360  0.00  0.00     0.000 S
ATOM    137   O  SGN B   7      48.049 -11.822  17.4770  0.00  0.00     0.000 OA
ATOM    138   O  SGN B   7      50.250 -10.949  17.9190  0.00  0.00     0.000 OA
ATOM    139   O  SGN B   7      48.895 -11.808  19.7560  0.00  0.00     0.000 OA
ENDBRANCH 124 134
BRANCH 120 140
ATOM    140  O4  IDS B   8      50.031 -17.293  17.9590  0.00  0.00     0.000 O
BRANCH 140 144
ATOM    141  C1  IDS B   8      47.007 -18.333  19.6130  0.00  0.00     0.000 C
ATOM    142  C2  IDS B   8      48.142 -17.616  20.3980  0.00  0.00     0.000 C
ATOM    143  C3  IDS B   8      49.533 -18.222  20.1350  0.00  0.00     0.000 C
ATOM    144  C4  IDS B   8      49.759 -18.517  18.6530  0.00  0.00     0.000 C
ATOM    145  C5  IDS B   8      48.521 -19.200  18.0540  0.00  0.00     0.000 C
ATOM    146  O5  IDS B   8      47.346 -18.414  18.2340  0.00  0.00     0.000 O
BRANCH 142 147
ATOM    147   O  IDS B   8      48.201 -16.188  19.9910  0.00  0.00     0.000 O
ATOM    148   S  IDS B   8      47.683 -15.014  20.9840  0.00  0.00     0.000 S
ATOM    149   O  IDS B   8      46.873 -15.633  22.0090  0.00  0.00     0.000 OA
ATOM    150   O  IDS B   8      48.884 -14.396  21.5130  0.00  0.00     0.000 OA
ATOM    151   O  IDS B   8      46.906 -14.121  20.1450  0.00  0.00     0.000 OA
ENDBRANCH 142 147
BRANCH 145 152
ATOM    152   C  IDS B   8      48.646 -19.429  16.5610  0.00  0.00     0.000 C
ATOM    153   O  IDS B   8      49.606 -20.053  16.1240  0.00  0.00     0.000 OA
ATOM    154   O  IDS B   8      47.782 -19.008  15.8140  0.00  0.00     0.000 OA
ENDBRANCH 145 152
ENDBRANCH 140 144
ENDBRANCH 120 140
ENDBRANCH 119 123
ENDBRANCH 103 119
ENDBRANCH 102 106
ENDBRANCH 82 102
ENDBRANCH 81 85
ENDBRANCH 65 81
ENDBRANCH 64 68
ENDBRANCH 41 64
ENDBRANCH 40 44
ENDBRANCH 24 40
ENDBRANCH 23 27
ENDBRANCH 1 23
TORSDOF 31
ENDMDL
MODEL 66
REMARK VINA RESULT:      -5.9      8.037     19.813
ROOT
ATOM      1  C1  SGN B   1      59.069  -2.760  20.6400  0.00  0.00     0.000 C
ATOM      2  C2  SGN B   1      60.570  -2.917  20.3430  0.00  0.00     0.000 C
ATOM      3  C3  SGN B   1      60.866  -4.304  19.7620  0.00  0.00     0.000 C
ATOM      4  C4  SGN B   1      60.354  -5.389  20.7030  0.00  0.00     0.000 C
ATOM      5  C5  SGN B   1      58.902  -5.090  21.0670  0.00  0.00     0.000 C
ATOM      6  O5  SGN B   1      58.806  -3.761  21.6140  0.00  0.00     0.000 O
ATOM      7   O  SGN B   1      62.261  -4.461  19.5290  0.00  0.00     0.000 O
ATOM      9  HD  SGN B   1      62.238  -4.332  20.3850  0.00  0.00     0.000 HD
ATOM      9   O  SGN B   1      60.449  -6.649  20.0640  0.00  0.00     0.000 O
ATOM     11  HD  SGN B   1      60.426  -6.520  20.9200  0.00  0.00     0.000 HD
ENDROOT
BRANCH 2 13
ATOM     11   N  SGN B   1      61.109  -1.607  20.7550  0.00  0.00     0.000 N
ATOM     13  HD  SGN B   1      60.448  -1.655  20.1980  0.00  0.00     0.000 HD
ATOM     13   S  SGN B   1      61.037  -0.310  19.8060  0.00  0.00     0.000 S
ATOM     14   O  SGN B   1      60.359  -0.622  18.6080  0.00  0.00     0.000 OA
ATOM     15   O  SGN B   1      60.601   0.797  20.5880  0.00  0.00     0.000 OA
ATOM     16   O  SGN B   1      62.566  -0.128  19.5610  0.00  0.00     0.000 OA
ENDBRANCH 2 13
BRANCH 5 17
ATOM     17   C  SGN B   1      58.316  -6.038  22.0840  0.00  0.00     0.000 C
ATOM     18   O  SGN B   1      59.334  -6.901  22.6290  0.00  0.00     0.000 O
ATOM     19   S  SGN B   1      58.954  -8.450  22.7410  0.00  0.00     0.000 S
ATOM     20   O  SGN B   1      60.021  -9.043  23.5190  0.00  0.00     0.000 OA
ATOM     21   O  SGN B   1      57.677  -8.453  23.4160  0.00  0.00     0.000 OA
ATOM     22   O  SGN B   1      58.898  -8.925  21.3760  0.00  0.00     0.000 OA
ENDBRANCH 5 17
BRANCH 1 23
ATOM     23  O4  IDS B   2      57.914  -2.349  20.0430  0.00  0.00     0.000 O
BRANCH 23 27
ATOM     24  C1  IDS B   2      54.233  -0.747  18.9880  0.00  0.00     0.000 C
ATOM     25  C2  IDS B   2      55.418   0.245  18.9840  0.00  0.00     0.000 C
ATOM     26  C3  IDS B   2      56.749  -0.495  19.0910  0.00  0.00     0.000 C
ATOM     27  C4  IDS B   2      56.831  -1.428  20.2910  0.00  0.00     0.000 C
ATOM     28  C5  IDS B   2      55.464  -2.101  20.5290  0.00  0.00     0.000 C
ATOM     29  O5  IDS B   2      54.668  -2.063  19.3550  0.00  0.00     0.000 O
ATOM     30   O  IDS B   2      57.803   0.453  19.2110  0.00  0.00     0.000 O
ATOM     32  HD  IDS B   2      57.884   0.775  20.0110  0.00  0.00     0.000 HD
BRANCH 25 32
ATOM     32   O  IDS B   2      55.459   1.066  17.7500  0.00  0.00     0.000 O
ATOM     33   S  IDS B   2      55.254   2.703  17.7850  0.00  0.00     0.000 S
ATOM     34   O  IDS B   2      55.131   3.126  16.3990  0.00  0.00     0.000 OA
ATOM     35   O  IDS B   2      54.056   3.025  18.5480  0.00  0.00     0.000 OA
ATOM     36   O  IDS B   2      56.453   3.233  18.3930  0.00  0.00     0.000 OA
ENDBRANCH 25 32
BRANCH 28 37
ATOM     37   C  IDS B   2      55.457  -3.545  21.0730  0.00  0.00     0.000 C
ATOM     38   O  IDS B   2      55.410  -4.375  20.1960  0.00  0.00     0.000 OA
ATOM     39   O  IDS B   2      55.557  -3.901  22.2730  0.00  0.00     0.000 OA
ENDBRANCH 28 37
BRANCH 24 40
ATOM     40  O4  SUS B   3      52.967  -0.282  18.9690  0.00  0.00     0.000 O
BRANCH 40 44
ATOM     41  C1  SUS B   3      49.448  -2.047  17.5380  0.00  0.00     0.000 C
ATOM     42  C2  SUS B   3      50.096  -2.678  18.7860  0.00  0.00     0.000 C
ATOM     43  C3  SUS B   3      51.039  -1.665  19.4300  0.00  0.00     0.000 C
ATOM     44  C4  SUS B   3      52.039  -1.191  18.3870  0.00  0.00     0.000 C
ATOM     45  C5  SUS B   3      51.288  -0.510  17.2610  0.00  0.00     0.000 C
ATOM     46  O5  SUS B   3      50.418  -1.483  16.6480  0.00  0.00     0.000 O
BRANCH 42 49
ATOM     47   N  SUS B   3      49.426  -3.937  18.4160  0.00  0.00     0.000 N
ATOM     49  HD  SUS B   3      48.748  -3.871  17.8810  0.00  0.00     0.000 HD
ATOM     49   S  SUS B   3      48.974  -4.794  19.6910  0.00  0.00     0.000 S
ATOM     50   O  SUS B   3      48.120  -4.026  20.5080  0.00  0.00     0.000 OA
ATOM     51   O  SUS B   3      48.167  -5.864  18.9110  0.00  0.00     0.000 OA
ATOM     52   O  SUS B   3      50.110  -5.369  20.2940  0.00  0.00     0.000 OA
ENDBRANCH 42 49
BRANCH 43 53
ATOM     53   O  SUS B   3      51.748  -2.341  20.5340  0.00  0.00     0.000 O
ATOM     54   S  SUS B   3      51.486  -1.771  22.0540  0.00  0.00     0.000 S
ATOM     55   O  SUS B   3      50.128  -2.141  22.4300  0.00  0.00     0.000 OA
ATOM     56   O  SUS B   3      52.511  -2.417  22.8540  0.00  0.00     0.000 OA
ATOM     57   O  SUS B   3      51.639  -0.315  21.9840  0.00  0.00     0.000 OA
ENDBRANCH 43 53
BRANCH 45 58
ATOM     58   C  SUS B   3      52.225   0.078  16.2290  0.00  0.00     0.000 C
ATOM     59   S  SUS B   3      52.473   0.487  13.7080  0.00  0.00     0.000 S
ATOM     60   O  SUS B   3      51.569   0.104  14.9510  0.00  0.00     0.000 O
ATOM     61   O  SUS B   3      53.230  -0.712  13.4050  0.00  0.00     0.000 OA
ATOM     62   O  SUS B   3      51.465   0.773  12.7220  0.00  0.00     0.000 OA
ATOM     63   O  SUS B   3      53.244   1.603  14.1290  0.00  0.00     0.000 OA
ENDBRANCH 45 58
BRANCH 41 64
ATOM     64  O4  IDS B   4      48.396  -1.211  17.8240  0.00  0.00     0.000 O
BRANCH 64 68
ATOM     65  C1  IDS B   4      45.263   0.626  17.5290  0.00  0.00     0.000 C
ATOM     66  C2  IDS B   4      45.294  -0.741  18.2240  0.00  0.00     0.000 C
ATOM     67  C3  IDS B   4      46.063  -1.812  17.4690  0.00  0.00     0.000 C
ATOM     68  C4  IDS B   4      47.340  -1.289  16.8400  0.00  0.00     0.000 C
ATOM     69  C5  IDS B   4      47.027   0.057  16.1730  0.00  0.00     0.000 C
ATOM     70  O5  IDS B   4      46.585   0.984  17.1670  0.00  0.00     0.000 O
ATOM     71   O  IDS B   4      45.206  -2.313  16.4640  0.00  0.00     0.000 O
ATOM     73  HD  IDS B   4      45.400  -1.894  17.1960  0.00  0.00     0.000 HD
BRANCH 66 73
ATOM     73   O  IDS B   4      45.984  -0.600  19.5140  0.00  0.00     0.000 O
ATOM     74   S  IDS B   4      45.169  -0.987  20.8560  0.00  0.00     0.000 S
ATOM     75   O  IDS B   4      43.970  -0.176  20.8550  0.00  0.00     0.000 OA
ATOM     76   O  IDS B   4      46.113  -0.637  21.8870  0.00  0.00     0.000 OA
ATOM     77   O  IDS B   4      44.902  -2.401  20.7510  0.00  0.00     0.000 OA
ENDBRANCH 66 73
BRANCH 69 78
ATOM     78   C  IDS B   4      48.153   0.608  15.3080  0.00  0.00     0.000 C
ATOM     79   O  IDS B   4      48.811   1.558  15.7300  0.00  0.00     0.000 OA
ATOM     80   O  IDS B   4      48.440   0.014  14.2530  0.00  0.00     0.000 OA
ENDBRANCH 69 78
BRANCH 65 81
ATOM     81  O4  SGN B   5      44.338   0.605  16.5290  0.00  0.00     0.000 O
BRANCH 81 85
ATOM     82  C1  SGN B   5      42.553   3.107  13.6670  0.00  0.00     0.000 C
ATOM     83  C2  SGN B   5      43.642   2.144  13.1700  0.00  0.00     0.000 C
ATOM     84  C3  SGN B   5      43.842   1.021  14.1970  0.00  0.00     0.000 C
ATOM     85  C4  SGN B   5      44.158   1.632  15.5510  0.00  0.00     0.000 C
ATOM     86  C5  SGN B   5      43.000   2.545  15.9470  0.00  0.00     0.000 C
ATOM     87  O5  SGN B   5      42.874   3.586  14.9600  0.00  0.00     0.000 O
ATOM     88   O  SGN B   5      44.881   0.165  13.7750  0.00  0.00     0.000 O
ATOM     90  HD  SGN B   5      44.034  -0.002  13.7070  0.00  0.00     0.000 HD
BRANCH 83 92
ATOM     90   N  SGN B   5      43.350   1.616  11.8230  0.00  0.00     0.000 N
ATOM     92  HD  SGN B   5      42.517   1.392  11.7510  0.00  0.00     0.000 HD
ATOM     92   S  SGN B   5      43.954   2.394  10.5640  0.00  0.00     0.000 S
ATOM     93   O  SGN B   5      43.492   1.648   9.4320  0.00  0.00     0.000 OA
ATOM     94   O  SGN B   5      43.566   3.753  10.7280  0.00  0.00     0.000 OA
ATOM     95   O  SGN B   5      45.453   2.326  10.7530  0.00  0.00     0.000 OA
ENDBRANCH 83 92
BRANCH 86 96
ATOM     96   C  SGN B   5      43.173   3.218  17.2930  0.00  0.00     0.000 C
ATOM     97   O  SGN B   5      44.040   4.349  17.1810  0.00  0.00     0.000 O
ATOM     98   S  SGN B   5      43.493   5.723  17.8010  0.00  0.00     0.000 S
ATOM     99   O  SGN B   5      44.644   6.590  17.7190  0.00  0.00     0.000 OA
ATOM    100   O  SGN B   5      42.384   6.133  17.0160  0.00  0.00     0.000 OA
ATOM    101   O  SGN B   5      43.132   5.388  19.1410  0.00  0.00     0.000 OA
ENDBRANCH 86 96
BRANCH 82 102
ATOM    102  O4  IDS B   6      41.313   2.542  13.6640  0.00  0.00     0.000 O
BRANCH 102 106
ATOM    103  C1  IDS B   6      37.795   2.045  12.8690  0.00  0.00     0.000 C
ATOM    104  C2  IDS B   6      38.894   1.426  11.9920  0.00  0.00     0.000 C
ATOM    105  C3  IDS B   6      40.018   2.369  11.6090  0.00  0.00     0.000 C
ATOM    106  C4  IDS B   6      40.446   3.268  12.7560  0.00  0.00     0.000 C
ATOM    107  C5  IDS B   6      39.209   3.795  13.4890  0.00  0.00     0.000 C
ATOM    108  O5  IDS B   6      38.376   2.734  13.9600  0.00  0.00     0.000 O
ATOM    109   O  IDS B   6      39.590   3.139  10.4980  0.00  0.00     0.000 O
ATOM    111  HD  IDS B   6      38.725   3.111  10.5460  0.00  0.00     0.000 HD
BRANCH 104 111
ATOM    111   O  IDS B   6      39.539   0.332  12.7330  0.00  0.00     0.000 O
ATOM    112   S  IDS B   6      40.156  -0.884  11.8950  0.00  0.00     0.000 S
ATOM    113   O  IDS B   6      39.032  -1.417  11.1410  0.00  0.00     0.000 OA
ATOM    114   O  IDS B   6      41.257  -0.370  11.0720  0.00  0.00     0.000 OA
ATOM    115   O  IDS B   6      40.584  -1.729  12.9890  0.00  0.00     0.000 OA
ENDBRANCH 104 111
BRANCH 107 116
ATOM    116   C  IDS B   6      39.649   4.666  14.6590  0.00  0.00     0.000 C
ATOM    117   O  IDS B   6      39.263   4.339  15.7520  0.00  0.00     0.000 OA
ATOM    118   O  IDS B   6      40.350   5.651  14.4890  0.00  0.00     0.000 OA
ENDBRANCH 107 116
BRANCH 103 119
ATOM    119  O4  SGN B   7      36.993   2.682  11.9780  0.00  0.00     0.000 O
BRANCH 119 123
ATOM    120  C1  SGN B   7      32.821   2.959  11.8720  0.00  0.00     0.000 C
ATOM    121  C2  SGN B   7      33.624   4.273  11.8470  0.00  0.00     0.000 C
ATOM    122  C3  SGN B   7      35.090   4.001  11.4870  0.00  0.00     0.000 C
ATOM    123  C4  SGN B   7      35.662   2.948  12.4220  0.00  0.00     0.000 C
ATOM    124  C5  SGN B   7      34.789   1.683  12.3800  0.00  0.00     0.000 C
ATOM    125  O5  SGN B   7      33.419   1.985  12.7270  0.00  0.00     0.000 O
ATOM    126   O  SGN B   7      35.825   5.227  11.5700  0.00  0.00     0.000 O
ATOM    128  HD  SGN B   7      35.056   4.829  11.5700  0.00  0.00     0.000 HD
BRANCH 121 130
ATOM    128   N  SGN B   7      32.397   4.840  11.2820  0.00  0.00     0.000 N
ATOM    130  HD  SGN B   7      32.068   4.940  12.0770  0.00  0.00     0.000 HD
ATOM    130   S  SGN B   7      32.048   6.409  11.3830  0.00  0.00     0.000 S
ATOM    131   O  SGN B   7      33.216   7.079  10.9240  0.00  0.00     0.000 OA
ATOM    132   O  SGN B   7      30.798   6.630  10.7510  0.00  0.00     0.000 OA
ATOM    133   O  SGN B   7      31.744   6.531  12.9150  0.00  0.00     0.000 OA
ENDBRANCH 121 130
BRANCH 124 134
ATOM    134   C  SGN B   7      35.207   0.625  13.3580  0.00  0.00     0.000 C
ATOM    135   O  SGN B   7      34.042   0.173  14.0700  0.00  0.00     0.000 O
ATOM    136   S  SGN B   7      34.243  -1.048  15.0380  0.00  0.00     0.000 S
ATOM    137   O  SGN B   7      32.979  -1.247  15.7070  0.00  0.00     0.000 OA
ATOM    138   O  SGN B   7      35.301  -0.648  15.9370  0.00  0.00     0.000 OA
ATOM    139   O  SGN B   7      34.603  -2.118  14.1210  0.00  0.00     0.000 OA
ENDBRANCH 124 134
BRANCH 120 140
ATOM    140  O4  IDS B   8      32.506   2.167  10.8420  0.00  0.00     0.000 O
BRANCH 140 144
ATOM    141  C1  IDS B   8      31.817  -1.201   9.7720  0.00  0.00     0.000 C
ATOM    142  C2  IDS B   8      32.415  -0.156   8.7880  0.00  0.00     0.000 C
ATOM    143  C3  IDS B   8      31.660   1.186   8.7990  0.00  0.00     0.000 C
ATOM    144  C4  IDS B   8      31.327   1.643  10.2180  0.00  0.00     0.000 C
ATOM    145  C5  IDS B   8      30.774   0.467  11.0380  0.00  0.00     0.000 C
ATOM    146  O5  IDS B   8      31.685  -0.629  11.0670  0.00  0.00     0.000 O
BRANCH 142 147
ATOM    147   O  IDS B   8      33.825   0.129   9.1640  0.00  0.00     0.000 O
ATOM    148   S  IDS B   8      35.058  -0.578   8.3830  0.00  0.00     0.000 S
ATOM    149   O  IDS B   8      34.525  -1.705   7.6510  0.00  0.00     0.000 OA
ATOM    150   O  IDS B   8      35.605   0.448   7.5150  0.00  0.00     0.000 OA
ATOM    151   O  IDS B   8      35.980  -0.994   9.4230  0.00  0.00     0.000 OA
ENDBRANCH 142 147
BRANCH 145 152
ATOM    152   C  IDS B   8      30.518   0.835  12.4860  0.00  0.00     0.000 C
ATOM    153   O  IDS B   8      29.776   1.775  12.7480  0.00  0.00     0.000 OA
ATOM    154   O  IDS B   8      31.034   0.180  13.3740  0.00  0.00     0.000 OA
ENDBRANCH 145 152
ENDBRANCH 140 144
ENDBRANCH 120 140
ENDBRANCH 119 123
ENDBRANCH 103 119
ENDBRANCH 102 106
ENDBRANCH 82 102
ENDBRANCH 81 85
ENDBRANCH 65 81
ENDBRANCH 64 68
ENDBRANCH 41 64
ENDBRANCH 40 44
ENDBRANCH 24 40
ENDBRANCH 23 27
ENDBRANCH 1 23
TORSDOF 31
ENDMDL
MODEL 67
REMARK VINA RESULT:      -5.9     14.477     25.197
ROOT
ATOM      1  C1  SGN B   1      65.702  12.653  13.4980  0.00  0.00     0.000 C
ATOM      2  C2  SGN B   1      66.436  11.349  13.8510  0.00  0.00     0.000 C
ATOM      3  C3  SGN B   1      65.570  10.466  14.7550  0.00  0.00     0.000 C
ATOM      4  C4  SGN B   1      65.151  11.239  16.0010  0.00  0.00     0.000 C
ATOM      5  C5  SGN B   1      64.560  12.582  15.5790  0.00  0.00     0.000 C
ATOM      6  O5  SGN B   1      65.507  13.288  14.7550  0.00  0.00     0.000 O
ATOM      7   O  SGN B   1      66.270   9.280  15.1160  0.00  0.00     0.000 O
ATOM      9  HD  SGN B   1      66.780   9.895  15.4500  0.00  0.00     0.000 HD
ATOM      9   O  SGN B   1      64.191  10.487  16.7210  0.00  0.00     0.000 O
ATOM     11  HD  SGN B   1      64.702  11.102  17.0550  0.00  0.00     0.000 HD
ENDROOT
BRANCH 2 13
ATOM     11   N  SGN B   1      67.720  11.488  13.1370  0.00  0.00     0.000 N
ATOM     13  HD  SGN B   1      66.970  11.601  12.7190  0.00  0.00     0.000 HD
ATOM     13   S  SGN B   1      67.864  11.188  11.5630  0.00  0.00     0.000 S
ATOM     14   O  SGN B   1      66.610  10.843  11.0170  0.00  0.00     0.000 OA
ATOM     15   O  SGN B   1      68.620  12.241  10.9710  0.00  0.00     0.000 OA
ATOM     16   O  SGN B   1      68.803   9.946  11.6580  0.00  0.00     0.000 OA
ENDBRANCH 2 13
BRANCH 5 17
ATOM     17   C  SGN B   1      64.206  13.487  16.7330  0.00  0.00     0.000 C
ATOM     18   O  SGN B   1      63.148  12.918  17.5290  0.00  0.00     0.000 O
ATOM     19   S  SGN B   1      61.972  13.916  17.9500  0.00  0.00     0.000 S
ATOM     20   O  SGN B   1      61.183  13.181  18.9160  0.00  0.00     0.000 OA
ATOM     21   O  SGN B   1      62.660  15.054  18.5130  0.00  0.00     0.000 OA
ATOM     22   O  SGN B   1      61.264  14.205  16.7220  0.00  0.00     0.000 OA
ENDBRANCH 5 17
BRANCH 1 23
ATOM     23  O4  IDS B   2      64.854  13.164  12.5600  0.00  0.00     0.000 O
BRANCH 23 27
ATOM     24  C1  IDS B   2      60.865  12.336  13.3520  0.00  0.00     0.000 C
ATOM     25  C2  IDS B   2      61.589  11.321  12.4410  0.00  0.00     0.000 C
ATOM     26  C3  IDS B   2      63.097  11.550  12.4580  0.00  0.00     0.000 C
ATOM     27  C4  IDS B   2      63.499  12.975  12.1020  0.00  0.00     0.000 C
ATOM     28  C5  IDS B   2      62.482  13.973  12.6920  0.00  0.00     0.000 C
ATOM     29  O5  IDS B   2      61.755  13.384  13.7600  0.00  0.00     0.000 O
ATOM     30   O  IDS B   2      63.714  10.682  11.5150  0.00  0.00     0.000 O
ATOM     32  HD  IDS B   2      63.651  10.963  10.6990  0.00  0.00     0.000 HD
BRANCH 25 32
ATOM     32   O  IDS B   2      61.344   9.918  12.8580  0.00  0.00     0.000 O
ATOM     33   S  IDS B   2      60.689   8.805  11.8300  0.00  0.00     0.000 S
ATOM     34   O  IDS B   2      60.392   7.633  12.6390  0.00  0.00     0.000 OA
ATOM     35   O  IDS B   2      59.483   9.354  11.2270  0.00  0.00     0.000 OA
ATOM     36   O  IDS B   2      61.715   8.525  10.8540  0.00  0.00     0.000 OA
ENDBRANCH 25 32
BRANCH 28 37
ATOM     37   C  IDS B   2      63.007  15.345  13.1610  0.00  0.00     0.000 C
ATOM     38   O  IDS B   2      62.853  15.524  14.3460  0.00  0.00     0.000 OA
ATOM     39   O  IDS B   2      63.602  16.204  12.4650  0.00  0.00     0.000 OA
ENDBRANCH 28 37
BRANCH 24 40
ATOM     40  O4  SUS B   3      59.517  12.339  13.4180  0.00  0.00     0.000 O
BRANCH 40 44
ATOM     41  C1  SUS B   3      56.957  13.356  16.5740  0.00  0.00     0.000 C
ATOM     42  C2  SUS B   3      57.744  14.502  15.9070  0.00  0.00     0.000 C
ATOM     43  C3  SUS B   3      58.220  14.050  14.5290  0.00  0.00     0.000 C
ATOM     44  C4  SUS B   3      59.014  12.762  14.6810  0.00  0.00     0.000 C
ATOM     45  C5  SUS B   3      58.109  11.693  15.2580  0.00  0.00     0.000 C
ATOM     46  O5  SUS B   3      57.684  12.122  16.5680  0.00  0.00     0.000 O
BRANCH 42 49
ATOM     47   N  SUS B   3      58.375  15.817  16.1130  0.00  0.00     0.000 N
ATOM     49  HD  SUS B   3      59.163  15.816  16.4740  0.00  0.00     0.000 HD
ATOM     49   S  SUS B   3      57.448  16.824  16.9450  0.00  0.00     0.000 S
ATOM     50   O  SUS B   3      57.121  16.256  18.1920  0.00  0.00     0.000 OA
ATOM     51   O  SUS B   3      58.508  17.943  17.1150  0.00  0.00     0.000 OA
ATOM     52   O  SUS B   3      56.387  17.264  16.1290  0.00  0.00     0.000 OA
ENDBRANCH 42 49
BRANCH 43 53
ATOM     53   O  SUS B   3      59.085  15.110  13.9760  0.00  0.00     0.000 O
ATOM     54   S  SUS B   3      58.558  15.878  12.6220  0.00  0.00     0.000 S
ATOM     55   O  SUS B   3      57.432  16.717  13.0070  0.00  0.00     0.000 OA
ATOM     56   O  SUS B   3      59.717  16.626  12.1680  0.00  0.00     0.000 OA
ATOM     57   O  SUS B   3      58.144  14.830  11.6850  0.00  0.00     0.000 OA
ENDBRANCH 43 53
BRANCH 45 58
ATOM     58   C  SUS B   3      58.801  10.351  15.3460  0.00  0.00     0.000 C
ATOM     59   S  SUS B   3      60.374   8.969  16.8300  0.00  0.00     0.000 S
ATOM     60   O  SUS B   3      59.421  10.219  16.6360  0.00  0.00     0.000 O
ATOM     61   O  SUS B   3      61.611   9.327  16.1620  0.00  0.00     0.000 OA
ATOM     62   O  SUS B   3      60.501   8.948  18.2620  0.00  0.00     0.000 OA
ATOM     63   O  SUS B   3      59.676   7.868  16.2660  0.00  0.00     0.000 OA
ENDBRANCH 45 58
BRANCH 41 64
ATOM     64  O4  IDS B   4      55.660  13.246  16.1340  0.00  0.00     0.000 O
BRANCH 64 68
ATOM     65  C1  IDS B   4      52.098  12.487  16.0230  0.00  0.00     0.000 C
ATOM     66  C2  IDS B   4      52.591  13.785  16.6740  0.00  0.00     0.000 C
ATOM     67  C3  IDS B   4      53.766  13.606  17.6210  0.00  0.00     0.000 C
ATOM     68  C4  IDS B   4      54.794  12.617  17.1040  0.00  0.00     0.000 C
ATOM     69  C5  IDS B   4      54.047  11.395  16.5550  0.00  0.00     0.000 C
ATOM     70  O5  IDS B   4      53.209  11.803  15.4710  0.00  0.00     0.000 O
ATOM     71   O  IDS B   4      53.246  13.153  18.8540  0.00  0.00     0.000 O
ATOM     73  HD  IDS B   4      53.207  13.517  18.0690  0.00  0.00     0.000 HD
BRANCH 66 73
ATOM     73   O  IDS B   4      53.072  14.690  15.6210  0.00  0.00     0.000 O
ATOM     74   S  IDS B   4      52.310  16.104  15.4300  0.00  0.00     0.000 S
ATOM     75   O  IDS B   4      50.916  15.790  15.2020  0.00  0.00     0.000 OA
ATOM     76   O  IDS B   4      52.984  16.651  14.2800  0.00  0.00     0.000 OA
ATOM     77   O  IDS B   4      52.538  16.834  16.6550  0.00  0.00     0.000 OA
ENDBRANCH 66 73
BRANCH 69 78
ATOM     78   C  IDS B   4      54.944  10.217  16.1990  0.00  0.00     0.000 C
ATOM     79   O  IDS B   4      55.041   9.884  15.0180  0.00  0.00     0.000 OA
ATOM     80   O  IDS B   4      55.630   9.697  17.0980  0.00  0.00     0.000 OA
ENDBRANCH 69 78
BRANCH 65 81
ATOM     81  O4  SGN B   5      51.333  11.796  16.9130  0.00  0.00     0.000 O
BRANCH 81 85
ATOM     82  C1  SGN B   5      47.958   9.322  17.2720  0.00  0.00     0.000 C
ATOM     83  C2  SGN B   5      49.197   8.718  16.5960  0.00  0.00     0.000 C
ATOM     84  C3  SGN B   5      50.436   9.549  16.9570  0.00  0.00     0.000 C
ATOM     85  C4  SGN B   5      50.195  10.999  16.5760  0.00  0.00     0.000 C
ATOM     86  C5  SGN B   5      48.960  11.492  17.3240  0.00  0.00     0.000 C
ATOM     87  O5  SGN B   5      47.830  10.689  16.9300  0.00  0.00     0.000 O
ATOM     88   O  SGN B   5      51.570   9.033  16.2940  0.00  0.00     0.000 O
ATOM     90  HD  SGN B   5      51.372   8.901  17.1270  0.00  0.00     0.000 HD
BRANCH 83 92
ATOM     90   N  SGN B   5      49.154   7.305  17.0210  0.00  0.00     0.000 N
ATOM     92  HD  SGN B   5      48.768   7.224  17.7910  0.00  0.00     0.000 HD
ATOM     92   S  SGN B   5      48.737   6.207  15.9370  0.00  0.00     0.000 S
ATOM     93   O  SGN B   5      48.785   4.967  16.6520  0.00  0.00     0.000 OA
ATOM     94   O  SGN B   5      47.510   6.662  15.3790  0.00  0.00     0.000 OA
ATOM     95   O  SGN B   5      49.792   6.313  14.8570  0.00  0.00     0.000 OA
ENDBRANCH 83 92
BRANCH 86 96
ATOM     96   C  SGN B   5      48.603  12.938  17.0480  0.00  0.00     0.000 C
ATOM     97   O  SGN B   5      48.382  13.143  15.6500  0.00  0.00     0.000 O
ATOM     98   S  SGN B   5      47.015  13.882  15.2530  0.00  0.00     0.000 S
ATOM     99   O  SGN B   5      47.181  14.117  13.8390  0.00  0.00     0.000 OA
ATOM    100   O  SGN B   5      45.946  13.011  15.5870  0.00  0.00     0.000 OA
ATOM    101   O  SGN B   5      47.021  15.079  16.0290  0.00  0.00     0.000 OA
ENDBRANCH 86 96
BRANCH 82 102
ATOM    102  O4  IDS B   6      47.974   9.171  18.6270  0.00  0.00     0.000 O
BRANCH 102 106
ATOM    103  C1  IDS B   6      46.808   8.038  21.8850  0.00  0.00     0.000 C
ATOM    104  C2  IDS B   6      47.026   7.039  20.7370  0.00  0.00     0.000 C
ATOM    105  C3  IDS B   6      46.432   7.453  19.4040  0.00  0.00     0.000 C
ATOM    106  C4  IDS B   6      46.627   8.930  19.1090  0.00  0.00     0.000 C
ATOM    107  C5  IDS B   6      46.345   9.751  20.3700  0.00  0.00     0.000 C
ATOM    108  O5  IDS B   6      47.164   9.342  21.4670  0.00  0.00     0.000 O
ATOM    109   O  IDS B   6      45.055   7.118  19.4110  0.00  0.00     0.000 O
ATOM    111  HD  IDS B   6      44.853   7.083  20.2530  0.00  0.00     0.000 HD
BRANCH 104 111
ATOM    111   O  IDS B   6      48.469   6.897  20.4930  0.00  0.00     0.000 O
ATOM    112   S  IDS B   6      49.138   5.465  20.7450  0.00  0.00     0.000 S
ATOM    113   O  IDS B   6      48.860   5.172  22.1420  0.00  0.00     0.000 OA
ATOM    114   O  IDS B   6      48.562   4.509  19.7920  0.00  0.00     0.000 OA
ATOM    115   O  IDS B   6      50.520   5.802  20.4790  0.00  0.00     0.000 OA
ENDBRANCH 104 111
BRANCH 107 116
ATOM    116   C  IDS B   6      46.578  11.227  20.0730  0.00  0.00     0.000 C
ATOM    117   O  IDS B   6      47.550  11.734  20.5740  0.00  0.00     0.000 OA
ATOM    118   O  IDS B   6      45.809  11.863  19.3700  0.00  0.00     0.000 OA
ENDBRANCH 107 116
BRANCH 103 119
ATOM    119  O4  SGN B   7      45.556   7.754  22.3250  0.00  0.00     0.000 O
BRANCH 119 123
ATOM    120  C1  SGN B   7      43.281   9.274  25.4880  0.00  0.00     0.000 C
ATOM    121  C2  SGN B   7      42.779   9.540  24.0560  0.00  0.00     0.000 C
ATOM    122  C3  SGN B   7      43.472   8.601  23.0600  0.00  0.00     0.000 C
ATOM    123  C4  SGN B   7      44.980   8.711  23.2140  0.00  0.00     0.000 C
ATOM    124  C5  SGN B   7      45.377   8.436  24.6740  0.00  0.00     0.000 C
ATOM    125  O5  SGN B   7      44.703   9.343  25.5750  0.00  0.00     0.000 O
ATOM    126   O  SGN B   7      43.057   8.941  21.7320  0.00  0.00     0.000 O
ATOM    128  HD  SGN B   7      42.948   9.042  22.5860  0.00  0.00     0.000 HD
BRANCH 121 130
ATOM    128   N  SGN B   7      41.536   9.872  24.7580  0.00  0.00     0.000 N
ATOM    130  HD  SGN B   7      41.765  10.706  24.7830  0.00  0.00     0.000 HD
ATOM    130   S  SGN B   7      40.323  10.648  24.0380  0.00  0.00     0.000 S
ATOM    131   O  SGN B   7      40.089   9.933  22.8300  0.00  0.00     0.000 OA
ATOM    132   O  SGN B   7      39.280  10.821  24.9830  0.00  0.00     0.000 OA
ATOM    133   O  SGN B   7      40.955  12.073  23.8810  0.00  0.00     0.000 OA
ENDBRANCH 121 130
BRANCH 124 134
ATOM    134   C  SGN B   7      46.838   8.635  24.9530  0.00  0.00     0.000 C
ATOM    135   O  SGN B   7      47.439   7.350  25.1850  0.00  0.00     0.000 O
ATOM    136   S  SGN B   7      49.001   7.326  25.3450  0.00  0.00     0.000 S
ATOM    137   O  SGN B   7      49.355   5.965  25.6700  0.00  0.00     0.000 OA
ATOM    138   O  SGN B   7      49.286   8.254  26.4160  0.00  0.00     0.000 OA
ATOM    139   O  SGN B   7      49.457   7.760  24.0340  0.00  0.00     0.000 OA
ENDBRANCH 124 134
BRANCH 120 140
ATOM    140  O4  IDS B   8      43.078   8.189  26.2430  0.00  0.00     0.000 O
BRANCH 140 144
ATOM    141  C1  IDS B   8      41.385   6.714  29.0570  0.00  0.00     0.000 C
ATOM    142  C2  IDS B   8      41.817   8.208  29.0770  0.00  0.00     0.000 C
ATOM    143  C3  IDS B   8      43.279   8.419  28.6420  0.00  0.00     0.000 C
ATOM    144  C4  IDS B   8      43.638   7.584  27.4150  0.00  0.00     0.000 C
ATOM    145  C5  IDS B   8      43.106   6.152  27.5750  0.00  0.00     0.000 C
ATOM    146  O5  IDS B   8      41.698   6.134  27.7970  0.00  0.00     0.000 O
BRANCH 142 147
ATOM    147   O  IDS B   8      40.963   8.983  28.1400  0.00  0.00     0.000 O
ATOM    148   S  IDS B   8      40.551  10.519  28.4590  0.00  0.00     0.000 S
ATOM    149   O  IDS B   8      40.810  10.760  29.8610  0.00  0.00     0.000 OA
ATOM    150   O  IDS B   8      41.381  11.331  27.5880  0.00  0.00     0.000 OA
ATOM    151   O  IDS B   8      39.138  10.610  28.1450  0.00  0.00     0.000 OA
ENDBRANCH 142 147
BRANCH 145 152
ATOM    152   C  IDS B   8      43.345   5.299  26.3450  0.00  0.00     0.000 C
ATOM    153   O  IDS B   8      44.028   5.740  25.4280  0.00  0.00     0.000 OA
ATOM    154   O  IDS B   8      42.873   4.178  26.2890  0.00  0.00     0.000 OA
ENDBRANCH 145 152
ENDBRANCH 140 144
ENDBRANCH 120 140
ENDBRANCH 119 123
ENDBRANCH 103 119
ENDBRANCH 102 106
ENDBRANCH 82 102
ENDBRANCH 81 85
ENDBRANCH 65 81
ENDBRANCH 64 68
ENDBRANCH 41 64
ENDBRANCH 40 44
ENDBRANCH 24 40
ENDBRANCH 23 27
ENDBRANCH 1 23
TORSDOF 31
ENDMDL
MODEL 68
REMARK VINA RESULT:      -5.8     16.347     22.564
ROOT
ATOM      1  C1  SGN B   1      65.051   1.234  21.3380  0.00  0.00     0.000 C
ATOM      2  C2  SGN B   1      64.171   2.474  21.5680  0.00  0.00     0.000 C
ATOM      3  C3  SGN B   1      62.685   2.109  21.4770  0.00  0.00     0.000 C
ATOM      4  C4  SGN B   1      62.388   1.438  20.1400  0.00  0.00     0.000 C
ATOM      5  C5  SGN B   1      63.390   0.308  19.9150  0.00  0.00     0.000 C
ATOM      6  O5  SGN B   1      64.730   0.825  20.0150  0.00  0.00     0.000 O
ATOM      7   O  SGN B   1      61.875   3.266  21.6460  0.00  0.00     0.000 O
ATOM      9  HD  SGN B   1      62.328   3.470  20.9360  0.00  0.00     0.000 HD
ATOM      9   O  SGN B   1      61.068   0.926  20.1530  0.00  0.00     0.000 O
ATOM     11  HD  SGN B   1      61.521   1.130  19.4440  0.00  0.00     0.000 HD
ENDROOT
BRANCH 2 13
ATOM     11   N  SGN B   1      65.100   3.590  21.8240  0.00  0.00     0.000 N
ATOM     13  HD  SGN B   1      65.209   2.827  22.2200  0.00  0.00     0.000 HD
ATOM     13   S  SGN B   1      65.887   3.750  23.2180  0.00  0.00     0.000 S
ATOM     14   O  SGN B   1      65.585   2.669  24.0730  0.00  0.00     0.000 OA
ATOM     15   O  SGN B   1      67.248   4.060  22.9350  0.00  0.00     0.000 OA
ATOM     16   O  SGN B   1      65.207   5.067  23.7070  0.00  0.00     0.000 OA
ENDBRANCH 2 13
BRANCH 5 17
ATOM     17   C  SGN B   1      63.266  -0.364  18.5700  0.00  0.00     0.000 C
ATOM     18   O  SGN B   1      62.328  -1.458  18.6250  0.00  0.00     0.000 O
ATOM     19   S  SGN B   1      62.792  -2.815  17.9190  0.00  0.00     0.000 S
ATOM     20   O  SGN B   1      61.612  -3.653  17.9050  0.00  0.00     0.000 OA
ATOM     21   O  SGN B   1      63.221  -2.400  16.6040  0.00  0.00     0.000 OA
ATOM     22   O  SGN B   1      63.858  -3.329  18.7510  0.00  0.00     0.000 OA
ENDBRANCH 5 17
BRANCH 1 23
ATOM     23  O4  IDS B   2      65.639   0.217  22.0300  0.00  0.00     0.000 O
BRANCH 23 27
ATOM     24  C1  IDS B   2      63.220  -3.126  22.4870  0.00  0.00     0.000 C
ATOM     25  C2  IDS B   2      63.110  -2.065  23.6040  0.00  0.00     0.000 C
ATOM     26  C3  IDS B   2      63.801  -0.767  23.1950  0.00  0.00     0.000 C
ATOM     27  C4  IDS B   2      65.252  -0.958  22.7740  0.00  0.00     0.000 C
ATOM     28  C5  IDS B   2      65.407  -2.283  22.0010  0.00  0.00     0.000 C
ATOM     29  O5  IDS B   2      64.158  -2.717  21.4830  0.00  0.00     0.000 O
ATOM     30   O  IDS B   2      63.787   0.137  24.2930  0.00  0.00     0.000 O
ATOM     32  HD  IDS B   2      64.395  -0.034  24.8850  0.00  0.00     0.000 HD
BRANCH 25 32
ATOM     32   O  IDS B   2      61.700  -1.739  23.9320  0.00  0.00     0.000 O
ATOM     33   S  IDS B   2      61.072  -1.999  25.4350  0.00  0.00     0.000 S
ATOM     34   O  IDS B   2      59.639  -1.780  25.3180  0.00  0.00     0.000 OA
ATOM     35   O  IDS B   2      61.369  -3.361  25.8550  0.00  0.00     0.000 OA
ATOM     36   O  IDS B   2      61.687  -1.012  26.2910  0.00  0.00     0.000 OA
ENDBRANCH 25 32
BRANCH 28 37
ATOM     37   C  IDS B   2      66.448  -2.336  20.8640  0.00  0.00     0.000 C
ATOM     38   O  IDS B   2      67.513  -2.779  21.2260  0.00  0.00     0.000 OA
ATOM     39   O  IDS B   2      66.267  -2.036  19.6590  0.00  0.00     0.000 OA
ENDBRANCH 28 37
BRANCH 24 40
ATOM     40  O4  SUS B   3      62.729  -4.367  22.6870  0.00  0.00     0.000 O
BRANCH 40 44
ATOM     41  C1  SUS B   3      61.299  -7.193  19.9450  0.00  0.00     0.000 C
ATOM     42  C2  SUS B   3      62.818  -6.933  19.9620  0.00  0.00     0.000 C
ATOM     43  C3  SUS B   3      63.203  -6.279  21.2870  0.00  0.00     0.000 C
ATOM     44  C4  SUS B   3      62.360  -5.029  21.4820  0.00  0.00     0.000 C
ATOM     45  C5  SUS B   3      60.899  -5.427  21.5400  0.00  0.00     0.000 C
ATOM     46  O5  SUS B   3      60.544  -6.022  20.2760  0.00  0.00     0.000 O
BRANCH 42 49
ATOM     47   N  SUS B   3      63.795  -8.013  19.7440  0.00  0.00     0.000 N
ATOM     49  HD  SUS B   3      64.525  -7.974  20.2090  0.00  0.00     0.000 HD
ATOM     49   S  SUS B   3      64.195  -8.184  18.2020  0.00  0.00     0.000 S
ATOM     50   O  SUS B   3      64.712  -6.971  17.7040  0.00  0.00     0.000 OA
ATOM     51   O  SUS B   3      65.333  -9.212  18.4250  0.00  0.00     0.000 OA
ATOM     52   O  SUS B   3      63.122  -8.772  17.5040  0.00  0.00     0.000 OA
ENDBRANCH 42 49
BRANCH 43 53
ATOM     53   O  SUS B   3      64.631  -5.916  21.2180  0.00  0.00     0.000 O
ATOM     54   S  SUS B   3      65.632  -6.590  22.3340  0.00  0.00     0.000 S
ATOM     55   O  SUS B   3      65.767  -8.002  22.0030  0.00  0.00     0.000 OA
ATOM     56   O  SUS B   3      66.866  -5.837  22.2010  0.00  0.00     0.000 OA
ATOM     57   O  SUS B   3      64.982  -6.410  23.6360  0.00  0.00     0.000 OA
ENDBRANCH 43 53
BRANCH 45 58
ATOM     58   C  SUS B   3      60.001  -4.245  21.8330  0.00  0.00     0.000 C
ATOM     59   S  SUS B   3      59.286  -1.958  20.9140  0.00  0.00     0.000 S
ATOM     60   O  SUS B   3      60.000  -3.356  20.7030  0.00  0.00     0.000 O
ATOM     61   O  SUS B   3      60.233  -1.158  21.6670  0.00  0.00     0.000 OA
ATOM     62   O  SUS B   3      59.149  -1.520  19.5510  0.00  0.00     0.000 OA
ATOM     63   O  SUS B   3      58.069  -2.250  21.5840  0.00  0.00     0.000 OA
ENDBRANCH 45 58
BRANCH 41 64
ATOM     64  O4  IDS B   4      60.922  -8.318  20.6370  0.00  0.00     0.000 O
BRANCH 64 68
ATOM     65  C1  IDS B   4      59.447 -11.582  21.3020  0.00  0.00     0.000 C
ATOM     66  C2  IDS B   4      60.477 -11.414  20.1780  0.00  0.00     0.000 C
ATOM     67  C3  IDS B   4      60.233 -10.216  19.2770  0.00  0.00     0.000 C
ATOM     68  C4  IDS B   4      59.787  -8.984  20.0420  0.00  0.00     0.000 C
ATOM     69  C5  IDS B   4      58.727  -9.415  21.0640  0.00  0.00     0.000 C
ATOM     70  O5  IDS B   4      59.307 -10.347  21.9800  0.00  0.00     0.000 O
ATOM     71   O  IDS B   4      59.237 -10.586  18.3460  0.00  0.00     0.000 O
ATOM     73  HD  IDS B   4      59.852 -10.727  18.9390  0.00  0.00     0.000 HD
BRANCH 66 73
ATOM     73   O  IDS B   4      61.800 -11.191  20.7770  0.00  0.00     0.000 O
ATOM     74   S  IDS B   4      63.009 -12.169  20.3320  0.00  0.00     0.000 S
ATOM     75   O  IDS B   4      62.570 -13.519  20.6150  0.00  0.00     0.000 OA
ATOM     76   O  IDS B   4      64.085 -11.713  21.1770  0.00  0.00     0.000 OA
ATOM     77   O  IDS B   4      63.211 -11.917  18.9250  0.00  0.00     0.000 OA
ENDBRANCH 66 73
BRANCH 69 78
ATOM     78   C  IDS B   4      58.019  -8.261  21.7620  0.00  0.00     0.000 C
ATOM     79   O  IDS B   4      57.787  -8.352  22.9660  0.00  0.00     0.000 OA
ATOM     80   O  IDS B   4      57.794  -7.222  21.1150  0.00  0.00     0.000 OA
ENDBRANCH 69 78
BRANCH 65 81
ATOM     81  O4  SGN B   5      58.311 -12.138  20.7960  0.00  0.00     0.000 O
BRANCH 81 85
ATOM     82  C1  SGN B   5      54.944 -14.446  21.7830  0.00  0.00     0.000 C
ATOM     83  C2  SGN B   5      54.961 -12.990  22.2740  0.00  0.00     0.000 C
ATOM     84  C3  SGN B   5      55.985 -12.186  21.4620  0.00  0.00     0.000 C
ATOM     85  C4  SGN B   5      57.341 -12.863  21.5550  0.00  0.00     0.000 C
ATOM     86  C5  SGN B   5      57.204 -14.286  21.0200  0.00  0.00     0.000 C
ATOM     87  O5  SGN B   5      56.248 -14.995  21.8310  0.00  0.00     0.000 O
ATOM     88   O  SGN B   5      56.047 -10.862  21.9450  0.00  0.00     0.000 O
ATOM     90  HD  SGN B   5      55.629 -11.117  21.2300  0.00  0.00     0.000 HD
BRANCH 83 92
ATOM     90   N  SGN B   5      54.036 -13.340  23.3700  0.00  0.00     0.000 N
ATOM     92  HD  SGN B   5      54.470 -13.518  24.0980  0.00  0.00     0.000 HD
ATOM     92   S  SGN B   5      52.728 -12.443  23.5640  0.00  0.00     0.000 S
ATOM     93   O  SGN B   5      52.061 -13.027  24.6880  0.00  0.00     0.000 OA
ATOM     94   O  SGN B   5      53.188 -11.098  23.6280  0.00  0.00     0.000 OA
ATOM     95   O  SGN B   5      51.960 -12.596  22.2690  0.00  0.00     0.000 OA
ENDBRANCH 83 92
BRANCH 86 96
ATOM     96   C  SGN B   5      58.492 -15.084  21.0410  0.00  0.00     0.000 C
ATOM     97   O  SGN B   5      58.866 -15.397  22.3840  0.00  0.00     0.000 O
ATOM     98   S  SGN B   5      59.202 -16.937  22.6830  0.00  0.00     0.000 S
ATOM     99   O  SGN B   5      59.729 -16.893  24.0260  0.00  0.00     0.000 OA
ATOM    100   O  SGN B   5      57.996 -17.671  22.5440  0.00  0.00     0.000 OA
ATOM    101   O  SGN B   5      60.179 -17.283  21.7030  0.00  0.00     0.000 OA
ENDBRANCH 86 96
BRANCH 82 102
ATOM    102  O4  IDS B   6      54.423 -14.571  20.5300  0.00  0.00     0.000 O
BRANCH 102 106
ATOM    103  C1  IDS B   6      52.099 -15.760  17.9910  0.00  0.00     0.000 C
ATOM    104  C2  IDS B   6      51.584 -15.132  19.2950  0.00  0.00     0.000 C
ATOM    105  C3  IDS B   6      52.239 -15.649  20.5610  0.00  0.00     0.000 C
ATOM    106  C4  IDS B   6      53.738 -15.844  20.4090  0.00  0.00     0.000 C
ATOM    107  C5  IDS B   6      54.040 -16.498  19.0570  0.00  0.00     0.000 C
ATOM    108  O5  IDS B   6      53.514 -15.738  17.9680  0.00  0.00     0.000 O
ATOM    109   O  IDS B   6      51.607 -16.867  20.9190  0.00  0.00     0.000 O
ATOM    111  HD  IDS B   6      51.267 -17.152  20.1750  0.00  0.00     0.000 HD
BRANCH 104 111
ATOM    111   O  IDS B   6      51.865 -13.688  19.2750  0.00  0.00     0.000 O
ATOM    112   S  IDS B   6      50.648 -12.688  18.9890  0.00  0.00     0.000 S
ATOM    113   O  IDS B   6      50.139 -13.093  17.6870  0.00  0.00     0.000 OA
ATOM    114   O  IDS B   6      49.682 -12.805  20.0870  0.00  0.00     0.000 OA
ATOM    115   O  IDS B   6      51.373 -11.436  18.9720  0.00  0.00     0.000 OA
ENDBRANCH 104 111
BRANCH 107 116
ATOM    116   C  IDS B   6      55.546 -16.655  18.8990  0.00  0.00     0.000 C
ATOM    117   O  IDS B   6      56.095 -17.414  19.6560  0.00  0.00     0.000 OA
ATOM    118   O  IDS B   6      56.164 -16.032  18.0500  0.00  0.00     0.000 OA
ENDBRANCH 107 116
BRANCH 103 119
ATOM    119  O4  SGN B   7      51.410 -16.926  17.9020  0.00  0.00     0.000 O
BRANCH 119 123
ATOM    120  C1  SGN B   7      49.630 -19.152  14.8420  0.00  0.00     0.000 C
ATOM    121  C2  SGN B   7      51.132 -19.372  15.1020  0.00  0.00     0.000 C
ATOM    122  C3  SGN B   7      51.528 -18.809  16.4730  0.00  0.00     0.000 C
ATOM    123  C4  SGN B   7      51.090 -17.358  16.5790  0.00  0.00     0.000 C
ATOM    124  C5  SGN B   7      49.583 -17.244  16.2960  0.00  0.00     0.000 C
ATOM    125  O5  SGN B   7      49.257 -17.784  14.9960  0.00  0.00     0.000 O
ATOM    126   O  SGN B   7      52.944 -18.941  16.6400  0.00  0.00     0.000 O
ATOM    128  HD  SGN B   7      52.237 -19.135  16.1800  0.00  0.00     0.000 HD
BRANCH 121 130
ATOM    128   N  SGN B   7      51.453 -19.977  13.8070  0.00  0.00     0.000 N
ATOM    130  HD  SGN B   7      52.298 -19.851  13.9490  0.00  0.00     0.000 HD
ATOM    130   S  SGN B   7      52.110 -21.442  13.6830  0.00  0.00     0.000 S
ATOM    131   O  SGN B   7      51.295 -22.285  14.4880  0.00  0.00     0.000 OA
ATOM    132   O  SGN B   7      52.301 -21.730  12.3070  0.00  0.00     0.000 OA
ATOM    133   O  SGN B   7      53.549 -21.152  14.2300  0.00  0.00     0.000 OA
ENDBRANCH 121 130
BRANCH 124 134
ATOM    134   C  SGN B   7      49.076 -15.833  16.2630  0.00  0.00     0.000 C
ATOM    135   O  SGN B   7      48.019 -15.749  15.2930  0.00  0.00     0.000 O
ATOM    136   S  SGN B   7      47.248 -14.382  15.2150  0.00  0.00     0.000 S
ATOM    137   O  SGN B   7      46.319 -14.502  14.1160  0.00  0.00     0.000 OA
ATOM    138   O  SGN B   7      48.268 -13.385  14.9860  0.00  0.00     0.000 OA
ATOM    139   O  SGN B   7      46.613 -14.306  16.5210  0.00  0.00     0.000 OA
ENDBRANCH 124 134
BRANCH 120 140
ATOM    140  O4  IDS B   8      48.594 -19.723  15.4670  0.00  0.00     0.000 O
BRANCH 140 144
ATOM    141  C1  IDS B   8      46.664 -21.020  18.2150  0.00  0.00     0.000 C
ATOM    142  C2  IDS B   8      48.210 -21.188  18.1740  0.00  0.00     0.000 C
ATOM    143  C3  IDS B   8      48.724 -21.721  16.8240  0.00  0.00     0.000 C
ATOM    144  C4  IDS B   8      48.044 -21.035  15.6400  0.00  0.00     0.000 C
ATOM    145  C5  IDS B   8      46.529 -20.943  15.8800  0.00  0.00     0.000 C
ATOM    146  O5  IDS B   8      46.228 -20.260  17.0940  0.00  0.00     0.000 O
BRANCH 142 147
ATOM    147   O  IDS B   8      48.857 -19.869  18.4010  0.00  0.00     0.000 O
ATOM    148   S  IDS B   8      49.389 -19.441  19.8730  0.00  0.00     0.000 S
ATOM    149   O  IDS B   8      48.776 -20.329  20.8350  0.00  0.00     0.000 OA
ATOM    150   O  IDS B   8      50.832 -19.582  19.8190  0.00  0.00     0.000 OA
ATOM    151   O  IDS B   8      48.956 -18.068  20.0500  0.00  0.00     0.000 OA
ENDBRANCH 142 147
BRANCH 145 152
ATOM    152   C  IDS B   8      45.810 -20.183  14.7840  0.00  0.00     0.000 C
ATOM    153   O  IDS B   8      45.225 -20.802  13.9020  0.00  0.00     0.000 OA
ATOM    154   O  IDS B   8      45.803 -18.965  14.8020  0.00  0.00     0.000 OA
ENDBRANCH 145 152
ENDBRANCH 140 144
ENDBRANCH 120 140
ENDBRANCH 119 123
ENDBRANCH 103 119
ENDBRANCH 102 106
ENDBRANCH 82 102
ENDBRANCH 81 85
ENDBRANCH 65 81
ENDBRANCH 64 68
ENDBRANCH 41 64
ENDBRANCH 40 44
ENDBRANCH 24 40
ENDBRANCH 23 27
ENDBRANCH 1 23
TORSDOF 31
ENDMDL
MODEL 69
REMARK VINA RESULT:      -5.8     15.428     22.415
ROOT
ATOM      1  C1  SGN B   1      60.252  10.840  18.2650  0.00  0.00     0.000 C
ATOM      2  C2  SGN B   1      60.594  11.577  16.9600  0.00  0.00     0.000 C
ATOM      3  C3  SGN B   1      62.103  11.822  16.8540  0.00  0.00     0.000 C
ATOM      4  C4  SGN B   1      62.601  12.576  18.0830  0.00  0.00     0.000 C
ATOM      5  C5  SGN B   1      62.105  11.865  19.3400  0.00  0.00     0.000 C
ATOM      6  O5  SGN B   1      60.671  11.735  19.2860  0.00  0.00     0.000 O
ATOM      7   O  SGN B   1      62.411  12.544  15.6680  0.00  0.00     0.000 O
ATOM      9  HD  SGN B   1      61.897  13.102  16.0850  0.00  0.00     0.000 HD
ATOM      9   O  SGN B   1      64.016  12.614  18.0700  0.00  0.00     0.000 O
ATOM     11  HD  SGN B   1      63.502  13.172  18.4880  0.00  0.00     0.000 HD
ENDROOT
BRANCH 2 13
ATOM     11   N  SGN B   1      59.280  11.746  16.3110  0.00  0.00     0.000 N
ATOM     13  HD  SGN B   1      59.534  10.968  16.5940  0.00  0.00     0.000 HD
ATOM     13   S  SGN B   1      58.561  10.555  15.5020  0.00  0.00     0.000 S
ATOM     14   O  SGN B   1      59.342   9.382  15.5700  0.00  0.00     0.000 OA
ATOM     15   O  SGN B   1      57.192  10.508  15.8920  0.00  0.00     0.000 OA
ATOM     16   O  SGN B   1      58.612  11.190  14.0780  0.00  0.00     0.000 OA
ENDBRANCH 2 13
BRANCH 5 17
ATOM     17   C  SGN B   1      62.443  12.580  20.6250  0.00  0.00     0.000 C
ATOM     18   O  SGN B   1      62.341  11.688  21.7530  0.00  0.00     0.000 O
ATOM     19   S  SGN B   1      61.582  12.265  23.0360  0.00  0.00     0.000 S
ATOM     20   O  SGN B   1      61.821  11.292  24.0820  0.00  0.00     0.000 OA
ATOM     21   O  SGN B   1      62.216  13.540  23.2780  0.00  0.00     0.000 OA
ATOM     22   O  SGN B   1      60.194  12.364  22.6420  0.00  0.00     0.000 OA
ENDBRANCH 5 17
BRANCH 1 23
ATOM     23  O4  IDS B   2      60.116   9.575  18.7550  0.00  0.00     0.000 O
BRANCH 23 27
ATOM     24  C1  IDS B   2      58.687   6.372  20.9750  0.00  0.00     0.000 C
ATOM     25  C2  IDS B   2      58.053   7.743  21.2980  0.00  0.00     0.000 C
ATOM     26  C3  IDS B   2      58.424   8.778  20.2400  0.00  0.00     0.000 C
ATOM     27  C4  IDS B   2      59.925   8.917  20.0250  0.00  0.00     0.000 C
ATOM     28  C5  IDS B   2      60.603   7.536  20.1360  0.00  0.00     0.000 C
ATOM     29  O5  IDS B   2      59.663   6.491  19.9310  0.00  0.00     0.000 O
ATOM     30   O  IDS B   2      57.928  10.051  20.6360  0.00  0.00     0.000 O
ATOM     32  HD  IDS B   2      58.421  10.440  21.2330  0.00  0.00     0.000 HD
BRANCH 25 32
ATOM     32   O  IDS B   2      56.572   7.676  21.3600  0.00  0.00     0.000 O
ATOM     33   S  IDS B   2      55.740   8.048  22.7350  0.00  0.00     0.000 S
ATOM     34   O  IDS B   2      54.361   7.656  22.4920  0.00  0.00     0.000 OA
ATOM     35   O  IDS B   2      56.310   7.319  23.8590  0.00  0.00     0.000 OA
ATOM     36   O  IDS B   2      55.861   9.479  22.8890  0.00  0.00     0.000 OA
ENDBRANCH 25 32
BRANCH 28 37
ATOM     37   C  IDS B   2      61.832   7.263  19.2450  0.00  0.00     0.000 C
ATOM     38   O  IDS B   2      62.667   6.583  19.7960  0.00  0.00     0.000 OA
ATOM     39   O  IDS B   2      61.992   7.614  18.0510  0.00  0.00     0.000 OA
ENDBRANCH 28 37
BRANCH 24 40
ATOM     40  O4  SUS B   3      58.531   5.340  21.8310  0.00  0.00     0.000 O
BRANCH 40 44
ATOM     41  C1  SUS B   3      57.748   1.298  21.0600  0.00  0.00     0.000 C
ATOM     42  C2  SUS B   3      59.215   1.763  20.9630  0.00  0.00     0.000 C
ATOM     43  C3  SUS B   3      59.376   3.079  21.7210  0.00  0.00     0.000 C
ATOM     44  C4  SUS B   3      58.373   4.085  21.1800  0.00  0.00     0.000 C
ATOM     45  C5  SUS B   3      56.973   3.555  21.4160  0.00  0.00     0.000 C
ATOM     46  O5  SUS B   3      56.826   2.325  20.6780  0.00  0.00     0.000 O
BRANCH 42 49
ATOM     47   N  SUS B   3      59.441   0.621  20.0610  0.00  0.00     0.000 N
ATOM     49  HD  SUS B   3      58.868  -0.027  20.1050  0.00  0.00     0.000 HD
ATOM     49   S  SUS B   3      60.909  -0.002  20.2080  0.00  0.00     0.000 S
ATOM     50   O  SUS B   3      61.128  -0.402  21.5420  0.00  0.00     0.000 OA
ATOM     51   O  SUS B   3      60.673  -1.236  19.3000  0.00  0.00     0.000 OA
ATOM     52   O  SUS B   3      61.848   0.872  19.6260  0.00  0.00     0.000 OA
ENDBRANCH 42 49
BRANCH 43 53
ATOM     53   O  SUS B   3      60.750   3.569  21.4930  0.00  0.00     0.000 O
ATOM     54   S  SUS B   3      61.744   3.646  22.8000  0.00  0.00     0.000 S
ATOM     55   O  SUS B   3      62.077   2.279  23.1760  0.00  0.00     0.000 OA
ATOM     56   O  SUS B   3      62.881   4.418  22.3320  0.00  0.00     0.000 OA
ATOM     57   O  SUS B   3      60.986   4.318  23.8590  0.00  0.00     0.000 OA
ENDBRANCH 43 53
BRANCH 45 58
ATOM     58   C  SUS B   3      55.913   4.549  20.9930  0.00  0.00     0.000 C
ATOM     59   S  SUS B   3      54.587   5.361  18.9510  0.00  0.00     0.000 S
ATOM     60   O  SUS B   3      55.529   4.286  19.6330  0.00  0.00     0.000 O
ATOM     61   O  SUS B   3      55.462   6.461  18.5950  0.00  0.00     0.000 OA
ATOM     62   O  SUS B   3      54.126   4.624  17.8050  0.00  0.00     0.000 OA
ATOM     63   O  SUS B   3      53.593   5.663  19.9190  0.00  0.00     0.000 OA
ENDBRANCH 45 58
BRANCH 41 64
ATOM     64  O4  IDS B   4      57.440   0.681  22.2480  0.00  0.00     0.000 O
BRANCH 64 68
ATOM     65  C1  IDS B   4      55.841  -2.198  23.8070  0.00  0.00     0.000 C
ATOM     66  C2  IDS B   4      56.197  -2.226  22.3150  0.00  0.00     0.000 C
ATOM     67  C3  IDS B   4      55.797  -0.975  21.5510  0.00  0.00     0.000 C
ATOM     68  C4  IDS B   4      56.049   0.300  22.3330  0.00  0.00     0.000 C
ATOM     69  C5  IDS B   4      55.563   0.081  23.7720  0.00  0.00     0.000 C
ATOM     70  O5  IDS B   4      56.310  -0.984  24.3650  0.00  0.00     0.000 O
ATOM     71   O  IDS B   4      54.420  -1.088  21.2530  0.00  0.00     0.000 O
ATOM     73  HD  IDS B   4      55.203  -1.379  21.4830  0.00  0.00     0.000 HD
BRANCH 66 73
ATOM     73   O  IDS B   4      57.657  -2.318  22.1780  0.00  0.00     0.000 O
ATOM     74   S  IDS B   4      58.274  -3.662  21.5230  0.00  0.00     0.000 S
ATOM     75   O  IDS B   4      57.790  -4.767  22.3230  0.00  0.00     0.000 OA
ATOM     76   O  IDS B   4      59.691  -3.427  21.6430  0.00  0.00     0.000 OA
ATOM     77   O  IDS B   4      57.789  -3.687  20.1630  0.00  0.00     0.000 OA
ENDBRANCH 66 73
BRANCH 69 78
ATOM     78   C  IDS B   4      55.545   1.340  24.6290  0.00  0.00     0.000 C
ATOM     79   O  IDS B   4      54.735   1.414  25.5520  0.00  0.00     0.000 OA
ATOM     80   O  IDS B   4      56.418   2.205  24.4350  0.00  0.00     0.000 OA
ENDBRANCH 69 78
BRANCH 65 81
ATOM     81  O4  SGN B   5      54.517  -2.473  23.9620  0.00  0.00     0.000 O
BRANCH 81 85
ATOM     82  C1  SGN B   5      51.748  -3.750  26.8500  0.00  0.00     0.000 C
ATOM     83  C2  SGN B   5      51.788  -2.247  26.5390  0.00  0.00     0.000 C
ATOM     84  C3  SGN B   5      52.479  -2.021  25.1870  0.00  0.00     0.000 C
ATOM     85  C4  SGN B   5      53.856  -2.662  25.2150  0.00  0.00     0.000 C
ATOM     86  C5  SGN B   5      53.686  -4.150  25.5090  0.00  0.00     0.000 C
ATOM     87  O5  SGN B   5      53.051  -4.298  26.7930  0.00  0.00     0.000 O
ATOM     88   O  SGN B   5      52.571  -0.638  24.9210  0.00  0.00     0.000 O
ATOM     90  HD  SGN B   5      51.991  -1.179  24.5730  0.00  0.00     0.000 HD
BRANCH 83 92
ATOM     90   N  SGN B   5      50.705  -2.330  27.5380  0.00  0.00     0.000 N
ATOM     92  HD  SGN B   5      50.927  -2.848  28.1950  0.00  0.00     0.000 HD
ATOM     92   S  SGN B   5      49.969  -0.976  27.9620  0.00  0.00     0.000 S
ATOM     93   O  SGN B   5      48.996  -1.390  28.9290  0.00  0.00     0.000 OA
ATOM     94   O  SGN B   5      51.004  -0.074  28.3330  0.00  0.00     0.000 OA
ATOM     95   O  SGN B   5      49.353  -0.456  26.6820  0.00  0.00     0.000 OA
ENDBRANCH 83 92
BRANCH 86 96
ATOM     96   C  SGN B   5      54.986  -4.926  25.5550  0.00  0.00     0.000 C
ATOM     97   O  SGN B   5      55.327  -5.253  26.9040  0.00  0.00     0.000 O
ATOM     98   S  SGN B   5      55.680  -6.791  27.1900  0.00  0.00     0.000 S
ATOM     99   O  SGN B   5      56.168  -6.758  28.5480  0.00  0.00     0.000 OA
ATOM    100   O  SGN B   5      54.491  -7.543  27.0060  0.00  0.00     0.000 OA
ATOM    101   O  SGN B   5      56.691  -7.107  26.2340  0.00  0.00     0.000 OA
ENDBRANCH 86 96
BRANCH 82 102
ATOM    102  O4  IDS B   6      50.909  -4.435  26.0230  0.00  0.00     0.000 O
BRANCH 102 106
ATOM    103  C1  IDS B   6      48.111  -6.747  25.7360  0.00  0.00     0.000 C
ATOM    104  C2  IDS B   6      48.300  -5.896  27.0010  0.00  0.00     0.000 C
ATOM    105  C3  IDS B   6      49.708  -5.887  27.5650  0.00  0.00     0.000 C
ATOM    106  C4  IDS B   6      50.772  -5.803  26.4850  0.00  0.00     0.000 C
ATOM    107  C5  IDS B   6      50.408  -6.736  25.3270  0.00  0.00     0.000 C
ATOM    108  O5  IDS B   6      49.117  -6.441  24.7900  0.00  0.00     0.000 O
ATOM    109   O  IDS B   6      49.877  -7.057  28.3490  0.00  0.00     0.000 O
ATOM    111  HD  IDS B   6      49.283  -7.605  28.0360  0.00  0.00     0.000 HD
BRANCH 104 111
ATOM    111   O  IDS B   6      48.000  -4.492  26.6830  0.00  0.00     0.000 O
ATOM    112   S  IDS B   6      46.666  -3.850  27.2920  0.00  0.00     0.000 S
ATOM    113   O  IDS B   6      45.592  -4.693  26.7900  0.00  0.00     0.000 OA
ATOM    114   O  IDS B   6      46.790  -3.821  28.7540  0.00  0.00     0.000 OA
ATOM    115   O  IDS B   6      46.729  -2.545  26.6700  0.00  0.00     0.000 OA
ENDBRANCH 104 111
BRANCH 107 116
ATOM    116   C  IDS B   6      51.462  -6.616  24.2330  0.00  0.00     0.000 C
ATOM    117   O  IDS B   6      51.203  -5.890  23.3080  0.00  0.00     0.000 OA
ATOM    118   O  IDS B   6      52.512  -7.237  24.2930  0.00  0.00     0.000 OA
ENDBRANCH 107 116
BRANCH 103 119
ATOM    119  O4  SGN B   7      47.954  -8.007  26.2170  0.00  0.00     0.000 O
BRANCH 119 123
ATOM    120  C1  SGN B   7      45.908 -11.454  25.0230  0.00  0.00     0.000 C
ATOM    121  C2  SGN B   7      47.324 -11.233  24.4580  0.00  0.00     0.000 C
ATOM    122  C3  SGN B   7      48.073 -10.178  25.2820  0.00  0.00     0.000 C
ATOM    123  C4  SGN B   7      47.241  -8.909  25.3700  0.00  0.00     0.000 C
ATOM    124  C5  SGN B   7      45.850  -9.236  25.9370  0.00  0.00     0.000 C
ATOM    125  O5  SGN B   7      45.181 -10.232  25.1310  0.00  0.00     0.000 O
ATOM    126   O  SGN B   7      49.344  -9.927  24.6720  0.00  0.00     0.000 O
ATOM    128  HD  SGN B   7      48.630 -10.415  24.7090  0.00  0.00     0.000 HD
BRANCH 121 130
ATOM    128   N  SGN B   7      47.042 -12.461  23.7110  0.00  0.00     0.000 N
ATOM    130  HD  SGN B   7      47.261 -12.069  22.9700  0.00  0.00     0.000 HD
ATOM    130   S  SGN B   7      48.212 -13.380  23.0950  0.00  0.00     0.000 S
ATOM    131   O  SGN B   7      49.120 -13.596  24.1690  0.00  0.00     0.000 OA
ATOM    132   O  SGN B   7      47.612 -14.481  22.4300  0.00  0.00     0.000 OA
ATOM    133   O  SGN B   7      48.721 -12.451  21.9410  0.00  0.00     0.000 OA
ENDBRANCH 121 130
BRANCH 124 134
ATOM    134   C  SGN B   7      44.912  -8.065  25.9560  0.00  0.00     0.000 C
ATOM    135   O  SGN B   7      43.742  -8.403  25.1900  0.00  0.00     0.000 O
ATOM    136   S  SGN B   7      42.566  -7.362  25.2130  0.00  0.00     0.000 S
ATOM    137   O  SGN B   7      41.563  -7.863  24.3040  0.00  0.00     0.000 OA
ATOM    138   O  SGN B   7      43.154  -6.117  24.7750  0.00  0.00     0.000 OA
ATOM    139   O  SGN B   7      42.160  -7.379  26.6100  0.00  0.00     0.000 OA
ENDBRANCH 124 134
BRANCH 120 140
ATOM    140  O4  IDS B   8      45.566 -12.005  26.1930  0.00  0.00     0.000 O
BRANCH 140 144
ATOM    141  C1  IDS B   8      44.096 -13.351  29.1910  0.00  0.00     0.000 C
ATOM    142  C2  IDS B   8      44.768 -11.948  29.1900  0.00  0.00     0.000 C
ATOM    143  C3  IDS B   8      46.162 -11.947  28.5370  0.00  0.00     0.000 C
ATOM    144  C4  IDS B   8      46.188 -12.758  27.2420  0.00  0.00     0.000 C
ATOM    145  C5  IDS B   8      45.456 -14.094  27.4380  0.00  0.00     0.000 C
ATOM    146  O5  IDS B   8      44.115 -13.900  27.8790  0.00  0.00     0.000 O
BRANCH 142 147
ATOM    147   O  IDS B   8      43.922 -10.995  28.4250  0.00  0.00     0.000 O
ATOM    148   S  IDS B   8      42.879 -10.010  29.1820  0.00  0.00     0.000 S
ATOM    149   O  IDS B   8      42.687 -10.520  30.5210  0.00  0.00     0.000 OA
ATOM    150   O  IDS B   8      43.502  -8.699  29.1640  0.00  0.00     0.000 OA
ATOM    151   O  IDS B   8      41.660 -10.071  28.3990  0.00  0.00     0.000 OA
ENDBRANCH 142 147
BRANCH 145 152
ATOM    152   C  IDS B   8      45.362 -14.901  26.1590  0.00  0.00     0.000 C
ATOM    153   O  IDS B   8      44.275 -15.336  25.7980  0.00  0.00     0.000 OA
ATOM    154   O  IDS B   8      46.364 -15.092  25.4930  0.00  0.00     0.000 OA
ENDBRANCH 145 152
ENDBRANCH 140 144
ENDBRANCH 120 140
ENDBRANCH 119 123
ENDBRANCH 103 119
ENDBRANCH 102 106
ENDBRANCH 82 102
ENDBRANCH 81 85
ENDBRANCH 65 81
ENDBRANCH 64 68
ENDBRANCH 41 64
ENDBRANCH 40 44
ENDBRANCH 24 40
ENDBRANCH 23 27
ENDBRANCH 1 23
TORSDOF 31
ENDMDL
MODEL 70
REMARK VINA RESULT:      -5.7     38.600     44.586
ROOT
ATOM      1  C1  SGN B   1       5.175  12.639   1.7920  0.00  0.00     0.000 C
ATOM      2  C2  SGN B   1       4.708  13.478   0.5900  0.00  0.00     0.000 C
ATOM      3  C3  SGN B   1       4.683  12.630  -0.6860  0.00  0.00     0.000 C
ATOM      4  C4  SGN B   1       6.051  12.001  -0.9270  0.00  0.00     0.000 C
ATOM      5  C5  SGN B   1       6.513  11.306   0.3520  0.00  0.00     0.000 C
ATOM      6  O5  SGN B   1       6.496  12.246   1.4440  0.00  0.00     0.000 O
ATOM      7   O  SGN B   1       4.293  13.420  -1.8030  0.00  0.00     0.000 O
ATOM      9  HD  SGN B   1       5.017  13.821  -1.5490  0.00  0.00     0.000 HD
ATOM      9   O  SGN B   1       5.959  11.065  -1.9850  0.00  0.00     0.000 O
ATOM     11  HD  SGN B   1       6.683  11.465  -1.7300  0.00  0.00     0.000 HD
ENDROOT
BRANCH 2 13
ATOM     11   N  SGN B   1       4.498  14.766   1.2770  0.00  0.00     0.000 N
ATOM     13  HD  SGN B   1       4.067  14.059   1.5290  0.00  0.00     0.000 HD
ATOM     13   S  SGN B   1       3.108  15.140   1.9970  0.00  0.00     0.000 S
ATOM     14   O  SGN B   1       2.207  14.059   1.9040  0.00  0.00     0.000 OA
ATOM     15   O  SGN B   1       3.399  15.702   3.2730  0.00  0.00     0.000 OA
ATOM     16   O  SGN B   1       2.683  16.316   1.0630  0.00  0.00     0.000 OA
ENDBRANCH 2 13
BRANCH 5 17
ATOM     17   C  SGN B   1       7.908  10.736   0.2720  0.00  0.00     0.000 C
ATOM     18   O  SGN B   1       7.943   9.389   0.7820  0.00  0.00     0.000 O
ATOM     19   S  SGN B   1       9.153   9.043   1.7690  0.00  0.00     0.000 S
ATOM     20   O  SGN B   1       9.098   7.607   1.9420  0.00  0.00     0.000 OA
ATOM     21   O  SGN B   1      10.327   9.495   1.0590  0.00  0.00     0.000 OA
ATOM     22   O  SGN B   1       8.876   9.785   2.9790  0.00  0.00     0.000 OA
ENDBRANCH 5 17
BRANCH 1 23
ATOM     23  O4  IDS B   2       4.675  11.839   2.7760  0.00  0.00     0.000 O
BRANCH 23 27
ATOM     24  C1  IDS B   2       2.160   8.876   4.2340  0.00  0.00     0.000 C
ATOM     25  C2  IDS B   2       1.701   9.555   2.9250  0.00  0.00     0.000 C
ATOM     26  C3  IDS B   2       2.823  10.400   2.3260  0.00  0.00     0.000 C
ATOM     27  C4  IDS B   2       3.393  11.427   3.2950  0.00  0.00     0.000 C
ATOM     28  C5  IDS B   2       3.441  10.838   4.7190  0.00  0.00     0.000 C
ATOM     29  O5  IDS B   2       3.408   9.419   4.6830  0.00  0.00     0.000 O
ATOM     30   O  IDS B   2       2.325  11.106   1.1960  0.00  0.00     0.000 O
ATOM     32  HD  IDS B   2       1.867  11.810   1.4070  0.00  0.00     0.000 HD
BRANCH 25 32
ATOM     32   O  IDS B   2       1.285   8.570   1.8970  0.00  0.00     0.000 O
ATOM     33   S  IDS B   2      -0.239   8.563   1.2630  0.00  0.00     0.000 S
ATOM     34   O  IDS B   2      -0.344   7.345   0.4760  0.00  0.00     0.000 OA
ATOM     35   O  IDS B   2      -1.214   8.585   2.3440  0.00  0.00     0.000 OA
ATOM     36   O  IDS B   2      -0.318   9.738   0.4260  0.00  0.00     0.000 OA
ENDBRANCH 25 32
BRANCH 28 37
ATOM     37   C  IDS B   2       4.600  11.273   5.6400  0.00  0.00     0.000 C
ATOM     38   O  IDS B   2       5.558  10.541   5.5630  0.00  0.00     0.000 OA
ATOM     39   O  IDS B   2       4.645  12.298   6.3650  0.00  0.00     0.000 OA
ENDBRANCH 28 37
BRANCH 24 40
ATOM     40  O4  SUS B   3       1.286   8.139   4.9510  0.00  0.00     0.000 O
BRANCH 40 44
ATOM     41  C1  SUS B   3       2.242   4.499   6.7930  0.00  0.00     0.000 C
ATOM     42  C2  SUS B   3       1.674   5.617   7.6910  0.00  0.00     0.000 C
ATOM     43  C3  SUS B   3       0.954   6.644   6.8210  0.00  0.00     0.000 C
ATOM     44  C4  SUS B   3       1.912   7.140   5.7500  0.00  0.00     0.000 C
ATOM     45  C5  SUS B   3       2.324   5.969   4.8810  0.00  0.00     0.000 C
ATOM     46  O5  SUS B   3       3.022   5.017   5.7100  0.00  0.00     0.000 O
BRANCH 42 49
ATOM     47   N  SUS B   3       2.451   5.490   8.9360  0.00  0.00     0.000 N
ATOM     49  HD  SUS B   3       3.131   4.953   8.9150  0.00  0.00     0.000 HD
ATOM     49   S  SUS B   3       1.542   5.093  10.1940  0.00  0.00     0.000 S
ATOM     50   O  SUS B   3       0.864   3.884   9.9340  0.00  0.00     0.000 OA
ATOM     51   O  SUS B   3       2.706   4.862  11.1910  0.00  0.00     0.000 OA
ATOM     52   O  SUS B   3       0.768   6.205  10.5810  0.00  0.00     0.000 OA
ENDBRANCH 42 49
BRANCH 43 53
ATOM     53   O  SUS B   3       0.545   7.767   7.6880  0.00  0.00     0.000 O
ATOM     54   S  SUS B   3      -1.066   8.069   7.8140  0.00  0.00     0.000 S
ATOM     55   O  SUS B   3      -1.652   6.988   8.5950  0.00  0.00     0.000 OA
ATOM     56   O  SUS B   3      -1.131   9.365   8.4660  0.00  0.00     0.000 OA
ATOM     57   O  SUS B   3      -1.594   8.083   6.4470  0.00  0.00     0.000 OA
ENDBRANCH 43 53
BRANCH 45 58
ATOM     58   C  SUS B   3       3.202   6.401   3.7270  0.00  0.00     0.000 C
ATOM     59   S  SUS B   3       5.652   6.531   2.9750  0.00  0.00     0.000 S
ATOM     60   O  SUS B   3       4.554   5.978   3.9730  0.00  0.00     0.000 O
ATOM     61   O  SUS B   3       5.898   7.896   3.3990  0.00  0.00     0.000 OA
ATOM     62   O  SUS B   3       6.750   5.650   3.2710  0.00  0.00     0.000 OA
ATOM     63   O  SUS B   3       5.092   6.389   1.6770  0.00  0.00     0.000 OA
ENDBRANCH 45 58
BRANCH 41 64
ATOM     64  O4  IDS B   4       1.309   3.564   6.4170  0.00  0.00     0.000 O
BRANCH 64 68
ATOM     65  C1  IDS B   4      -0.156   0.484   5.1350  0.00  0.00     0.000 C
ATOM     66  C2  IDS B   4      -0.093   0.739   6.6460  0.00  0.00     0.000 C
ATOM     67  C3  IDS B   4       1.253   1.241   7.1430  0.00  0.00     0.000 C
ATOM     68  C4  IDS B   4       1.885   2.256   6.2090  0.00  0.00     0.000 C
ATOM     69  C5  IDS B   4       1.731   1.742   4.7710  0.00  0.00     0.000 C
ATOM     70  O5  IDS B   4       0.341   1.626   4.4590  0.00  0.00     0.000 O
ATOM     71   O  IDS B   4       2.099   0.116   7.2690  0.00  0.00     0.000 O
ATOM     73  HD  IDS B   4       1.340   0.526   7.1940  0.00  0.00     0.000 HD
BRANCH 66 73
ATOM     73   O  IDS B   4      -1.055   1.795   6.9880  0.00  0.00     0.000 O
ATOM     74   S  IDS B   4      -2.197   1.454   8.0820  0.00  0.00     0.000 S
ATOM     75   O  IDS B   4      -2.906   0.293   7.5860  0.00  0.00     0.000 OA
ATOM     76   O  IDS B   4      -2.980   2.664   8.0790  0.00  0.00     0.000 OA
ATOM     77   O  IDS B   4      -1.489   1.208   9.3150  0.00  0.00     0.000 OA
ENDBRANCH 66 73
BRANCH 69 78
ATOM     78   C  IDS B   4       2.506   2.540   3.7310  0.00  0.00     0.000 C
ATOM     79   O  IDS B   4       3.732   2.595   3.8230  0.00  0.00     0.000 OA
ATOM     80   O  IDS B   4       1.887   3.020   2.7650  0.00  0.00     0.000 OA
ENDBRANCH 69 78
BRANCH 65 81
ATOM     81  O4  SGN B   5       0.443  -0.706   4.8500  0.00  0.00     0.000 O
BRANCH 81 85
ATOM     82  C1  SGN B   5       0.733  -3.482   1.7130  0.00  0.00     0.000 C
ATOM     83  C2  SGN B   5       0.349  -2.043   1.3380  0.00  0.00     0.000 C
ATOM     84  C3  SGN B   5       0.737  -1.094   2.4800  0.00  0.00     0.000 C
ATOM     85  C4  SGN B   5       0.088  -1.569   3.7680  0.00  0.00     0.000 C
ATOM     86  C5  SGN B   5       0.561  -2.993   4.0460  0.00  0.00     0.000 C
ATOM     87  O5  SGN B   5       0.153  -3.838   2.9530  0.00  0.00     0.000 O
ATOM     88   O  SGN B   5       0.335   0.222   2.1670  0.00  0.00     0.000 O
ATOM     90  HD  SGN B   5       1.142  -0.086   2.1020  0.00  0.00     0.000 HD
BRANCH 83 92
ATOM     90   N  SGN B   5       0.321  -2.722   0.0270  0.00  0.00     0.000 N
ATOM     92  HD  SGN B   5      -0.138  -3.456   0.0670  0.00  0.00     0.000 HD
ATOM     92   S  SGN B   5       0.061  -1.832  -1.2750  0.00  0.00     0.000 S
ATOM     93   O  SGN B   5       0.087  -2.770  -2.3560  0.00  0.00     0.000 OA
ATOM     94   O  SGN B   5      -1.121  -1.088  -1.0040  0.00  0.00     0.000 OA
ATOM     95   O  SGN B   5       1.214  -0.852  -1.3070  0.00  0.00     0.000 OA
ENDBRANCH 83 92
BRANCH 86 96
ATOM     96   C  SGN B   5      -0.001  -3.597   5.3170  0.00  0.00     0.000 C
ATOM     97   O  SGN B   5      -1.403  -3.337   5.4190  0.00  0.00     0.000 O
ATOM     98   S  SGN B   5      -2.337  -4.607   5.7140  0.00  0.00     0.000 S
ATOM     99   O  SGN B   5      -3.625  -4.004   5.9590  0.00  0.00     0.000 OA
ATOM    100   O  SGN B   5      -2.284  -5.449   4.5730  0.00  0.00     0.000 OA
ATOM    101   O  SGN B   5      -1.763  -5.207   6.8750  0.00  0.00     0.000 OA
ENDBRANCH 86 96
BRANCH 82 102
ATOM    102  O4  IDS B   6       2.082  -3.673   1.7480  0.00  0.00     0.000 O
BRANCH 102 106
ATOM    103  C1  IDS B   6       4.912  -5.751   0.7830  0.00  0.00     0.000 C
ATOM    104  C2  IDS B   6       3.609  -5.769  -0.0320  0.00  0.00     0.000 C
ATOM    105  C3  IDS B   6       2.340  -5.896   0.7880  0.00  0.00     0.000 C
ATOM    106  C4  IDS B   6       2.374  -5.060   2.0550  0.00  0.00     0.000 C
ATOM    107  C5  IDS B   6       3.745  -5.192   2.7250  0.00  0.00     0.000 C
ATOM    108  O5  IDS B   6       4.807  -4.821   1.8450  0.00  0.00     0.000 O
ATOM    109   O  IDS B   6       2.147  -7.267   1.0940  0.00  0.00     0.000 O
ATOM    111  HD  IDS B   6       2.940  -7.609   1.0290  0.00  0.00     0.000 HD
BRANCH 104 111
ATOM    111   O  IDS B   6       3.479  -4.496  -0.7560  0.00  0.00     0.000 O
ATOM    112   S  IDS B   6       3.486  -4.535  -2.3560  0.00  0.00     0.000 S
ATOM    113   O  IDS B   6       4.757  -5.152  -2.7020  0.00  0.00     0.000 OA
ATOM    114   O  IDS B   6       2.303  -5.275  -2.8080  0.00  0.00     0.000 OA
ATOM    115   O  IDS B   6       3.431  -3.114  -2.6250  0.00  0.00     0.000 OA
ENDBRANCH 104 111
BRANCH 107 116
ATOM    116   C  IDS B   6       3.781  -4.322   3.9750  0.00  0.00     0.000 C
ATOM    117   O  IDS B   6       3.650  -4.885   5.0320  0.00  0.00     0.000 OA
ATOM    118   O  IDS B   6       3.927  -3.112   3.9020  0.00  0.00     0.000 OA
ENDBRANCH 107 116
BRANCH 103 119
ATOM    119  O4  SGN B   7       5.163  -7.065   1.0180  0.00  0.00     0.000 O
BRANCH 119 123
ATOM    120  C1  SGN B   7       8.104  -9.279   3.0010  0.00  0.00     0.000 C
ATOM    121  C2  SGN B   7       6.978  -8.664   3.8540  0.00  0.00     0.000 C
ATOM    122  C3  SGN B   7       5.798  -8.248   2.9660  0.00  0.00     0.000 C
ATOM    123  C4  SGN B   7       6.289  -7.342   1.8500  0.00  0.00     0.000 C
ATOM    124  C5  SGN B   7       7.413  -8.040   1.0660  0.00  0.00     0.000 C
ATOM    125  O5  SGN B   7       8.502  -8.413   1.9400  0.00  0.00     0.000 O
ATOM    126   O  SGN B   7       4.814  -7.594   3.7750  0.00  0.00     0.000 O
ATOM    128  HD  SGN B   7       5.543  -8.060   3.7360  0.00  0.00     0.000 HD
BRANCH 121 130
ATOM    128   N  SGN B   7       7.655  -9.418   4.9120  0.00  0.00     0.000 N
ATOM    130  HD  SGN B   7       7.896  -8.678   5.2940  0.00  0.00     0.000 HD
ATOM    130   S  SGN B   7       7.064  -9.520   6.4070  0.00  0.00     0.000 S
ATOM    131   O  SGN B   7       5.706  -9.915   6.2440  0.00  0.00     0.000 OA
ATOM    132   O  SGN B   7       7.951 -10.307   7.1850  0.00  0.00     0.000 OA
ATOM    133   O  SGN B   7       7.297  -8.053   6.9020  0.00  0.00     0.000 OA
ENDBRANCH 121 130
BRANCH 124 134
ATOM    134   C  SGN B   7       8.044  -7.178   0.0130  0.00  0.00     0.000 C
ATOM    135   O  SGN B   7       8.331  -5.891   0.5860  0.00  0.00     0.000 O
ATOM    136   S  SGN B   7       9.138  -4.888  -0.3150  0.00  0.00     0.000 S
ATOM    137   O  SGN B   7       9.211  -3.649   0.4230  0.00  0.00     0.000 OA
ATOM    138   O  SGN B   7       8.372  -4.775  -1.5350  0.00  0.00     0.000 OA
ATOM    139   O  SGN B   7      10.417  -5.563  -0.4670  0.00  0.00     0.000 OA
ENDBRANCH 124 134
BRANCH 120 140
ATOM    140  O4  IDS B   8       8.092 -10.437   2.3320  0.00  0.00     0.000 O
BRANCH 140 144
ATOM    141  C1  IDS B   8       8.355 -13.813   1.1090  0.00  0.00     0.000 C
ATOM    142  C2  IDS B   8       8.977 -12.626   0.3200  0.00  0.00     0.000 C
ATOM    143  C3  IDS B   8       8.004 -11.447   0.1360  0.00  0.00     0.000 C
ATOM    144  C4  IDS B   8       7.235 -11.133   1.4190  0.00  0.00     0.000 C
ATOM    145  C5  IDS B   8       6.723 -12.432   2.0610  0.00  0.00     0.000 C
ATOM    146  O5  IDS B   8       7.787 -13.343   2.3260  0.00  0.00     0.000 O
BRANCH 142 147
ATOM    147   O  IDS B   8      10.161 -12.108   1.0560  0.00  0.00     0.000 O
ATOM    148   S  IDS B   8      11.335 -11.296   0.2850  0.00  0.00     0.000 S
ATOM    149   O  IDS B   8      11.185 -11.547  -1.1300  0.00  0.00     0.000 OA
ATOM    150   O  IDS B   8      11.132  -9.901   0.6320  0.00  0.00     0.000 OA
ATOM    151   O  IDS B   8      12.577 -11.837   0.8040  0.00  0.00     0.000 OA
ENDBRANCH 142 147
BRANCH 145 152
ATOM    152   C  IDS B   8       6.036 -12.194   3.3900  0.00  0.00     0.000 C
ATOM    153   O  IDS B   8       6.605 -12.511   4.4290  0.00  0.00     0.000 OA
ATOM    154   O  IDS B   8       4.936 -11.672   3.4140  0.00  0.00     0.000 OA
ENDBRANCH 145 152
ENDBRANCH 140 144
ENDBRANCH 120 140
ENDBRANCH 119 123
ENDBRANCH 103 119
ENDBRANCH 102 106
ENDBRANCH 82 102
ENDBRANCH 81 85
ENDBRANCH 65 81
ENDBRANCH 64 68
ENDBRANCH 41 64
ENDBRANCH 40 44
ENDBRANCH 24 40
ENDBRANCH 23 27
ENDBRANCH 1 23
TORSDOF 31
ENDMDL
MODEL 71
REMARK VINA RESULT:      -5.7     17.156     25.123
ROOT
ATOM      1  C1  SGN B   1      64.910  -0.042  20.8700  0.00  0.00     0.000 C
ATOM      2  C2  SGN B   1      64.324   1.375  20.7560  0.00  0.00     0.000 C
ATOM      3  C3  SGN B   1      62.795   1.325  20.6700  0.00  0.00     0.000 C
ATOM      4  C4  SGN B   1      62.361   0.434  19.5110  0.00  0.00     0.000 C
ATOM      5  C5  SGN B   1      63.089  -0.905  19.6110  0.00  0.00     0.000 C
ATOM      6  O5  SGN B   1      64.511  -0.677  19.6620  0.00  0.00     0.000 O
ATOM      7   O  SGN B   1      62.260   2.635  20.5200  0.00  0.00     0.000 O
ATOM      9  HD  SGN B   1      62.748   2.562  19.8090  0.00  0.00     0.000 HD
ATOM      9   O  SGN B   1      60.961   0.234  19.5700  0.00  0.00     0.000 O
ATOM     11  HD  SGN B   1      61.449   0.161  18.8590  0.00  0.00     0.000 HD
ENDROOT
BRANCH 2 13
ATOM     11   N  SGN B   1      65.529   2.225  20.7850  0.00  0.00     0.000 N
ATOM     13  HD  SGN B   1      65.395   1.631  21.4000  0.00  0.00     0.000 HD
ATOM     13   S  SGN B   1      66.275   2.612  22.1570  0.00  0.00     0.000 S
ATOM     14   O  SGN B   1      65.639   1.985  23.2490  0.00  0.00     0.000 OA
ATOM     15   O  SGN B   1      67.677   2.441  21.9710  0.00  0.00     0.000 OA
ATOM     16   O  SGN B   1      65.992   4.146  22.1400  0.00  0.00     0.000 OA
ENDBRANCH 2 13
BRANCH 5 17
ATOM     17   C  SGN B   1      62.824  -1.836  18.4540  0.00  0.00     0.000 C
ATOM     18   O  SGN B   1      63.916  -2.760  18.2770  0.00  0.00     0.000 O
ATOM     19   S  SGN B   1      64.418  -2.973  16.7730  0.00  0.00     0.000 S
ATOM     20   O  SGN B   1      65.332  -4.093  16.8370  0.00  0.00     0.000 OA
ATOM     21   O  SGN B   1      63.208  -3.254  16.0350  0.00  0.00     0.000 OA
ATOM     22   O  SGN B   1      65.053  -1.726  16.4070  0.00  0.00     0.000 OA
ENDBRANCH 5 17
BRANCH 1 23
ATOM     23  O4  IDS B   2      65.257  -0.966  21.8110  0.00  0.00     0.000 O
BRANCH 23 27
ATOM     24  C1  IDS B   2      62.129  -3.284  23.2510  0.00  0.00     0.000 C
ATOM     25  C2  IDS B   2      62.345  -1.934  23.9700  0.00  0.00     0.000 C
ATOM     26  C3  IDS B   2      63.306  -1.045  23.1850  0.00  0.00     0.000 C
ATOM     27  C4  IDS B   2      64.640  -1.712  22.8800  0.00  0.00     0.000 C
ATOM     28  C5  IDS B   2      64.423  -3.208  22.5730  0.00  0.00     0.000 C
ATOM     29  O5  IDS B   2      63.079  -3.457  22.1910  0.00  0.00     0.000 O
ATOM     30   O  IDS B   2      63.576   0.132  23.9370  0.00  0.00     0.000 O
ATOM     32  HD  IDS B   2      64.157   0.009  24.5670  0.00  0.00     0.000 HD
BRANCH 25 32
ATOM     32   O  IDS B   2      61.078  -1.182  24.1430  0.00  0.00     0.000 O
ATOM     33   S  IDS B   2      60.483  -0.809  25.6370  0.00  0.00     0.000 S
ATOM     34   O  IDS B   2      59.145  -0.283  25.4200  0.00  0.00     0.000 OA
ATOM     35   O  IDS B   2      60.457  -2.009  26.4610  0.00  0.00     0.000 OA
ATOM     36   O  IDS B   2      61.367   0.204  26.1670  0.00  0.00     0.000 OA
ENDBRANCH 25 32
BRANCH 28 37
ATOM     37   C  IDS B   2      65.353  -3.872  21.5370  0.00  0.00     0.000 C
ATOM     38   O  IDS B   2      66.517  -3.833  21.8600  0.00  0.00     0.000 OA
ATOM     39   O  IDS B   2      65.010  -4.468  20.4860  0.00  0.00     0.000 OA
ENDBRANCH 28 37
BRANCH 24 40
ATOM     40  O4  SUS B   3      61.364  -4.236  23.8240  0.00  0.00     0.000 O
BRANCH 40 44
ATOM     41  C1  SUS B   3      58.799  -7.060  22.0940  0.00  0.00     0.000 C
ATOM     42  C2  SUS B   3      60.312  -7.252  21.8700  0.00  0.00     0.000 C
ATOM     43  C3  SUS B   3      61.081  -6.463  22.9270  0.00  0.00     0.000 C
ATOM     44  C4  SUS B   3      60.629  -5.011  22.8830  0.00  0.00     0.000 C
ATOM     45  C5  SUS B   3      59.150  -4.949  23.2080  0.00  0.00     0.000 C
ATOM     46  O5  SUS B   3      58.435  -5.679  22.1910  0.00  0.00     0.000 O
BRANCH 42 49
ATOM     47   N  SUS B   3      60.929  -7.617  20.5830  0.00  0.00     0.000 N
ATOM     49  HD  SUS B   3      60.588  -7.255  19.8740  0.00  0.00     0.000 HD
ATOM     49   S  SUS B   3      60.990  -9.201  20.3540  0.00  0.00     0.000 S
ATOM     50   O  SUS B   3      59.692  -9.746  20.4280  0.00  0.00     0.000 OA
ATOM     51   O  SUS B   3      61.478  -9.151  18.8840  0.00  0.00     0.000 OA
ATOM     52   O  SUS B   3      61.979  -9.756  21.1890  0.00  0.00     0.000 OA
ENDBRANCH 42 49
BRANCH 43 53
ATOM     53   O  SUS B   3      62.518  -6.550  22.6040  0.00  0.00     0.000 O
ATOM     54   S  SUS B   3      63.511  -7.160  23.7640  0.00  0.00     0.000 S
ATOM     55   O  SUS B   3      63.240  -8.588  23.8640  0.00  0.00     0.000 OA
ATOM     56   O  SUS B   3      64.846  -6.850  23.2830  0.00  0.00     0.000 OA
ATOM     57   O  SUS B   3      63.170  -6.467  25.0090  0.00  0.00     0.000 OA
ENDBRANCH 43 53
BRANCH 45 58
ATOM     58   C  SUS B   3      58.646  -3.524  23.2820  0.00  0.00     0.000 C
ATOM     59   S  SUS B   3      57.797  -1.590  21.8240  0.00  0.00     0.000 S
ATOM     60   O  SUS B   3      58.164  -3.122  21.9890  0.00  0.00     0.000 O
ATOM     61   O  SUS B   3      59.070  -0.910  21.6700  0.00  0.00     0.000 OA
ATOM     62   O  SUS B   3      57.036  -1.626  20.6050  0.00  0.00     0.000 OA
ATOM     63   O  SUS B   3      57.062  -1.248  22.9900  0.00  0.00     0.000 OA
ENDBRANCH 45 58
BRANCH 41 64
ATOM     64  O4  IDS B   4      58.283  -7.848  23.0930  0.00  0.00     0.000 O
BRANCH 64 68
ATOM     65  C1  IDS B   4      55.975  -9.862  25.0670  0.00  0.00     0.000 C
ATOM     66  C2  IDS B   4      56.802 -10.509  23.9490  0.00  0.00     0.000 C
ATOM     67  C3  IDS B   4      56.808  -9.732  22.6430  0.00  0.00     0.000 C
ATOM     68  C4  IDS B   4      56.912  -8.233  22.8480  0.00  0.00     0.000 C
ATOM     69  C5  IDS B   4      55.955  -7.838  23.9810  0.00  0.00     0.000 C
ATOM     70  O5  IDS B   4      56.351  -8.501  25.1840  0.00  0.00     0.000 O
ATOM     71   O  IDS B   4      55.605 -10.039  21.9670  0.00  0.00     0.000 O
ATOM     73  HD  IDS B   4      56.233 -10.159  22.5520  0.00  0.00     0.000 HD
BRANCH 66 73
ATOM     73   O  IDS B   4      58.207 -10.568  24.3740  0.00  0.00     0.000 O
ATOM     74   S  IDS B   4      58.898 -12.025  24.5060  0.00  0.00     0.000 S
ATOM     75   O  IDS B   4      58.079 -12.786  25.4260  0.00  0.00     0.000 OA
ATOM     76   O  IDS B   4      60.202 -11.690  25.0210  0.00  0.00     0.000 OA
ATOM     77   O  IDS B   4      58.910 -12.569  23.1690  0.00  0.00     0.000 OA
ENDBRANCH 66 73
BRANCH 69 78
ATOM     78   C  IDS B   4      55.779  -6.337  24.1620  0.00  0.00     0.000 C
ATOM     79   O  IDS B   4      56.226  -5.808  25.1800  0.00  0.00     0.000 OA
ATOM     80   O  IDS B   4      55.285  -5.678  23.2290  0.00  0.00     0.000 OA
ENDBRANCH 69 78
BRANCH 65 81
ATOM     81  O4  SGN B   5      54.653 -10.117  24.8580  0.00  0.00     0.000 O
BRANCH 81 85
ATOM     82  C1  SGN B   5      51.070 -10.286  27.0420  0.00  0.00     0.000 C
ATOM     83  C2  SGN B   5      51.185  -9.188  25.9730  0.00  0.00     0.000 C
ATOM     84  C3  SGN B   5      52.305  -9.547  24.9870  0.00  0.00     0.000 C
ATOM     85  C4  SGN B   5      53.596  -9.771  25.7550  0.00  0.00     0.000 C
ATOM     86  C5  SGN B   5      53.365 -10.893  26.7640  0.00  0.00     0.000 C
ATOM     87  O5  SGN B   5      52.320 -10.491  27.6710  0.00  0.00     0.000 O
ATOM     88   O  SGN B   5      52.455  -8.516  24.0350  0.00  0.00     0.000 O
ATOM     90  HD  SGN B   5      52.048  -9.269  23.9010  0.00  0.00     0.000 HD
BRANCH 83 92
ATOM     90   N  SGN B   5      50.139  -8.449  26.7070  0.00  0.00     0.000 N
ATOM     92  HD  SGN B   5      50.488  -7.935  27.3110  0.00  0.00     0.000 HD
ATOM     92   S  SGN B   5      48.952  -7.791  25.8630  0.00  0.00     0.000 S
ATOM     93   O  SGN B   5      48.128  -7.156  26.8470  0.00  0.00     0.000 OA
ATOM     94   O  SGN B   5      49.582  -7.014  24.8510  0.00  0.00     0.000 OA
ATOM     95   O  SGN B   5      48.273  -8.958  25.1800  0.00  0.00     0.000 OA
ENDBRANCH 83 92
BRANCH 86 96
ATOM     96   C  SGN B   5      54.581 -11.235  27.6000  0.00  0.00     0.000 C
ATOM     97   O  SGN B   5      54.908 -10.154  28.4770  0.00  0.00     0.000 O
ATOM     98   S  SGN B   5      55.109 -10.534  30.0220  0.00  0.00     0.000 S
ATOM     99   O  SGN B   5      55.618  -9.307  30.5870  0.00  0.00     0.000 OA
ATOM    100   O  SGN B   5      53.848 -10.941  30.5280  0.00  0.00     0.000 OA
ATOM    101   O  SGN B   5      56.069 -11.590  30.0060  0.00  0.00     0.000 OA
ENDBRANCH 86 96
BRANCH 82 102
ATOM    102  O4  IDS B   6      50.593 -11.460  26.5390  0.00  0.00     0.000 O
BRANCH 102 106
ATOM    103  C1  IDS B   6      48.412 -14.355  26.1940  0.00  0.00     0.000 C
ATOM    104  C2  IDS B   6      47.874 -12.934  25.9620  0.00  0.00     0.000 C
ATOM    105  C3  IDS B   6      48.252 -11.922  27.0260  0.00  0.00     0.000 C
ATOM    106  C4  IDS B   6      49.689 -12.071  27.4940  0.00  0.00     0.000 C
ATOM    107  C5  IDS B   6      50.020 -13.555  27.6830  0.00  0.00     0.000 C
ATOM    108  O5  IDS B   6      49.794 -14.308  26.4900  0.00  0.00     0.000 O
ATOM    109   O  IDS B   6      47.352 -12.066  28.1120  0.00  0.00     0.000 O
ATOM    111  HD  IDS B   6      47.056 -12.876  28.0320  0.00  0.00     0.000 HD
BRANCH 104 111
ATOM    111   O  IDS B   6      48.437 -12.407  24.7090  0.00  0.00     0.000 O
ATOM    112   S  IDS B   6      47.457 -12.247  23.4520  0.00  0.00     0.000 S
ATOM    113   O  IDS B   6      46.941 -13.587  23.2180  0.00  0.00     0.000 OA
ATOM    114   O  IDS B   6      46.436 -11.247  23.7840  0.00  0.00     0.000 OA
ATOM    115   O  IDS B   6      48.416 -11.806  22.4630  0.00  0.00     0.000 OA
ENDBRANCH 104 111
BRANCH 107 116
ATOM    116   C  IDS B   6      51.473 -13.696  28.1170  0.00  0.00     0.000 C
ATOM    117   O  IDS B   6      51.752 -13.294  29.2180  0.00  0.00     0.000 OA
ATOM    118   O  IDS B   6      52.312 -14.184  27.3770  0.00  0.00     0.000 OA
ENDBRANCH 107 116
BRANCH 103 119
ATOM    119  O4  SGN B   7      47.521 -14.897  27.0630  0.00  0.00     0.000 O
BRANCH 119 123
ATOM    120  C1  SGN B   7      46.370 -18.746  28.2260  0.00  0.00     0.000 C
ATOM    121  C2  SGN B   7      47.713 -18.211  28.7580  0.00  0.00     0.000 C
ATOM    122  C3  SGN B   7      47.793 -16.689  28.5840  0.00  0.00     0.000 C
ATOM    123  C4  SGN B   7      47.516 -16.323  27.1350  0.00  0.00     0.000 C
ATOM    124  C5  SGN B   7      46.161 -16.906  26.6990  0.00  0.00     0.000 C
ATOM    125  O5  SGN B   7      46.131 -18.340  26.8790  0.00  0.00     0.000 O
ATOM    126   O  SGN B   7      49.090 -16.241  28.9960  0.00  0.00     0.000 O
ATOM    128  HD  SGN B   7      48.511 -16.885  28.9590  0.00  0.00     0.000 HD
BRANCH 121 130
ATOM    128   N  SGN B   7      47.978 -19.567  29.2470  0.00  0.00     0.000 N
ATOM    130  HD  SGN B   7      48.812 -19.490  29.0280  0.00  0.00     0.000 HD
ATOM    130   S  SGN B   7      48.784 -19.845  30.6130  0.00  0.00     0.000 S
ATOM    131   O  SGN B   7      48.150 -19.030  31.5920  0.00  0.00     0.000 OA
ATOM    132   O  SGN B   7      48.877 -21.248  30.7990  0.00  0.00     0.000 OA
ATOM    133   O  SGN B   7      50.225 -19.407  30.1830  0.00  0.00     0.000 OA
ENDBRANCH 121 130
BRANCH 124 134
ATOM    134   C  SGN B   7      45.849 -16.696  25.2470  0.00  0.00     0.000 C
ATOM    135   O  SGN B   7      46.205 -17.888  24.5250  0.00  0.00     0.000 O
ATOM    136   S  SGN B   7      45.813 -17.928  23.0040  0.00  0.00     0.000 S
ATOM    137   O  SGN B   7      46.357 -19.157  22.4770  0.00  0.00     0.000 OA
ATOM    138   O  SGN B   7      46.417 -16.749  22.4260  0.00  0.00     0.000 OA
ATOM    139   O  SGN B   7      44.360 -17.898  23.0550  0.00  0.00     0.000 OA
ENDBRANCH 124 134
BRANCH 120 140
ATOM    140  O4  IDS B   8      45.146 -18.541  28.7260  0.00  0.00     0.000 O
BRANCH 140 144
ATOM    141  C1  IDS B   8      42.491 -16.681  30.2910  0.00  0.00     0.000 C
ATOM    142  C2  IDS B   8      43.973 -16.469  30.7140  0.00  0.00     0.000 C
ATOM    143  C3  IDS B   8      44.717 -17.789  30.9850  0.00  0.00     0.000 C
ATOM    144  C4  IDS B   8      44.417 -18.845  29.9220  0.00  0.00     0.000 C
ATOM    145  C5  IDS B   8      42.910 -18.884  29.6250  0.00  0.00     0.000 C
ATOM    146  O5  IDS B   8      42.420 -17.609  29.2160  0.00  0.00     0.000 O
BRANCH 142 147
ATOM    147   O  IDS B   8      44.703 -15.767  29.6260  0.00  0.00     0.000 O
ATOM    148   S  IDS B   8      44.941 -14.163  29.6790  0.00  0.00     0.000 S
ATOM    149   O  IDS B   8      44.031 -13.617  30.6600  0.00  0.00     0.000 OA
ATOM    150   O  IDS B   8      46.334 -13.991  30.0480  0.00  0.00     0.000 OA
ATOM    151   O  IDS B   8      44.644 -13.689  28.3410  0.00  0.00     0.000 OA
ENDBRANCH 142 147
BRANCH 145 152
ATOM    152   C  IDS B   8      42.561 -19.844  28.5060  0.00  0.00     0.000 C
ATOM    153   O  IDS B   8      41.922 -19.440  27.5410  0.00  0.00     0.000 OA
ATOM    154   O  IDS B   8      42.935 -21.001  28.5670  0.00  0.00     0.000 OA
ENDBRANCH 145 152
ENDBRANCH 140 144
ENDBRANCH 120 140
ENDBRANCH 119 123
ENDBRANCH 103 119
ENDBRANCH 102 106
ENDBRANCH 82 102
ENDBRANCH 81 85
ENDBRANCH 65 81
ENDBRANCH 64 68
ENDBRANCH 41 64
ENDBRANCH 40 44
ENDBRANCH 24 40
ENDBRANCH 23 27
ENDBRANCH 1 23
TORSDOF 31
ENDMDL
MODEL 72
REMARK VINA RESULT:      -5.7     14.967     22.045
ROOT
ATOM      1  C1  SGN B   1      64.344  -4.190  18.7980  0.00  0.00     0.000 C
ATOM      2  C2  SGN B   1      64.529  -2.741  18.3170  0.00  0.00     0.000 C
ATOM      3  C3  SGN B   1      64.185  -2.616  16.8290  0.00  0.00     0.000 C
ATOM      4  C4  SGN B   1      65.016  -3.600  16.0120  0.00  0.00     0.000 C
ATOM      5  C5  SGN B   1      64.896  -4.990  16.6320  0.00  0.00     0.000 C
ATOM      6  O5  SGN B   1      65.274  -4.932  18.0210  0.00  0.00     0.000 O
ATOM      7   O  SGN B   1      64.400  -1.285  16.3760  0.00  0.00     0.000 O
ATOM      9  HD  SGN B   1      65.195  -1.514  16.6320  0.00  0.00     0.000 HD
ATOM      9   O  SGN B   1      64.546  -3.618  14.6760  0.00  0.00     0.000 O
ATOM     11  HD  SGN B   1      65.340  -3.848  14.9320  0.00  0.00     0.000 HD
ENDROOT
BRANCH 2 13
ATOM     11   N  SGN B   1      63.824  -1.693  19.0780  0.00  0.00     0.000 N
ATOM     13  HD  SGN B   1      64.567  -2.026  19.3730  0.00  0.00     0.000 HD
ATOM     13   S  SGN B   1      63.938  -1.569  20.6780  0.00  0.00     0.000 S
ATOM     14   O  SGN B   1      64.821  -2.548  21.1790  0.00  0.00     0.000 OA
ATOM     15   O  SGN B   1      64.151  -0.200  21.0100  0.00  0.00     0.000 OA
ATOM     16   O  SGN B   1      62.457  -1.904  21.0340  0.00  0.00     0.000 OA
ENDBRANCH 2 13
BRANCH 5 17
ATOM     17   C  SGN B   1      65.765  -6.033  15.9730  0.00  0.00     0.000 C
ATOM     18   O  SGN B   1      66.974  -5.443  15.4550  0.00  0.00     0.000 O
ATOM     19   S  SGN B   1      67.396  -5.891  13.9790  0.00  0.00     0.000 S
ATOM     20   O  SGN B   1      68.730  -5.359  13.7920  0.00  0.00     0.000 OA
ATOM     21   O  SGN B   1      67.349  -7.334  14.0210  0.00  0.00     0.000 OA
ATOM     22   O  SGN B   1      66.408  -5.295  13.1070  0.00  0.00     0.000 OA
ENDBRANCH 5 17
BRANCH 1 23
ATOM     23  O4  IDS B   2      63.393  -5.010  19.3290  0.00  0.00     0.000 O
BRANCH 23 27
ATOM     24  C1  IDS B   2      60.950  -7.321  21.7640  0.00  0.00     0.000 C
ATOM     25  C2  IDS B   2      60.418  -5.909  21.4330  0.00  0.00     0.000 C
ATOM     26  C3  IDS B   2      61.231  -5.268  20.3110  0.00  0.00     0.000 C
ATOM     27  C4  IDS B   2      62.727  -5.228  20.5910  0.00  0.00     0.000 C
ATOM     28  C5  IDS B   2      63.160  -6.512  21.3270  0.00  0.00     0.000 C
ATOM     29  O5  IDS B   2      62.215  -7.553  21.1290  0.00  0.00     0.000 O
ATOM     30   O  IDS B   2      60.793  -3.928  20.1220  0.00  0.00     0.000 O
ATOM     32  HD  IDS B   2      61.114  -3.378  20.7090  0.00  0.00     0.000 HD
BRANCH 25 32
ATOM     32   O  IDS B   2      58.999  -5.930  21.0020  0.00  0.00     0.000 O
ATOM     33   S  IDS B   2      57.839  -5.049  21.7780  0.00  0.00     0.000 S
ATOM     34   O  IDS B   2      56.564  -5.489  21.2330  0.00  0.00     0.000 OA
ATOM     35   O  IDS B   2      57.920  -5.296  23.2100  0.00  0.00     0.000 OA
ATOM     36   O  IDS B   2      58.107  -3.670  21.4410  0.00  0.00     0.000 OA
ENDBRANCH 25 32
BRANCH 28 37
ATOM     37   C  IDS B   2      64.567  -7.072  21.0310  0.00  0.00     0.000 C
ATOM     38   O  IDS B   2      65.417  -6.606  21.7530  0.00  0.00     0.000 OA
ATOM     39   O  IDS B   2      64.866  -7.964  20.2000  0.00  0.00     0.000 OA
ENDBRANCH 28 37
BRANCH 24 40
ATOM     40  O4  SUS B   3      60.404  -8.025  22.7770  0.00  0.00     0.000 O
BRANCH 40 44
ATOM     41  C1  SUS B   3      59.436 -12.088  22.4680  0.00  0.00     0.000 C
ATOM     42  C2  SUS B   3      60.295 -11.658  23.6740  0.00  0.00     0.000 C
ATOM     43  C3  SUS B   3      60.142 -10.154  23.8900  0.00  0.00     0.000 C
ATOM     44  C4  SUS B   3      60.488  -9.434  22.5960  0.00  0.00     0.000 C
ATOM     45  C5  SUS B   3      59.520  -9.873  21.5160  0.00  0.00     0.000 C
ATOM     46  O5  SUS B   3      59.690 -11.289  21.3070  0.00  0.00     0.000 O
BRANCH 42 49
ATOM     47   N  SUS B   3      60.939 -12.982  23.7200  0.00  0.00     0.000 N
ATOM     49  HD  SUS B   3      60.578 -13.605  23.2380  0.00  0.00     0.000 HD
ATOM     49   S  SUS B   3      61.099 -13.539  25.2140  0.00  0.00     0.000 S
ATOM     50   O  SUS B   3      59.837 -13.604  25.8390  0.00  0.00     0.000 OA
ATOM     51   O  SUS B   3      61.589 -14.957  24.8250  0.00  0.00     0.000 OA
ATOM     52   O  SUS B   3      62.118 -12.823  25.8730  0.00  0.00     0.000 OA
ENDBRANCH 42 49
BRANCH 43 53
ATOM     53   O  SUS B   3      61.079  -9.750  24.9560  0.00  0.00     0.000 O
ATOM     54   S  SUS B   3      60.426  -9.272  26.3860  0.00  0.00     0.000 S
ATOM     55   O  SUS B   3      59.882 -10.457  27.0350  0.00  0.00     0.000 OA
ATOM     56   O  SUS B   3      61.540  -8.673  27.0990  0.00  0.00     0.000 OA
ATOM     57   O  SUS B   3      59.366  -8.313  26.0600  0.00  0.00     0.000 OA
ENDBRANCH 43 53
BRANCH 45 58
ATOM     58   C  SUS B   3      59.739  -9.123  20.2200  0.00  0.00     0.000 C
ATOM     59   S  SUS B   3      61.001  -9.244  17.9890  0.00  0.00     0.000 S
ATOM     60   O  SUS B   3      60.492  -9.946  19.3150  0.00  0.00     0.000 O
ATOM     61   O  SUS B   3      62.154  -8.462  18.3930  0.00  0.00     0.000 OA
ATOM     62   O  SUS B   3      61.357 -10.391  17.1990  0.00  0.00     0.000 OA
ATOM     63   O  SUS B   3      59.895  -8.494  17.5080  0.00  0.00     0.000 OA
ENDBRANCH 45 58
BRANCH 41 64
ATOM     64  O4  IDS B   4      58.104 -12.241  22.7640  0.00  0.00     0.000 O
BRANCH 64 68
ATOM     65  C1  IDS B   4      55.371 -14.560  22.1080  0.00  0.00     0.000 C
ATOM     66  C2  IDS B   4      56.805 -14.920  21.6980  0.00  0.00     0.000 C
ATOM     67  C3  IDS B   4      57.552 -13.807  20.9830  0.00  0.00     0.000 C
ATOM     68  C4  IDS B   4      57.291 -12.440  21.5860  0.00  0.00     0.000 C
ATOM     69  C5  IDS B   4      55.785 -12.316  21.8550  0.00  0.00     0.000 C
ATOM     70  O5  IDS B   4      55.390 -13.320  22.7920  0.00  0.00     0.000 O
ATOM     71   O  IDS B   4      57.134 -13.822  19.6330  0.00  0.00     0.000 O
ATOM     73  HD  IDS B   4      57.239 -14.148  20.4290  0.00  0.00     0.000 HD
BRANCH 66 73
ATOM     73   O  IDS B   4      57.587 -15.200  22.9100  0.00  0.00     0.000 O
ATOM     74   S  IDS B   4      57.871 -16.747  23.2890  0.00  0.00     0.000 S
ATOM     75   O  IDS B   4      56.578 -17.390  23.3860  0.00  0.00     0.000 OA
ATOM     76   O  IDS B   4      58.560 -16.622  24.5490  0.00  0.00     0.000 OA
ATOM     77   O  IDS B   4      58.686 -17.263  22.2150  0.00  0.00     0.000 OA
ENDBRANCH 66 73
BRANCH 69 78
ATOM     78   C  IDS B   4      55.330 -10.919  22.2560  0.00  0.00     0.000 C
ATOM     79   O  IDS B   4      56.061  -9.963  21.9990  0.00  0.00     0.000 OA
ATOM     80   O  IDS B   4      54.190 -10.779  22.7340  0.00  0.00     0.000 OA
ENDBRANCH 69 78
BRANCH 65 81
ATOM     81  O4  SGN B   5      54.554 -14.650  21.0220  0.00  0.00     0.000 O
BRANCH 81 85
ATOM     82  C1  SGN B   5      50.662 -15.641  19.7920  0.00  0.00     0.000 C
ATOM     83  C2  SGN B   5      50.849 -14.286  20.4910  0.00  0.00     0.000 C
ATOM     84  C3  SGN B   5      52.331 -13.886  20.4470  0.00  0.00     0.000 C
ATOM     85  C4  SGN B   5      53.167 -14.995  21.0610  0.00  0.00     0.000 C
ATOM     86  C5  SGN B   5      52.916 -16.277  20.2720  0.00  0.00     0.000 C
ATOM     87  O5  SGN B   5      51.518 -16.611  20.3650  0.00  0.00     0.000 O
ATOM     88   O  SGN B   5      52.519 -12.670  21.1370  0.00  0.00     0.000 O
ATOM     90  HD  SGN B   5      52.482 -12.758  20.2770  0.00  0.00     0.000 HD
BRANCH 83 92
ATOM     90   N  SGN B   5      49.389 -14.321  20.2800  0.00  0.00     0.000 N
ATOM     92  HD  SGN B   5      49.048 -15.056  20.5860  0.00  0.00     0.000 HD
ATOM     92   S  SGN B   5      48.551 -12.999  20.6070  0.00  0.00     0.000 S
ATOM     93   O  SGN B   5      47.196 -13.356  20.3100  0.00  0.00     0.000 OA
ATOM     94   O  SGN B   5      48.917 -12.628  21.9300  0.00  0.00     0.000 OA
ATOM     95   O  SGN B   5      49.110 -11.949  19.6720  0.00  0.00     0.000 OA
ENDBRANCH 83 92
BRANCH 86 96
ATOM     96   C  SGN B   5      53.700 -17.475  20.7670  0.00  0.00     0.000 C
ATOM     97   O  SGN B   5      54.158 -18.265  19.6680  0.00  0.00     0.000 O
ATOM     98   S  SGN B   5      55.719 -18.635  19.6660  0.00  0.00     0.000 S
ATOM     99   O  SGN B   5      55.820 -19.579  18.5790  0.00  0.00     0.000 OA
ATOM    100   O  SGN B   5      56.442 -17.430  19.4730  0.00  0.00     0.000 OA
ATOM    101   O  SGN B   5      55.946 -19.221  20.9470  0.00  0.00     0.000 OA
ENDBRANCH 86 96
BRANCH 82 102
ATOM    102  O4  IDS B   6      50.862 -15.568  18.4460  0.00  0.00     0.000 O
BRANCH 102 106
ATOM    103  C1  IDS B   6      49.755 -15.664  14.9780  0.00  0.00     0.000 C
ATOM    104  C2  IDS B   6      48.897 -14.987  16.0590  0.00  0.00     0.000 C
ATOM    105  C3  IDS B   6      48.709 -15.794  17.3290  0.00  0.00     0.000 C
ATOM    106  C4  IDS B   6      49.980 -16.500  17.7690  0.00  0.00     0.000 C
ATOM    107  C5  IDS B   6      50.674 -17.120  16.5530  0.00  0.00     0.000 C
ATOM    108  O5  IDS B   6      50.958 -16.147  15.5460  0.00  0.00     0.000 O
ATOM    109   O  IDS B   6      47.665 -16.728  17.1090  0.00  0.00     0.000 O
ATOM    111  HD  IDS B   6      47.645 -16.818  16.2480  0.00  0.00     0.000 HD
BRANCH 104 111
ATOM    111   O  IDS B   6      49.555 -13.742  16.4830  0.00  0.00     0.000 O
ATOM    112   S  IDS B   6      48.878 -12.353  16.0650  0.00  0.00     0.000 S
ATOM    113   O  IDS B   6      48.825 -12.394  14.6120  0.00  0.00     0.000 OA
ATOM    114   O  IDS B   6      47.569 -12.257  16.7220  0.00  0.00     0.000 OA
ATOM    115   O  IDS B   6      49.870 -11.441  16.5910  0.00  0.00     0.000 OA
ENDBRANCH 104 111
BRANCH 107 116
ATOM    116   C  IDS B   6      51.965 -17.794  16.9990  0.00  0.00     0.000 C
ATOM    117   O  IDS B   6      51.855 -18.837  17.5930  0.00  0.00     0.000 OA
ATOM    118   O  IDS B   6      53.055 -17.293  16.7710  0.00  0.00     0.000 OA
ENDBRANCH 107 116
BRANCH 103 119
ATOM    119  O4  SGN B   7      48.885 -16.497  14.3520  0.00  0.00     0.000 O
BRANCH 119 123
ATOM    120  C1  SGN B   7      48.821 -18.659  10.7720  0.00  0.00     0.000 C
ATOM    121  C2  SGN B   7      49.512 -19.309  11.9860  0.00  0.00     0.000 C
ATOM    122  C3  SGN B   7      49.104 -18.596  13.2820  0.00  0.00     0.000 C
ATOM    123  C4  SGN B   7      49.364 -17.105  13.1520  0.00  0.00     0.000 C
ATOM    124  C5  SGN B   7      48.641 -16.554  11.9120  0.00  0.00     0.000 C
ATOM    125  O5  SGN B   7      49.056 -17.253  10.7170  0.00  0.00     0.000 O
ATOM    126   O  SGN B   7      49.838 -19.161  14.3750  0.00  0.00     0.000 O
ATOM    128  HD  SGN B   7      49.608 -19.208  13.5410  0.00  0.00     0.000 HD
BRANCH 121 130
ATOM    128   N  SGN B   7      50.401 -20.283  11.3480  0.00  0.00     0.000 N
ATOM    130  HD  SGN B   7      50.753 -20.474  12.1160  0.00  0.00     0.000 HD
ATOM    130   S  SGN B   7      50.191 -21.871  11.5070  0.00  0.00     0.000 S
ATOM    131   O  SGN B   7      48.822 -22.099  11.1910  0.00  0.00     0.000 OA
ATOM    132   O  SGN B   7      51.214 -22.532  10.7800  0.00  0.00     0.000 OA
ATOM    133   O  SGN B   7      50.589 -22.059  13.0100  0.00  0.00     0.000 OA
ENDBRANCH 121 130
BRANCH 124 134
ATOM    134   C  SGN B   7      48.931 -15.109  11.6320  0.00  0.00     0.000 C
ATOM    135   O  SGN B   7      50.336 -14.968  11.3630  0.00  0.00     0.000 O
ATOM    136   S  SGN B   7      50.820 -13.549  10.8950  0.00  0.00     0.000 S
ATOM    137   O  SGN B   7      52.258 -13.624  10.7910  0.00  0.00     0.000 OA
ATOM    138   O  SGN B   7      50.375 -12.638  11.9240  0.00  0.00     0.000 OA
ATOM    139   O  SGN B   7      50.142 -13.393   9.6180  0.00  0.00     0.000 OA
ENDBRANCH 124 134
BRANCH 120 140
ATOM    140  O4  IDS B   8      47.520 -18.666  10.4640  0.00  0.00     0.000 O
BRANCH 140 144
ATOM    141  C1  IDS B   8      45.074 -20.075   8.2290  0.00  0.00     0.000 C
ATOM    142  C2  IDS B   8      46.520 -19.770   7.7430  0.00  0.00     0.000 C
ATOM    143  C3  IDS B   8      46.999 -18.357   8.1230  0.00  0.00     0.000 C
ATOM    144  C4  IDS B   8      46.633 -17.995   9.5610  0.00  0.00     0.000 C
ATOM    145  C5  IDS B   8      45.179 -18.394   9.8540  0.00  0.00     0.000 C
ATOM    146  O5  IDS B   8      44.956 -19.782   9.6160  0.00  0.00     0.000 O
BRANCH 142 147
ATOM    147   O  IDS B   8      47.465 -20.736   8.3630  0.00  0.00     0.000 O
ATOM    148   S  IDS B   8      48.271 -21.815   7.4590  0.00  0.00     0.000 S
ATOM    149   O  IDS B   8      47.614 -21.886   6.1730  0.00  0.00     0.000 OA
ATOM    150   O  IDS B   8      49.627 -21.308   7.3700  0.00  0.00     0.000 OA
ATOM    151   O  IDS B   8      48.177 -23.067   8.1850  0.00  0.00     0.000 OA
ENDBRANCH 142 147
BRANCH 145 152
ATOM    152   C  IDS B   8      44.786 -18.151  11.2970  0.00  0.00     0.000 C
ATOM    153   O  IDS B   8      45.157 -17.127  11.8600  0.00  0.00     0.000 OA
ATOM    154   O  IDS B   8      44.089 -18.964  11.8770  0.00  0.00     0.000 OA
ENDBRANCH 145 152
ENDBRANCH 140 144
ENDBRANCH 120 140
ENDBRANCH 119 123
ENDBRANCH 103 119
ENDBRANCH 102 106
ENDBRANCH 82 102
ENDBRANCH 81 85
ENDBRANCH 65 81
ENDBRANCH 64 68
ENDBRANCH 41 64
ENDBRANCH 40 44
ENDBRANCH 24 40
ENDBRANCH 23 27
ENDBRANCH 1 23
TORSDOF 31
ENDMDL
MODEL 73
REMARK VINA RESULT:      -5.6     16.245     23.058
ROOT
ATOM      1  C1  SGN B   1      64.448   0.747  21.3080  0.00  0.00     0.000 C
ATOM      2  C2  SGN B   1      63.848   2.116  20.9470  0.00  0.00     0.000 C
ATOM      3  C3  SGN B   1      62.320   2.035  20.8700  0.00  0.00     0.000 C
ATOM      4  C4  SGN B   1      61.899   0.949  19.8850  0.00  0.00     0.000 C
ATOM      5  C5  SGN B   1      62.641  -0.343  20.2200  0.00  0.00     0.000 C
ATOM      6  O5  SGN B   1      64.060  -0.094  20.2310  0.00  0.00     0.000 O
ATOM      7   O  SGN B   1      61.771   3.292  20.4910  0.00  0.00     0.000 O
ATOM      9  HD  SGN B   1      62.262   3.101  19.8050  0.00  0.00     0.000 HD
ATOM      9   O  SGN B   1      60.500   0.747  19.9770  0.00  0.00     0.000 O
ATOM     11  HD  SGN B   1      60.992   0.556  19.2900  0.00  0.00     0.000 HD
ENDROOT
BRANCH 2 13
ATOM     11   N  SGN B   1      64.251   3.141  21.9280  0.00  0.00     0.000 N
ATOM     13  HD  SGN B   1      64.710   3.021  21.2030  0.00  0.00     0.000 HD
ATOM     13   S  SGN B   1      65.782   3.601  22.1110  0.00  0.00     0.000 S
ATOM     14   O  SGN B   1      66.605   2.929  21.1830  0.00  0.00     0.000 OA
ATOM     15   O  SGN B   1      65.819   5.024  22.1770  0.00  0.00     0.000 OA
ATOM     16   O  SGN B   1      66.004   3.067  23.5590  0.00  0.00     0.000 OA
ENDBRANCH 2 13
BRANCH 5 17
ATOM     17   C  SGN B   1      62.389  -1.466  19.2440  0.00  0.00     0.000 C
ATOM     18   O  SGN B   1      63.616  -2.146  18.9150  0.00  0.00     0.000 O
ATOM     19   S  SGN B   1      63.850  -2.459  17.3640  0.00  0.00     0.000 S
ATOM     20   O  SGN B   1      65.003  -3.333  17.3270  0.00  0.00     0.000 OA
ATOM     21   O  SGN B   1      62.625  -3.099  16.9450  0.00  0.00     0.000 OA
ATOM     22   O  SGN B   1      64.081  -1.170  16.7490  0.00  0.00     0.000 OA
ENDBRANCH 5 17
BRANCH 1 23
ATOM     23  O4  IDS B   2      64.803   0.007  22.3970  0.00  0.00     0.000 O
BRANCH 23 27
ATOM     24  C1  IDS B   2      61.867  -2.653  23.6380  0.00  0.00     0.000 C
ATOM     25  C2  IDS B   2      61.813  -1.250  24.2840  0.00  0.00     0.000 C
ATOM     26  C3  IDS B   2      62.731  -0.276  23.5510  0.00  0.00     0.000 C
ATOM     27  C4  IDS B   2      64.170  -0.763  23.4410  0.00  0.00     0.000 C
ATOM     28  C5  IDS B   2      64.194  -2.287  23.2130  0.00  0.00     0.000 C
ATOM     29  O5  IDS B   2      62.950  -2.744  22.7030  0.00  0.00     0.000 O
ATOM     30   O  IDS B   2      62.749   0.965  24.2470  0.00  0.00     0.000 O
ATOM     32  HD  IDS B   2      63.263   0.958  24.9440  0.00  0.00     0.000 HD
BRANCH 25 32
ATOM     32   O  IDS B   2      60.444  -0.677  24.2650  0.00  0.00     0.000 O
ATOM     33   S  IDS B   2      59.648  -0.277  25.6550  0.00  0.00     0.000 S
ATOM     34   O  IDS B   2      58.282   0.031  25.2640  0.00  0.00     0.000 OA
ATOM     35   O  IDS B   2      59.696  -1.400  26.5800  0.00  0.00     0.000 OA
ATOM     36   O  IDS B   2      60.325   0.891  26.1690  0.00  0.00     0.000 OA
ENDBRANCH 25 32
BRANCH 28 37
ATOM     37   C  IDS B   2      65.321  -2.866  22.3330  0.00  0.00     0.000 C
ATOM     38   O  IDS B   2      66.412  -2.760  22.8410  0.00  0.00     0.000 OA
ATOM     39   O  IDS B   2      65.192  -3.458  21.2330  0.00  0.00     0.000 OA
ENDBRANCH 28 37
BRANCH 24 40
ATOM     40  O4  SUS B   3      61.174  -3.673  24.1860  0.00  0.00     0.000 O
BRANCH 40 44
ATOM     41  C1  SUS B   3      59.473  -7.047  22.3800  0.00  0.00     0.000 C
ATOM     42  C2  SUS B   3      60.976  -7.112  22.7210  0.00  0.00     0.000 C
ATOM     43  C3  SUS B   3      61.300  -6.050  23.7690  0.00  0.00     0.000 C
ATOM     44  C4  SUS B   3      60.841  -4.695  23.2530  0.00  0.00     0.000 C
ATOM     45  C5  SUS B   3      59.341  -4.732  23.0450  0.00  0.00     0.000 C
ATOM     46  O5  SUS B   3      59.051  -5.723  22.0380  0.00  0.00     0.000 O
BRANCH 42 49
ATOM     47   N  SUS B   3      61.246  -8.521  23.0570  0.00  0.00     0.000 N
ATOM     49  HD  SUS B   3      61.558  -8.676  23.8500  0.00  0.00     0.000 HD
ATOM     49   S  SUS B   3      62.206  -9.236  21.9930  0.00  0.00     0.000 S
ATOM     50   O  SUS B   3      63.423  -8.531  21.8950  0.00  0.00     0.000 OA
ATOM     51   O  SUS B   3      62.401 -10.554  22.7860  0.00  0.00     0.000 OA
ATOM     52   O  SUS B   3      61.491  -9.473  20.8030  0.00  0.00     0.000 OA
ENDBRANCH 42 49
BRANCH 43 53
ATOM     53   O  SUS B   3      62.761  -6.041  23.9710  0.00  0.00     0.000 O
ATOM     54   S  SUS B   3      63.323  -6.603  25.4100  0.00  0.00     0.000 S
ATOM     55   O  SUS B   3      63.126  -8.046  25.4220  0.00  0.00     0.000 OA
ATOM     56   O  SUS B   3      64.718  -6.202  25.4240  0.00  0.00     0.000 OA
ATOM     57   O  SUS B   3      62.523  -5.950  26.4510  0.00  0.00     0.000 OA
ENDBRANCH 43 53
BRANCH 45 58
ATOM     58   C  SUS B   3      58.793  -3.385  22.6260  0.00  0.00     0.000 C
ATOM     59   S  SUS B   3      57.651  -2.172  20.6740  0.00  0.00     0.000 S
ATOM     60   O  SUS B   3      58.103  -3.520  21.3720  0.00  0.00     0.000 O
ATOM     61   O  SUS B   3      58.855  -1.638  20.0660  0.00  0.00     0.000 OA
ATOM     62   O  SUS B   3      56.715  -2.675  19.7050  0.00  0.00     0.000 OA
ATOM     63   O  SUS B   3      57.088  -1.379  21.7080  0.00  0.00     0.000 OA
ENDBRANCH 45 58
BRANCH 41 64
ATOM     64  O4  IDS B   4      58.669  -7.674  23.3000  0.00  0.00     0.000 O
BRANCH 64 68
ATOM     65  C1  IDS B   4      56.346 -10.129  24.6610  0.00  0.00     0.000 C
ATOM     66  C2  IDS B   4      57.603 -10.588  23.9120  0.00  0.00     0.000 C
ATOM     67  C3  IDS B   4      57.854  -9.860  22.6020  0.00  0.00     0.000 C
ATOM     68  C4  IDS B   4      57.563  -8.374  22.6880  0.00  0.00     0.000 C
ATOM     69  C5  IDS B   4      56.236  -8.190  23.4360  0.00  0.00     0.000 C
ATOM     70  O5  IDS B   4      56.364  -8.716  24.7590  0.00  0.00     0.000 O
ATOM     71   O  IDS B   4      57.023 -10.454  21.6260  0.00  0.00     0.000 O
ATOM     73  HD  IDS B   4      57.444 -10.411  22.3820  0.00  0.00     0.000 HD
BRANCH 66 73
ATOM     73   O  IDS B   4      58.780 -10.308  24.7460  0.00  0.00     0.000 O
ATOM     74   S  IDS B   4      59.582 -11.567  25.3720  0.00  0.00     0.000 S
ATOM     75   O  IDS B   4      58.616 -12.330  26.1340  0.00  0.00     0.000 OA
ATOM     76   O  IDS B   4      60.579 -10.910  26.1800  0.00  0.00     0.000 OA
ATOM     77   O  IDS B   4      60.114 -12.286  24.2400  0.00  0.00     0.000 OA
ENDBRANCH 66 73
BRANCH 69 78
ATOM     78   C  IDS B   4      55.692  -6.768  23.4140  0.00  0.00     0.000 C
ATOM     79   O  IDS B   4      55.046  -6.367  24.3810  0.00  0.00     0.000 OA
ATOM     80   O  IDS B   4      56.010  -6.023  22.4680  0.00  0.00     0.000 OA
ENDBRANCH 69 78
BRANCH 65 81
ATOM     81  O4  SGN B   5      55.246 -10.691  24.0870  0.00  0.00     0.000 O
BRANCH 81 85
ATOM     82  C1  SGN B   5      51.417 -12.217  24.8910  0.00  0.00     0.000 C
ATOM     83  C2  SGN B   5      51.581 -10.690  24.9260  0.00  0.00     0.000 C
ATOM     84  C3  SGN B   5      52.861 -10.294  24.1760  0.00  0.00     0.000 C
ATOM     85  C4  SGN B   5      54.042 -11.035  24.7760  0.00  0.00     0.000 C
ATOM     86  C5  SGN B   5      53.776 -12.534  24.6630  0.00  0.00     0.000 C
ATOM     87  O5  SGN B   5      52.578 -12.847  25.4000  0.00  0.00     0.000 O
ATOM     88   O  SGN B   5      53.048  -8.898  24.2520  0.00  0.00     0.000 O
ATOM     90  HD  SGN B   5      52.738  -9.326  23.5670  0.00  0.00     0.000 HD
BRANCH 83 92
ATOM     90   N  SGN B   5      50.719 -10.010  25.9120  0.00  0.00     0.000 N
ATOM     92  HD  SGN B   5      51.167  -9.421  26.3620  0.00  0.00     0.000 HD
ATOM     92   S  SGN B   5      49.266  -9.540  25.4430  0.00  0.00     0.000 S
ATOM     93   O  SGN B   5      48.700  -8.923  26.6040  0.00  0.00     0.000 OA
ATOM     94   O  SGN B   5      49.470  -8.779  24.2580  0.00  0.00     0.000 OA
ATOM     95   O  SGN B   5      48.560 -10.817  25.0420  0.00  0.00     0.000 OA
ENDBRANCH 83 92
BRANCH 86 96
ATOM     96   C  SGN B   5      54.885 -13.405  25.2160  0.00  0.00     0.000 C
ATOM     97   O  SGN B   5      55.296 -12.939  26.5030  0.00  0.00     0.000 O
ATOM     98   S  SGN B   5      55.353 -14.041  27.6670  0.00  0.00     0.000 S
ATOM     99   O  SGN B   5      55.981 -13.325  28.7520  0.00  0.00     0.000 OA
ATOM    100   O  SGN B   5      54.022 -14.458  27.9250  0.00  0.00     0.000 OA
ATOM    101   O  SGN B   5      56.168 -15.082  27.1310  0.00  0.00     0.000 OA
ENDBRANCH 86 96
BRANCH 82 102
ATOM    102  O4  IDS B   6      51.131 -12.686  23.6440  0.00  0.00     0.000 O
BRANCH 102 106
ATOM    103  C1  IDS B   6      49.024 -14.538  21.3230  0.00  0.00     0.000 C
ATOM    104  C2  IDS B   6      48.406 -13.757  22.4930  0.00  0.00     0.000 C
ATOM    105  C3  IDS B   6      49.075 -13.976  23.8370  0.00  0.00     0.000 C
ATOM    106  C4  IDS B   6      50.589 -14.028  23.7360  0.00  0.00     0.000 C
ATOM    107  C5  IDS B   6      50.999 -14.866  22.5220  0.00  0.00     0.000 C
ATOM    108  O5  IDS B   6      50.428 -14.365  21.3120  0.00  0.00     0.000 O
ATOM    109   O  IDS B   6      48.566 -15.178  24.3930  0.00  0.00     0.000 O
ATOM    111  HD  IDS B   6      48.280 -15.621  23.7050  0.00  0.00     0.000 HD
BRANCH 104 111
ATOM    111   O  IDS B   6      48.532 -12.316  22.2270  0.00  0.00     0.000 O
ATOM    112   S  IDS B   6      47.238 -11.531  21.7070  0.00  0.00     0.000 S
ATOM    113   O  IDS B   6      46.866 -12.212  20.4770  0.00  0.00     0.000 OA
ATOM    114   O  IDS B   6      46.217 -11.568  22.7600  0.00  0.00     0.000 OA
ATOM    115   O  IDS B   6      47.825 -10.224  21.5000  0.00  0.00     0.000 OA
ENDBRANCH 104 111
BRANCH 107 116
ATOM    116   C  IDS B   6      52.518 -14.881  22.4090  0.00  0.00     0.000 C
ATOM    117   O  IDS B   6      53.110 -15.616  23.1580  0.00  0.00     0.000 OA
ATOM    118   O  IDS B   6      53.103 -14.173  21.6040  0.00  0.00     0.000 OA
ENDBRANCH 107 116
BRANCH 103 119
ATOM    119  O4  SGN B   7      48.466 -15.771  21.4290  0.00  0.00     0.000 O
BRANCH 119 123
ATOM    120  C1  SGN B   7      48.043 -19.047  18.8630  0.00  0.00     0.000 C
ATOM    121  C2  SGN B   7      49.189 -19.090  19.8930  0.00  0.00     0.000 C
ATOM    122  C3  SGN B   7      48.964 -18.043  20.9910  0.00  0.00     0.000 C
ATOM    123  C4  SGN B   7      48.753 -16.676  20.3620  0.00  0.00     0.000 C
ATOM    124  C5  SGN B   7      47.598 -16.739  19.3490  0.00  0.00     0.000 C
ATOM    125  O5  SGN B   7      47.852 -17.736  18.3340  0.00  0.00     0.000 O
ATOM    126   O  SGN B   7      50.093 -18.043  21.8730  0.00  0.00     0.000 O
ATOM    128  HD  SGN B   7      49.669 -18.424  21.2210  0.00  0.00     0.000 HD
BRANCH 121 130
ATOM    128   N  SGN B   7      49.953 -20.138  19.2120  0.00  0.00     0.000 N
ATOM    130  HD  SGN B   7      50.663 -19.920  19.6580  0.00  0.00     0.000 HD
ATOM    130   S  SGN B   7      50.400 -21.495  19.9530  0.00  0.00     0.000 S
ATOM    131   O  SGN B   7      49.213 -21.997  20.5580  0.00  0.00     0.000 OA
ATOM    132   O  SGN B   7      51.125 -22.291  19.0290  0.00  0.00     0.000 OA
ATOM    133   O  SGN B   7      51.487 -20.936  20.9330  0.00  0.00     0.000 OA
ENDBRANCH 121 130
BRANCH 124 134
ATOM    134   C  SGN B   7      47.387 -15.463  18.5890  0.00  0.00     0.000 C
ATOM    135   O  SGN B   7      46.324 -15.665  17.6420  0.00  0.00     0.000 O
ATOM    136   S  SGN B   7      45.843 -14.397  16.8480  0.00  0.00     0.000 S
ATOM    137   O  SGN B   7      44.860 -14.861  15.8990  0.00  0.00     0.000 OA
ATOM    138   O  SGN B   7      47.033 -13.872  16.2180  0.00  0.00     0.000 OA
ATOM    139   O  SGN B   7      45.298 -13.557  17.9030  0.00  0.00     0.000 OA
ENDBRANCH 124 134
BRANCH 120 140
ATOM    140  O4  IDS B   8      46.763 -19.388  19.0420  0.00  0.00     0.000 O
BRANCH 140 144
ATOM    141  C1  IDS B   8      43.640 -19.973  20.7360  0.00  0.00     0.000 C
ATOM    142  C2  IDS B   8      44.996 -20.307  21.4210  0.00  0.00     0.000 C
ATOM    143  C3  IDS B   8      45.944 -21.120  20.5190  0.00  0.00     0.000 C
ATOM    144  C4  IDS B   8      45.973 -20.584  19.0890  0.00  0.00     0.000 C
ATOM    145  C5  IDS B   8      44.546 -20.293  18.6030  0.00  0.00     0.000 C
ATOM    146  O5  IDS B   8      43.871 -19.379  19.4650  0.00  0.00     0.000 O
BRANCH 142 147
ATOM    147   O  IDS B   8      45.698 -19.044  21.7720  0.00  0.00     0.000 O
ATOM    148   S  IDS B   8      45.675 -18.469  23.2880  0.00  0.00     0.000 S
ATOM    149   O  IDS B   8      44.609 -19.140  23.9960  0.00  0.00     0.000 OA
ATOM    150   O  IDS B   8      46.986 -18.766  23.8350  0.00  0.00     0.000 OA
ATOM    151   O  IDS B   8      45.424 -17.046  23.1530  0.00  0.00     0.000 OA
ENDBRANCH 142 147
BRANCH 145 152
ATOM    152   C  IDS B   8      44.516 -19.664  17.2240  0.00  0.00     0.000 C
ATOM    153   O  IDS B   8      44.748 -18.467  17.1000  0.00  0.00     0.000 OA
ATOM    154   O  IDS B   8      44.282 -20.359  16.2510  0.00  0.00     0.000 OA
ENDBRANCH 145 152
ENDBRANCH 140 144
ENDBRANCH 120 140
ENDBRANCH 119 123
ENDBRANCH 103 119
ENDBRANCH 102 106
ENDBRANCH 82 102
ENDBRANCH 81 85
ENDBRANCH 65 81
ENDBRANCH 64 68
ENDBRANCH 41 64
ENDBRANCH 40 44
ENDBRANCH 24 40
ENDBRANCH 23 27
ENDBRANCH 1 23
TORSDOF 31
ENDMDL
MODEL 74
REMARK VINA RESULT:      -5.5     16.537     21.661
ROOT
ATOM      1  C1  SGN B   1      63.390   6.668  22.6750  0.00  0.00     0.000 C
ATOM      2  C2  SGN B   1      62.525   7.565  23.5760  0.00  0.00     0.000 C
ATOM      3  C3  SGN B   1      61.090   7.645  23.0440  0.00  0.00     0.000 C
ATOM      4  C4  SGN B   1      61.091   8.122  21.5950  0.00  0.00     0.000 C
ATOM      5  C5  SGN B   1      62.077   7.277  20.7920  0.00  0.00     0.000 C
ATOM      6  O5  SGN B   1      63.375   7.327  21.4160  0.00  0.00     0.000 O
ATOM      7   O  SGN B   1      60.304   8.512  23.8540  0.00  0.00     0.000 O
ATOM      9  HD  SGN B   1      60.917   9.050  23.5640  0.00  0.00     0.000 HD
ATOM      9   O  SGN B   1      59.788   7.996  21.0570  0.00  0.00     0.000 O
ATOM     11  HD  SGN B   1      60.401   8.534  20.7670  0.00  0.00     0.000 HD
ENDROOT
BRANCH 2 13
ATOM     11   N  SGN B   1      63.543   7.942  24.5740  0.00  0.00     0.000 N
ATOM     13  HD  SGN B   1      63.346   7.110  24.4390  0.00  0.00     0.000 HD
ATOM     13   S  SGN B   1      63.850   7.042  25.8720  0.00  0.00     0.000 S
ATOM     14   O  SGN B   1      63.057   5.875  25.8510  0.00  0.00     0.000 OA
ATOM     15   O  SGN B   1      65.262   6.926  26.0160  0.00  0.00     0.000 OA
ATOM     16   O  SGN B   1      63.357   8.045  26.9600  0.00  0.00     0.000 OA
ENDBRANCH 2 13
BRANCH 5 17
ATOM     17   C  SGN B   1      62.249   7.726  19.3620  0.00  0.00     0.000 C
ATOM     18   O  SGN B   1      62.353   9.162  19.2830  0.00  0.00     0.000 O
ATOM     19   S  SGN B   1      61.486   9.865  18.1370  0.00  0.00     0.000 S
ATOM     20   O  SGN B   1      61.940  11.240  18.1150  0.00  0.00     0.000 OA
ATOM     21   O  SGN B   1      61.818   9.128  16.9410  0.00  0.00     0.000 OA
ATOM     22   O  SGN B   1      60.111   9.715  18.5590  0.00  0.00     0.000 OA
ENDBRANCH 5 17
BRANCH 1 23
ATOM     23  O4  IDS B   2      63.763   5.364  22.5340  0.00  0.00     0.000 O
BRANCH 23 27
ATOM     24  C1  IDS B   2      62.688   1.359  22.3460  0.00  0.00     0.000 C
ATOM     25  C2  IDS B   2      61.777   2.254  23.2140  0.00  0.00     0.000 C
ATOM     26  C3  IDS B   2      62.077   3.731  22.9780  0.00  0.00     0.000 C
ATOM     27  C4  IDS B   2      63.542   4.094  23.1830  0.00  0.00     0.000 C
ATOM     28  C5  IDS B   2      64.444   2.952  22.6740  0.00  0.00     0.000 C
ATOM     29  O5  IDS B   2      63.745   2.125  21.7550  0.00  0.00     0.000 O
ATOM     30   O  IDS B   2      61.309   4.516  23.8830  0.00  0.00     0.000 O
ATOM     32  HD  IDS B   2      61.645   4.545  24.6800  0.00  0.00     0.000 HD
BRANCH 25 32
ATOM     32   O  IDS B   2      60.337   2.037  22.9260  0.00  0.00     0.000 O
ATOM     33   S  IDS B   2      59.263   1.627  24.1100  0.00  0.00     0.000 S
ATOM     34   O  IDS B   2      58.024   1.283  23.4300  0.00  0.00     0.000 OA
ATOM     35   O  IDS B   2      59.785   0.499  24.8680  0.00  0.00     0.000 OA
ATOM     36   O  IDS B   2      59.107   2.812  24.9220  0.00  0.00     0.000 OA
ENDBRANCH 25 32
BRANCH 28 37
ATOM     37   C  IDS B   2      65.803   3.330  22.0500  0.00  0.00     0.000 C
ATOM     38   O  IDS B   2      65.864   3.074  20.8700  0.00  0.00     0.000 OA
ATOM     39   O  IDS B   2      66.761   3.906  22.6200  0.00  0.00     0.000 OA
ENDBRANCH 28 37
BRANCH 24 40
ATOM     40  O4  SUS B   3      62.621   0.016  22.4630  0.00  0.00     0.000 O
BRANCH 40 44
ATOM     41  C1  SUS B   3      62.927  -2.976  19.5470  0.00  0.00     0.000 C
ATOM     42  C2  SUS B   3      64.153  -2.063  19.7520  0.00  0.00     0.000 C
ATOM     43  C3  SUS B   3      64.055  -1.390  21.1200  0.00  0.00     0.000 C
ATOM     44  C4  SUS B   3      62.722  -0.665  21.2180  0.00  0.00     0.000 C
ATOM     45  C5  SUS B   3      61.603  -1.679  21.0920  0.00  0.00     0.000 C
ATOM     46  O5  SUS B   3      61.693  -2.290  19.7900  0.00  0.00     0.000 O
BRANCH 42 49
ATOM     47   N  SUS B   3      65.319  -2.918  19.4720  0.00  0.00     0.000 N
ATOM     49  HD  SUS B   3      65.887  -3.021  20.1170  0.00  0.00     0.000 HD
ATOM     49   S  SUS B   3      66.126  -2.453  18.1680  0.00  0.00     0.000 S
ATOM     50   O  SUS B   3      66.543  -1.114  18.3140  0.00  0.00     0.000 OA
ATOM     51   O  SUS B   3      67.324  -3.421  18.3430  0.00  0.00     0.000 OA
ATOM     52   O  SUS B   3      65.383  -2.783  17.0170  0.00  0.00     0.000 OA
ENDBRANCH 42 49
BRANCH 43 53
ATOM     53   O  SUS B   3      65.163  -0.421  21.2290  0.00  0.00     0.000 O
ATOM     54   S  SUS B   3      66.388  -0.795  22.2600  0.00  0.00     0.000 S
ATOM     55   O  SUS B   3      67.138  -1.893  21.6650  0.00  0.00     0.000 OA
ATOM     56   O  SUS B   3      67.144   0.439  22.3710  0.00  0.00     0.000 OA
ATOM     57   O  SUS B   3      65.759  -1.203  23.5200  0.00  0.00     0.000 OA
ENDBRANCH 43 53
BRANCH 45 58
ATOM     58   C  SUS B   3      60.242  -1.046  21.2800  0.00  0.00     0.000 C
ATOM     59   S  SUS B   3      58.303   0.027  19.9860  0.00  0.00     0.000 S
ATOM     60   O  SUS B   3      59.637  -0.825  19.9950  0.00  0.00     0.000 O
ATOM     61   O  SUS B   3      58.731   1.405  20.1300  0.00  0.00     0.000 OA
ATOM     62   O  SUS B   3      57.807  -0.266  18.6680  0.00  0.00     0.000 OA
ATOM     63   O  SUS B   3      57.520  -0.482  21.0570  0.00  0.00     0.000 OA
ENDBRANCH 45 58
BRANCH 41 64
ATOM     64  O4  IDS B   4      63.029  -4.190  20.1800  0.00  0.00     0.000 O
BRANCH 64 68
ATOM     65  C1  IDS B   4      62.548  -7.786  19.8390  0.00  0.00     0.000 C
ATOM     66  C2  IDS B   4      62.584  -6.890  18.5940  0.00  0.00     0.000 C
ATOM     67  C3  IDS B   4      61.739  -5.632  18.7020  0.00  0.00     0.000 C
ATOM     68  C4  IDS B   4      61.824  -4.979  20.0680  0.00  0.00     0.000 C
ATOM     69  C5  IDS B   4      61.714  -6.081  21.1310  0.00  0.00     0.000 C
ATOM     70  O5  IDS B   4      62.807  -6.990  20.9810  0.00  0.00     0.000 O
ATOM     71   O  IDS B   4      60.402  -6.001  18.4310  0.00  0.00     0.000 O
ATOM     73  HD  IDS B   4      61.262  -6.101  18.4300  0.00  0.00     0.000 HD
BRANCH 66 73
ATOM     73   O  IDS B   4      63.961  -6.420  18.3900  0.00  0.00     0.000 O
ATOM     74   S  IDS B   4      64.635  -6.655  16.9380  0.00  0.00     0.000 S
ATOM     75   O  IDS B   4      64.563  -8.077  16.6790  0.00  0.00     0.000 OA
ATOM     76   O  IDS B   4      65.973  -6.164  17.1490  0.00  0.00     0.000 OA
ATOM     77   O  IDS B   4      63.851  -5.867  16.0170  0.00  0.00     0.000 OA
ENDBRANCH 66 73
BRANCH 69 78
ATOM     78   C  IDS B   4      61.562  -5.567  22.5560  0.00  0.00     0.000 C
ATOM     79   O  IDS B   4      60.478  -5.705  23.1220  0.00  0.00     0.000 OA
ATOM     80   O  IDS B   4      62.567  -5.121  23.1400  0.00  0.00     0.000 OA
ENDBRANCH 69 78
BRANCH 65 81
ATOM     81  O4  SGN B   5      61.394  -8.509  19.8440  0.00  0.00     0.000 O
BRANCH 81 85
ATOM     82  C1  SGN B   5      59.799 -12.226  20.9750  0.00  0.00     0.000 C
ATOM     83  C2  SGN B   5      59.692 -11.081  21.9940  0.00  0.00     0.000 C
ATOM     84  C3  SGN B   5      59.880  -9.737  21.2770  0.00  0.00     0.000 C
ATOM     85  C4  SGN B   5      61.201  -9.748  20.5290  0.00  0.00     0.000 C
ATOM     86  C5  SGN B   5      61.179 -10.907  19.5360  0.00  0.00     0.000 C
ATOM     87  O5  SGN B   5      61.021 -12.139  20.2660  0.00  0.00     0.000 O
ATOM     88   O  SGN B   5      59.839  -8.683  22.2150  0.00  0.00     0.000 O
ATOM     90  HD  SGN B   5      59.190  -8.913  21.6890  0.00  0.00     0.000 HD
BRANCH 83 92
ATOM     90   N  SGN B   5      59.067 -12.203  22.7210  0.00  0.00     0.000 N
ATOM     92  HD  SGN B   5      59.561 -12.913  22.6800  0.00  0.00     0.000 HD
ATOM     92   S  SGN B   5      58.428 -11.906  24.1550  0.00  0.00     0.000 S
ATOM     93   O  SGN B   5      57.922 -13.173  24.5880  0.00  0.00     0.000 OA
ATOM     94   O  SGN B   5      59.446 -11.251  24.9040  0.00  0.00     0.000 OA
ATOM     95   O  SGN B   5      57.339 -10.889  23.8880  0.00  0.00     0.000 OA
ENDBRANCH 83 92
BRANCH 86 96
ATOM     96   C  SGN B   5      62.439 -11.035  18.7040  0.00  0.00     0.000 C
ATOM     97   O  SGN B   5      63.452 -11.734  19.4310  0.00  0.00     0.000 O
ATOM     98   S  SGN B   5      64.147 -12.962  18.6700  0.00  0.00     0.000 S
ATOM     99   O  SGN B   5      65.231 -13.313  19.5570  0.00  0.00     0.000 OA
ATOM    100   O  SGN B   5      63.165 -13.973  18.5060  0.00  0.00     0.000 OA
ATOM    101   O  SGN B   5      64.588 -12.409  17.4310  0.00  0.00     0.000 OA
ENDBRANCH 86 96
BRANCH 82 102
ATOM    102  O4  IDS B   6      58.748 -12.256  20.1080  0.00  0.00     0.000 O
BRANCH 102 106
ATOM    103  C1  IDS B   6      55.865 -13.745  18.4570  0.00  0.00     0.000 C
ATOM    104  C2  IDS B   6      56.031 -13.837  19.9820  0.00  0.00     0.000 C
ATOM    105  C3  IDS B   6      57.409 -14.261  20.4530  0.00  0.00     0.000 C
ATOM    106  C4  IDS B   6      58.527 -13.615  19.6530  0.00  0.00     0.000 C
ATOM    107  C5  IDS B   6      58.177 -13.641  18.1630  0.00  0.00     0.000 C
ATOM    108  O5  IDS B   6      56.929 -12.999  17.8970  0.00  0.00     0.000 O
ATOM    109   O  IDS B   6      57.486 -15.675  20.3770  0.00  0.00     0.000 O
ATOM    111  HD  IDS B   6      56.884 -15.885  19.7920  0.00  0.00     0.000 HD
BRANCH 104 111
ATOM    111   O  IDS B   6      55.812 -12.506  20.5690  0.00  0.00     0.000 O
ATOM    112   S  IDS B   6      54.679 -12.356  21.6900  0.00  0.00     0.000 S
ATOM    113   O  IDS B   6      53.457 -12.797  21.0370  0.00  0.00     0.000 OA
ATOM    114   O  IDS B   6      55.072 -13.153  22.8580  0.00  0.00     0.000 OA
ATOM    115   O  IDS B   6      54.749 -10.926  21.9030  0.00  0.00     0.000 OA
ENDBRANCH 104 111
BRANCH 107 116
ATOM    116   C  IDS B   6      59.287 -12.960  17.3730  0.00  0.00     0.000 C
ATOM    117   O  IDS B   6      60.204 -13.655  17.0160  0.00  0.00     0.000 OA
ATOM    118   O  IDS B   6      59.249 -11.765  17.1240  0.00  0.00     0.000 OA
ENDBRANCH 107 116
BRANCH 103 119
ATOM    119  O4  SGN B   7      55.627 -15.028  18.0820  0.00  0.00     0.000 O
BRANCH 119 123
ATOM    120  C1  SGN B   7      53.401 -16.966  15.1190  0.00  0.00     0.000 C
ATOM    121  C2  SGN B   7      54.672 -16.215  14.6800  0.00  0.00     0.000 C
ATOM    122  C3  SGN B   7      55.567 -15.918  15.8900  0.00  0.00     0.000 C
ATOM    123  C4  SGN B   7      54.763 -15.195  16.9580  0.00  0.00     0.000 C
ATOM    124  C5  SGN B   7      53.517 -16.019  17.3210  0.00  0.00     0.000 C
ATOM    125  O5  SGN B   7      52.704 -16.274  16.1530  0.00  0.00     0.000 O
ATOM    126   O  SGN B   7      56.686 -15.135  15.4600  0.00  0.00     0.000 O
ATOM    128  HD  SGN B   7      55.997 -15.613  15.2450  0.00  0.00     0.000 HD
BRANCH 121 130
ATOM    128   N  SGN B   7      54.235 -16.444  13.3000  0.00  0.00     0.000 N
ATOM    130  HD  SGN B   7      54.497 -15.649  13.0780  0.00  0.00     0.000 HD
ATOM    130   S  SGN B   7      55.277 -16.682  12.0960  0.00  0.00     0.000 S
ATOM    131   O  SGN B   7      56.157 -17.700  12.5620  0.00  0.00     0.000 OA
ATOM    132   O  SGN B   7      54.541 -16.864  10.8980  0.00  0.00     0.000 OA
ATOM    133   O  SGN B   7      55.892 -15.248  11.9690  0.00  0.00     0.000 OA
ENDBRANCH 121 130
BRANCH 124 134
ATOM    134   C  SGN B   7      52.595 -15.333  18.2860  0.00  0.00     0.000 C
ATOM    135   O  SGN B   7      51.410 -14.928  17.5800  0.00  0.00     0.000 O
ATOM    136   S  SGN B   7      50.249 -14.325  18.4490  0.00  0.00     0.000 S
ATOM    137   O  SGN B   7      49.226 -13.903  17.5220  0.00  0.00     0.000 OA
ATOM    138   O  SGN B   7      50.848 -13.224  19.1690  0.00  0.00     0.000 OA
ATOM    139   O  SGN B   7      49.864 -15.453  19.2830  0.00  0.00     0.000 OA
ENDBRANCH 124 134
BRANCH 120 140
ATOM    140  O4  IDS B   8      53.305 -18.211  15.6000  0.00  0.00     0.000 O
BRANCH 140 144
ATOM    141  C1  IDS B   8      54.167 -21.115  17.5450  0.00  0.00     0.000 C
ATOM    142  C2  IDS B   8      55.270 -20.218  16.9160  0.00  0.00     0.000 C
ATOM    143  C3  IDS B   8      55.020 -19.908  15.4280  0.00  0.00     0.000 C
ATOM    144  C4  IDS B   8      53.560 -19.549  15.1560  0.00  0.00     0.000 C
ATOM    145  C5  IDS B   8      52.629 -20.532  15.8810  0.00  0.00     0.000 C
ATOM    146  O5  IDS B   8      52.883 -20.562  17.2830  0.00  0.00     0.000 O
BRANCH 142 147
ATOM    147   O  IDS B   8      55.322 -18.917  17.6330  0.00  0.00     0.000 O
ATOM    148   S  IDS B   8      56.422 -18.646  18.7950  0.00  0.00     0.000 S
ATOM    149   O  IDS B   8      56.958 -19.927  19.1970  0.00  0.00     0.000 OA
ATOM    150   O  IDS B   8      57.420 -17.785  18.1890  0.00  0.00     0.000 OA
ATOM    151   O  IDS B   8      55.691 -18.003  19.8700  0.00  0.00     0.000 OA
ENDBRANCH 142 147
BRANCH 145 152
ATOM    152   C  IDS B   8      51.166 -20.169  15.7300  0.00  0.00     0.000 C
ATOM    153   O  IDS B   8      50.496 -19.931  16.7280  0.00  0.00     0.000 OA
ATOM    154   O  IDS B   8      50.675 -20.098  14.6170  0.00  0.00     0.000 OA
ENDBRANCH 145 152
ENDBRANCH 140 144
ENDBRANCH 120 140
ENDBRANCH 119 123
ENDBRANCH 103 119
ENDBRANCH 102 106
ENDBRANCH 82 102
ENDBRANCH 81 85
ENDBRANCH 65 81
ENDBRANCH 64 68
ENDBRANCH 41 64
ENDBRANCH 40 44
ENDBRANCH 24 40
ENDBRANCH 23 27
ENDBRANCH 1 23
TORSDOF 31
ENDMDL
MODEL 75
REMARK VINA RESULT:      -5.4     38.649     44.731
ROOT
ATOM      1  C1  SGN B   1       5.557  12.565   1.4300  0.00  0.00     0.000 C
ATOM      2  C2  SGN B   1       5.236  13.506   0.2580  0.00  0.00     0.000 C
ATOM      3  C3  SGN B   1       5.317  12.758  -1.0770  0.00  0.00     0.000 C
ATOM      4  C4  SGN B   1       6.686  12.103  -1.2310  0.00  0.00     0.000 C
ATOM      5  C5  SGN B   1       6.998  11.299   0.0290  0.00  0.00     0.000 C
ATOM      6  O5  SGN B   1       6.895  12.154   1.1840  0.00  0.00     0.000 O
ATOM      7   O  SGN B   1       5.063  13.642  -2.1620  0.00  0.00     0.000 O
ATOM      9  HD  SGN B   1       5.768  13.998  -1.8070  0.00  0.00     0.000 HD
ATOM      9   O  SGN B   1       6.676  11.252  -2.3630  0.00  0.00     0.000 O
ATOM     11  HD  SGN B   1       7.381  11.608  -2.0070  0.00  0.00     0.000 HD
ENDROOT
BRANCH 2 13
ATOM     11   N  SGN B   1       4.982  14.763   0.9880  0.00  0.00     0.000 N
ATOM     13  HD  SGN B   1       4.532  14.047   1.1750  0.00  0.00     0.000 HD
ATOM     13   S  SGN B   1       3.547  15.112   1.6250  0.00  0.00     0.000 S
ATOM     14   O  SGN B   1       2.650  14.043   1.4170  0.00  0.00     0.000 OA
ATOM     15   O  SGN B   1       3.749  15.610   2.9440  0.00  0.00     0.000 OA
ATOM     16   O  SGN B   1       3.193  16.333   0.7210  0.00  0.00     0.000 OA
ENDBRANCH 2 13
BRANCH 5 17
ATOM     17   C  SGN B   1       8.378  10.690   0.0430  0.00  0.00     0.000 C
ATOM     18   O  SGN B   1       8.348   9.359   0.5960  0.00  0.00     0.000 O
ATOM     19   S  SGN B   1       9.494   9.014   1.6570  0.00  0.00     0.000 S
ATOM     20   O  SGN B   1       9.389   7.587   1.8720  0.00  0.00     0.000 OA
ATOM     21   O  SGN B   1      10.716   9.411   0.9980  0.00  0.00     0.000 OA
ATOM     22   O  SGN B   1       9.174   9.802   2.8270  0.00  0.00     0.000 OA
ENDBRANCH 5 17
BRANCH 1 23
ATOM     23  O4  IDS B   2       4.939  11.710   2.2950  0.00  0.00     0.000 O
BRANCH 23 27
ATOM     24  C1  IDS B   2       2.415   8.599   3.3810  0.00  0.00     0.000 C
ATOM     25  C2  IDS B   2       2.185   9.183   1.9690  0.00  0.00     0.000 C
ATOM     26  C3  IDS B   2       3.338  10.097   1.5630  0.00  0.00     0.000 C
ATOM     27  C4  IDS B   2       3.614  11.209   2.5660  0.00  0.00     0.000 C
ATOM     28  C5  IDS B   2       3.412  10.685   4.0020  0.00  0.00     0.000 C
ATOM     29  O5  IDS B   2       3.498   9.268   4.0420  0.00  0.00     0.000 O
ATOM     30   O  IDS B   2       3.031  10.711   0.3160  0.00  0.00     0.000 O
ATOM     32  HD  IDS B   2       2.486  11.380   0.3890  0.00  0.00     0.000 HD
BRANCH 25 32
ATOM     32   O  IDS B   2       2.068   8.124   0.9370  0.00  0.00     0.000 O
ATOM     33   S  IDS B   2       0.715   7.960   0.0060  0.00  0.00     0.000 S
ATOM     34   O  IDS B   2       0.869   6.706  -0.7140  0.00  0.00     0.000 OA
ATOM     35   O  IDS B   2      -0.462   7.942   0.8620  0.00  0.00     0.000 OA
ATOM     36   O  IDS B   2       0.724   9.089  -0.8960  0.00  0.00     0.000 OA
ENDBRANCH 25 32
BRANCH 28 37
ATOM     37   C  IDS B   2       4.318  11.256   5.1120  0.00  0.00     0.000 C
ATOM     38   O  IDS B   2       4.025  12.388   5.4180  0.00  0.00     0.000 OA
ATOM     39   O  IDS B   2       5.232  10.654   5.7260  0.00  0.00     0.000 OA
ENDBRANCH 28 37
BRANCH 24 40
ATOM     40  O4  SUS B   3       1.472   7.818   3.9480  0.00  0.00     0.000 O
BRANCH 40 44
ATOM     41  C1  SUS B   3       2.185   4.345   6.1780  0.00  0.00     0.000 C
ATOM     42  C2  SUS B   3       1.541   5.536   6.9150  0.00  0.00     0.000 C
ATOM     43  C3  SUS B   3       0.928   6.489   5.8910  0.00  0.00     0.000 C
ATOM     44  C4  SUS B   3       1.998   6.888   4.8880  0.00  0.00     0.000 C
ATOM     45  C5  SUS B   3       2.484   5.647   4.1690  0.00  0.00     0.000 C
ATOM     46  O5  SUS B   3       3.079   4.766   5.1430  0.00  0.00     0.000 O
BRANCH 42 49
ATOM     47   N  SUS B   3       0.617   5.000   7.9300  0.00  0.00     0.000 N
ATOM     49  HD  SUS B   3      -0.204   5.274   7.8890  0.00  0.00     0.000 HD
ATOM     49   S  SUS B   3       1.143   5.227   9.4260  0.00  0.00     0.000 S
ATOM     50   O  SUS B   3       1.355   6.601   9.6570  0.00  0.00     0.000 OA
ATOM     51   O  SUS B   3      -0.143   4.744  10.1430  0.00  0.00     0.000 OA
ATOM     52   O  SUS B   3       2.215   4.349   9.6820  0.00  0.00     0.000 OA
ENDBRANCH 42 49
BRANCH 43 53
ATOM     53   O  SUS B   3       0.446   7.683   6.6130  0.00  0.00     0.000 O
ATOM     54   S  SUS B   3      -1.181   7.903   6.6950  0.00  0.00     0.000 S
ATOM     55   O  SUS B   3      -1.713   6.893   7.5990  0.00  0.00     0.000 OA
ATOM     56   O  SUS B   3      -1.328   9.262   7.1840  0.00  0.00     0.000 OA
ATOM     57   O  SUS B   3      -1.694   7.721   5.3340  0.00  0.00     0.000 OA
ENDBRANCH 43 53
BRANCH 45 58
ATOM     58   C  SUS B   3       3.482   5.976   3.0810  0.00  0.00     0.000 C
ATOM     59   S  SUS B   3       5.987   6.347   2.6650  0.00  0.00     0.000 S
ATOM     60   O  SUS B   3       4.815   5.834   3.5990  0.00  0.00     0.000 O
ATOM     61   O  SUS B   3       5.980   7.790   2.8060  0.00  0.00     0.000 OA
ATOM     62   O  SUS B   3       7.123   5.732   3.2990  0.00  0.00     0.000 OA
ATOM     63   O  SUS B   3       5.679   5.861   1.3670  0.00  0.00     0.000 OA
ENDBRANCH 45 58
BRANCH 41 64
ATOM     64  O4  IDS B   4       1.284   3.384   5.7860  0.00  0.00     0.000 O
BRANCH 64 68
ATOM     65  C1  IDS B   4      -0.307   0.130   5.3950  0.00  0.00     0.000 C
ATOM     66  C2  IDS B   4      -0.125   0.738   6.7920  0.00  0.00     0.000 C
ATOM     67  C3  IDS B   4       1.260   1.305   7.0540  0.00  0.00     0.000 C
ATOM     68  C4  IDS B   4       1.829   2.048   5.8590  0.00  0.00     0.000 C
ATOM     69  C5  IDS B   4       1.559   1.209   4.6030  0.00  0.00     0.000 C
ATOM     70  O5  IDS B   4       0.147   1.061   4.4300  0.00  0.00     0.000 O
ATOM     71   O  IDS B   4       2.102   0.221   7.3860  0.00  0.00     0.000 O
ATOM     73  HD  IDS B   4       1.343   0.622   7.2700  0.00  0.00     0.000 HD
BRANCH 66 73
ATOM     73   O  IDS B   4      -1.047   1.873   6.9380  0.00  0.00     0.000 O
ATOM     74   S  IDS B   4      -2.170   1.793   8.1000  0.00  0.00     0.000 S
ATOM     75   O  IDS B   4      -2.924   0.582   7.8570  0.00  0.00     0.000 OA
ATOM     76   O  IDS B   4      -2.916   3.005   7.8740  0.00  0.00     0.000 OA
ATOM     77   O  IDS B   4      -1.437   1.770   9.3430  0.00  0.00     0.000 OA
ENDBRANCH 66 73
BRANCH 69 78
ATOM     78   C  IDS B   4       2.260   1.711   3.3480  0.00  0.00     0.000 C
ATOM     79   O  IDS B   4       1.645   1.700   2.2830  0.00  0.00     0.000 OA
ATOM     80   O  IDS B   4       3.393   2.215   3.4600  0.00  0.00     0.000 OA
ENDBRANCH 69 78
BRANCH 65 81
ATOM     81  O4  SGN B   5       0.255  -1.110   5.3640  0.00  0.00     0.000 O
BRANCH 81 85
ATOM     82  C1  SGN B   5       0.327  -4.348   2.6910  0.00  0.00     0.000 C
ATOM     83  C2  SGN B   5      -0.343  -3.055   2.2030  0.00  0.00     0.000 C
ATOM     84  C3  SGN B   5       0.118  -1.878   3.0730  0.00  0.00     0.000 C
ATOM     85  C4  SGN B   5      -0.175  -2.189   4.5310  0.00  0.00     0.000 C
ATOM     86  C5  SGN B   5       0.559  -3.474   4.9040  0.00  0.00     0.000 C
ATOM     87  O5  SGN B   5       0.073  -4.543   4.0690  0.00  0.00     0.000 O
ATOM     88   O  SGN B   5      -0.537  -0.696   2.6670  0.00  0.00     0.000 O
ATOM     90  HD  SGN B   5       0.277  -0.913   2.4680  0.00  0.00     0.000 HD
BRANCH 83 92
ATOM     90   N  SGN B   5      -0.393  -3.903   0.9950  0.00  0.00     0.000 N
ATOM     92  HD  SGN B   5      -0.560  -4.727   1.2010  0.00  0.00     0.000 HD
ATOM     92   S  SGN B   5      -1.183  -3.350  -0.2790  0.00  0.00     0.000 S
ATOM     93   O  SGN B   5      -1.052  -4.389  -1.2560  0.00  0.00     0.000 OA
ATOM     94   O  SGN B   5      -2.471  -2.978   0.1980  0.00  0.00     0.000 OA
ATOM     95   O  SGN B   5      -0.458  -2.078  -0.6590  0.00  0.00     0.000 OA
ENDBRANCH 83 92
BRANCH 86 96
ATOM     96   C  SGN B   5       0.367  -3.903   6.3440  0.00  0.00     0.000 C
ATOM     97   O  SGN B   5       0.334  -2.764   7.2070  0.00  0.00     0.000 O
ATOM     98   S  SGN B   5      -0.904  -2.683   8.2230  0.00  0.00     0.000 S
ATOM     99   O  SGN B   5      -0.550  -1.568   9.0680  0.00  0.00     0.000 OA
ATOM    100   O  SGN B   5      -2.078  -2.490   7.4490  0.00  0.00     0.000 OA
ATOM    101   O  SGN B   5      -0.887  -3.937   8.9030  0.00  0.00     0.000 OA
ENDBRANCH 86 96
BRANCH 82 102
ATOM    102  O4  IDS B   6       1.669  -4.368   2.4490  0.00  0.00     0.000 O
BRANCH 102 106
ATOM    103  C1  IDS B   6       4.591  -5.914   0.9220  0.00  0.00     0.000 C
ATOM    104  C2  IDS B   6       3.210  -6.015   0.2560  0.00  0.00     0.000 C
ATOM    105  C3  IDS B   6       2.075  -6.408   1.1830  0.00  0.00     0.000 C
ATOM    106  C4  IDS B   6       2.163  -5.728   2.5380  0.00  0.00     0.000 C
ATOM    107  C5  IDS B   6       3.612  -5.750   3.0340  0.00  0.00     0.000 C
ATOM    108  O5  IDS B   6       4.504  -5.137   2.1020  0.00  0.00     0.000 O
ATOM    109   O  IDS B   6       2.090  -7.819   1.3250  0.00  0.00     0.000 O
ATOM    111  HD  IDS B   6       2.905  -8.039   1.1310  0.00  0.00     0.000 HD
BRANCH 104 111
ATOM    111   O  IDS B   6       2.837  -4.695  -0.2760  0.00  0.00     0.000 O
ATOM    112   S  IDS B   6       2.861  -4.489  -1.8640  0.00  0.00     0.000 S
ATOM    113   O  IDS B   6       4.230  -4.790  -2.2510  0.00  0.00     0.000 OA
ATOM    114   O  IDS B   6       1.848  -5.367  -2.4610  0.00  0.00     0.000 OA
ATOM    115   O  IDS B   6       2.530  -3.082  -1.9220  0.00  0.00     0.000 OA
ENDBRANCH 104 111
BRANCH 107 116
ATOM    116   C  IDS B   6       3.695  -5.034   4.3760  0.00  0.00     0.000 C
ATOM    117   O  IDS B   6       3.375  -5.669   5.3500  0.00  0.00     0.000 OA
ATOM    118   O  IDS B   6       4.060  -3.872   4.4550  0.00  0.00     0.000 OA
ENDBRANCH 107 116
BRANCH 103 119
ATOM    119  O4  SGN B   7       5.027  -7.200   0.9540  0.00  0.00     0.000 O
BRANCH 119 123
ATOM    120  C1  SGN B   7       8.279  -9.257   2.5910  0.00  0.00     0.000 C
ATOM    121  C2  SGN B   7       7.104  -8.918   3.5280  0.00  0.00     0.000 C
ATOM    122  C3  SGN B   7       5.858  -8.544   2.7150  0.00  0.00     0.000 C
ATOM    123  C4  SGN B   7       6.200  -7.437   1.7320  0.00  0.00     0.000 C
ATOM    124  C5  SGN B   7       7.384  -7.868   0.8500  0.00  0.00     0.000 C
ATOM    125  O5  SGN B   7       8.534  -8.209   1.6560  0.00  0.00     0.000 O
ATOM    126   O  SGN B   7       4.819  -8.141   3.6140  0.00  0.00     0.000 O
ATOM    128  HD  SGN B   7       5.601  -8.497   3.5060  0.00  0.00     0.000 HD
BRANCH 121 130
ATOM    128   N  SGN B   7       7.771  -8.999   4.8300  0.00  0.00     0.000 N
ATOM    130  HD  SGN B   7       7.070  -8.669   5.2170  0.00  0.00     0.000 HD
ATOM    130   S  SGN B   7       7.364 -10.095   5.9370  0.00  0.00     0.000 S
ATOM    131   O  SGN B   7       7.369 -11.340   5.2480  0.00  0.00     0.000 OA
ATOM    132   O  SGN B   7       8.186  -9.904   7.0770  0.00  0.00     0.000 OA
ATOM    133   O  SGN B   7       5.959  -9.553   6.3660  0.00  0.00     0.000 OA
ENDBRANCH 121 130
BRANCH 124 134
ATOM    134   C  SGN B   7       7.873  -6.795  -0.0780  0.00  0.00     0.000 C
ATOM    135   O  SGN B   7       8.127  -5.606   0.6900  0.00  0.00     0.000 O
ATOM    136   S  SGN B   7       8.793  -4.407  -0.0760  0.00  0.00     0.000 S
ATOM    137   O  SGN B   7       8.852  -3.310   0.8600  0.00  0.00     0.000 OA
ATOM    138   O  SGN B   7       7.923  -4.145  -1.1990  0.00  0.00     0.000 OA
ATOM    139   O  SGN B   7      10.094  -4.949  -0.4350  0.00  0.00     0.000 OA
ENDBRANCH 124 134
BRANCH 120 140
ATOM    140  O4  IDS B   8       8.400 -10.305   1.7680  0.00  0.00     0.000 O
BRANCH 140 144
ATOM    141  C1  IDS B   8       7.303 -12.812  -0.5710  0.00  0.00     0.000 C
ATOM    142  C2  IDS B   8       6.384 -12.351   0.5970  0.00  0.00     0.000 C
ATOM    143  C3  IDS B   8       7.102 -12.336   1.9590  0.00  0.00     0.000 C
ATOM    144  C4  IDS B   8       8.501 -11.731   1.8630  0.00  0.00     0.000 C
ATOM    145  C5  IDS B   8       9.238 -12.291   0.6370  0.00  0.00     0.000 C
ATOM    146  O5  IDS B   8       8.509 -12.059  -0.5660  0.00  0.00     0.000 O
BRANCH 142 147
ATOM    147   O  IDS B   8       5.907 -10.968   0.3360  0.00  0.00     0.000 O
ATOM    148   S  IDS B   8       4.456 -10.696  -0.3350  0.00  0.00     0.000 S
ATOM    149   O  IDS B   8       4.007 -11.937  -0.9250  0.00  0.00     0.000 OA
ATOM    150   O  IDS B   8       3.604 -10.252   0.7530  0.00  0.00     0.000 OA
ATOM    151   O  IDS B   8       4.683  -9.671  -1.3360  0.00  0.00     0.000 OA
ENDBRANCH 142 147
BRANCH 145 152
ATOM    152   C  IDS B   8      10.597 -11.653   0.4310  0.00  0.00     0.000 C
ATOM    153   O  IDS B   8      10.981 -11.403  -0.7050  0.00  0.00     0.000 OA
ATOM    154   O  IDS B   8      11.284 -11.376   1.3980  0.00  0.00     0.000 OA
ENDBRANCH 145 152
ENDBRANCH 140 144
ENDBRANCH 120 140
ENDBRANCH 119 123
ENDBRANCH 103 119
ENDBRANCH 102 106
ENDBRANCH 82 102
ENDBRANCH 81 85
ENDBRANCH 65 81
ENDBRANCH 64 68
ENDBRANCH 41 64
ENDBRANCH 40 44
ENDBRANCH 24 40
ENDBRANCH 23 27
ENDBRANCH 1 23
TORSDOF 31
ENDMDL
MODEL 76
REMARK VINA RESULT:      -5.4     12.365     24.198
ROOT
ATOM      1  C1  SGN B   1      58.869  -5.102  23.2440  0.00  0.00     0.000 C
ATOM      2  C2  SGN B   1      60.214  -5.452  23.9020  0.00  0.00     0.000 C
ATOM      3  C3  SGN B   1      60.016  -5.835  25.3730  0.00  0.00     0.000 C
ATOM      4  C4  SGN B   1      59.292  -4.716  26.1150  0.00  0.00     0.000 C
ATOM      5  C5  SGN B   1      58.042  -4.323  25.3300  0.00  0.00     0.000 C
ATOM      6  O5  SGN B   1      58.410  -3.976  23.9810  0.00  0.00     0.000 O
ATOM      7   O  SGN B   1      61.267  -6.115  25.9900  0.00  0.00     0.000 O
ATOM      9  HD  SGN B   1      61.368  -5.288  25.7540  0.00  0.00     0.000 HD
ATOM      9   O  SGN B   1      58.936  -5.163  27.4100  0.00  0.00     0.000 O
ATOM     11  HD  SGN B   1      59.038  -4.336  27.1740  0.00  0.00     0.000 HD
ENDROOT
BRANCH 2 13
ATOM     11   N  SGN B   1      61.253  -5.331  22.8610  0.00  0.00     0.000 N
ATOM     13  HD  SGN B   1      60.500  -5.723  22.6880  0.00  0.00     0.000 HD
ATOM     13   S  SGN B   1      61.398  -6.397  21.6650  0.00  0.00     0.000 S
ATOM     14   O  SGN B   1      60.383  -7.372  21.7570  0.00  0.00     0.000 OA
ATOM     15   O  SGN B   1      61.574  -5.683  20.4450  0.00  0.00     0.000 OA
ATOM     16   O  SGN B   1      62.788  -6.985  22.0580  0.00  0.00     0.000 OA
ENDBRANCH 2 13
BRANCH 5 17
ATOM     17   C  SGN B   1      57.298  -3.146  25.9100  0.00  0.00     0.000 C
ATOM     18   O  SGN B   1      58.209  -2.094  26.2840  0.00  0.00     0.000 O
ATOM     19   S  SGN B   1      57.958  -1.424  27.7150  0.00  0.00     0.000 S
ATOM     20   O  SGN B   1      58.831  -0.270  27.7470  0.00  0.00     0.000 OA
ATOM     21   O  SGN B   1      56.554  -1.087  27.7040  0.00  0.00     0.000 OA
ATOM     22   O  SGN B   1      58.311  -2.445  28.6770  0.00  0.00     0.000 OA
ENDBRANCH 5 17
BRANCH 1 23
ATOM     23  O4  IDS B   2      57.842  -5.691  22.5680  0.00  0.00     0.000 O
BRANCH 23 27
ATOM     24  C1  IDS B   2      54.762  -2.967  21.9950  0.00  0.00     0.000 C
ATOM     25  C2  IDS B   2      54.343  -4.337  22.5730  0.00  0.00     0.000 C
ATOM     26  C3  IDS B   2      55.563  -5.138  23.0180  0.00  0.00     0.000 C
ATOM     27  C4  IDS B   2      56.607  -5.313  21.9240  0.00  0.00     0.000 C
ATOM     28  C5  IDS B   2      56.698  -4.030  21.0730  0.00  0.00     0.000 C
ATOM     29  O5  IDS B   2      56.179  -2.914  21.7800  0.00  0.00     0.000 O
ATOM     30   O  IDS B   2      55.147  -6.436  23.4270  0.00  0.00     0.000 O
ATOM     32  HD  IDS B   2      55.000  -6.972  22.7630  0.00  0.00     0.000 HD
BRANCH 25 32
ATOM     32   O  IDS B   2      53.444  -4.199  23.7460  0.00  0.00     0.000 O
ATOM     33   S  IDS B   2      51.940  -4.878  23.7750  0.00  0.00     0.000 S
ATOM     34   O  IDS B   2      51.282  -4.352  24.9610  0.00  0.00     0.000 OA
ATOM     35   O  IDS B   2      51.221  -4.515  22.5630  0.00  0.00     0.000 OA
ATOM     36   O  IDS B   2      52.157  -6.302  23.8820  0.00  0.00     0.000 OA
ENDBRANCH 25 32
BRANCH 28 37
ATOM     37   C  IDS B   2      58.077  -3.643  20.4990  0.00  0.00     0.000 C
ATOM     38   O  IDS B   2      58.432  -2.540  20.8420  0.00  0.00     0.000 OA
ATOM     39   O  IDS B   2      58.835  -4.362  19.8050  0.00  0.00     0.000 OA
ENDBRANCH 28 37
BRANCH 24 40
ATOM     40  O4  SUS B   3      53.828  -2.138  21.4830  0.00  0.00     0.000 O
BRANCH 40 44
ATOM     41  C1  SUS B   3      53.553   2.040  21.5980  0.00  0.00     0.000 C
ATOM     42  C2  SUS B   3      54.712   1.432  20.7830  0.00  0.00     0.000 C
ATOM     43  C3  SUS B   3      54.387  -0.024  20.4550  0.00  0.00     0.000 C
ATOM     44  C4  SUS B   3      54.086  -0.764  21.7490  0.00  0.00     0.000 C
ATOM     45  C5  SUS B   3      52.877  -0.131  22.4060  0.00  0.00     0.000 C
ATOM     46  O5  SUS B   3      53.205   1.235  22.7300  0.00  0.00     0.000 O
BRANCH 42 49
ATOM     47   N  SUS B   3      54.923   2.387  19.6810  0.00  0.00     0.000 N
ATOM     49  HD  SUS B   3      54.811   2.082  18.8780  0.00  0.00     0.000 HD
ATOM     49   S  SUS B   3      56.357   3.098  19.7480  0.00  0.00     0.000 S
ATOM     50   O  SUS B   3      57.377   2.125  19.7340  0.00  0.00     0.000 OA
ATOM     51   O  SUS B   3      56.266   3.814  18.3750  0.00  0.00     0.000 OA
ATOM     52   O  SUS B   3      56.364   4.037  20.7990  0.00  0.00     0.000 OA
ENDBRANCH 42 49
BRANCH 43 53
ATOM     53   O  SUS B   3      55.569  -0.617  19.8000  0.00  0.00     0.000 O
ATOM     54   S  SUS B   3      55.457  -0.927  18.1900  0.00  0.00     0.000 S
ATOM     55   O  SUS B   3      55.464   0.353  17.4970  0.00  0.00     0.000 OA
ATOM     56   O  SUS B   3      56.619  -1.752  17.9090  0.00  0.00     0.000 OA
ATOM     57   O  SUS B   3      54.187  -1.631  17.9910  0.00  0.00     0.000 OA
ENDBRANCH 43 53
BRANCH 45 58
ATOM     58   C  SUS B   3      52.454  -0.877  23.6530  0.00  0.00     0.000 C
ATOM     59   S  SUS B   3      52.890  -1.030  26.1770  0.00  0.00     0.000 S
ATOM     60   O  SUS B   3      53.047  -0.255  24.8050  0.00  0.00     0.000 O
ATOM     61   O  SUS B   3      53.872  -2.097  26.1250  0.00  0.00     0.000 OA
ATOM     62   O  SUS B   3      53.243   0.005  27.1110  0.00  0.00     0.000 OA
ATOM     63   O  SUS B   3      51.535  -1.453  26.2220  0.00  0.00     0.000 OA
ENDBRANCH 45 58
BRANCH 41 64
ATOM     64  O4  IDS B   4      52.480   2.426  20.8320  0.00  0.00     0.000 O
BRANCH 64 68
ATOM     65  C1  IDS B   4      49.554   4.259  19.6690  0.00  0.00     0.000 C
ATOM     66  C2  IDS B   4      50.943   4.907  19.6140  0.00  0.00     0.000 C
ATOM     67  C3  IDS B   4      51.760   4.751  20.8860  0.00  0.00     0.000 C
ATOM     68  C4  IDS B   4      51.625   3.374  21.5080  0.00  0.00     0.000 C
ATOM     69  C5  IDS B   4      50.141   2.983  21.4860  0.00  0.00     0.000 C
ATOM     70  O5  IDS B   4      49.690   2.927  20.1310  0.00  0.00     0.000 O
ATOM     71   O  IDS B   4      51.309   5.733  21.7960  0.00  0.00     0.000 O
ATOM     73  HD  IDS B   4      51.407   5.367  21.0170  0.00  0.00     0.000 HD
BRANCH 66 73
ATOM     73   O  IDS B   4      51.730   4.249  18.5610  0.00  0.00     0.000 O
ATOM     74   S  IDS B   4      52.227   5.149  17.3120  0.00  0.00     0.000 S
ATOM     75   O  IDS B   4      51.039   5.740  16.7340  0.00  0.00     0.000 OA
ATOM     76   O  IDS B   4      52.862   4.165  16.4720  0.00  0.00     0.000 OA
ATOM     77   O  IDS B   4      53.133   6.122  17.8750  0.00  0.00     0.000 OA
ENDBRANCH 66 73
BRANCH 69 78
ATOM     78   C  IDS B   4      49.811   1.722  22.2730  0.00  0.00     0.000 C
ATOM     79   O  IDS B   4      49.517   0.700  21.6550  0.00  0.00     0.000 OA
ATOM     80   O  IDS B   4      49.952   1.738  23.5100  0.00  0.00     0.000 OA
ENDBRANCH 69 78
BRANCH 65 81
ATOM     81  O4  SGN B   5      48.706   5.066  20.3650  0.00  0.00     0.000 O
BRANCH 81 85
ATOM     82  C1  SGN B   5      44.705   6.303  20.6830  0.00  0.00     0.000 C
ATOM     83  C2  SGN B   5      45.026   4.863  21.1100  0.00  0.00     0.000 C
ATOM     84  C3  SGN B   5      46.532   4.729  21.3740  0.00  0.00     0.000 C
ATOM     85  C4  SGN B   5      47.298   5.171  20.1400  0.00  0.00     0.000 C
ATOM     86  C5  SGN B   5      46.916   6.616  19.8300  0.00  0.00     0.000 C
ATOM     87  O5  SGN B   5      45.500   6.674  19.5720  0.00  0.00     0.000 O
ATOM     88   O  SGN B   5      46.843   3.395  21.7120  0.00  0.00     0.000 O
ATOM     90  HD  SGN B   5      46.767   4.051  22.2730  0.00  0.00     0.000 HD
BRANCH 83 92
ATOM     90   N  SGN B   5      43.643   4.430  20.8290  0.00  0.00     0.000 N
ATOM     92  HD  SGN B   5      43.583   4.071  20.0430  0.00  0.00     0.000 HD
ATOM     92   S  SGN B   5      42.844   3.668  21.9840  0.00  0.00     0.000 S
ATOM     93   O  SGN B   5      41.566   3.385  21.4050  0.00  0.00     0.000 OA
ATOM     94   O  SGN B   5      43.691   2.602  22.4000  0.00  0.00     0.000 OA
ATOM     95   O  SGN B   5      42.776   4.661  23.1240  0.00  0.00     0.000 OA
ENDBRANCH 83 92
BRANCH 86 96
ATOM     96   C  SGN B   5      47.618   7.198  18.6200  0.00  0.00     0.000 C
ATOM     97   O  SGN B   5      47.603   6.268  17.5350  0.00  0.00     0.000 O
ATOM     98   S  SGN B   5      47.082   6.834  16.1270  0.00  0.00     0.000 S
ATOM     99   O  SGN B   5      47.376   5.750  15.2210  0.00  0.00     0.000 OA
ATOM    100   O  SGN B   5      45.702   7.129  16.2710  0.00  0.00     0.000 OA
ATOM    101   O  SGN B   5      47.878   7.996  15.8960  0.00  0.00     0.000 OA
ENDBRANCH 86 96
BRANCH 82 102
ATOM    102  O4  IDS B   6      44.860   7.198  21.6980  0.00  0.00     0.000 O
BRANCH 102 106
ATOM    103  C1  IDS B   6      43.904   9.812  24.0470  0.00  0.00     0.000 C
ATOM    104  C2  IDS B   6      43.113   8.497  23.9690  0.00  0.00     0.000 C
ATOM    105  C3  IDS B   6      42.749   8.047  22.5680  0.00  0.00     0.000 C
ATOM    106  C4  IDS B   6      43.877   8.258  21.5730  0.00  0.00     0.000 C
ATOM    107  C5  IDS B   6      44.521   9.628  21.8040  0.00  0.00     0.000 C
ATOM    108  O5  IDS B   6      44.993   9.776  23.1440  0.00  0.00     0.000 O
ATOM    109   O  IDS B   6      41.585   8.751  22.1660  0.00  0.00     0.000 O
ATOM    111  HD  IDS B   6      41.589   9.460  22.6630  0.00  0.00     0.000 HD
BRANCH 104 111
ATOM    111   O  IDS B   6      43.933   7.410  24.5260  0.00  0.00     0.000 O
ATOM    112   S  IDS B   6      43.623   6.920  26.0180  0.00  0.00     0.000 S
ATOM    113   O  IDS B   6      43.790   8.111  26.8360  0.00  0.00     0.000 OA
ATOM    114   O  IDS B   6      42.274   6.342  26.0460  0.00  0.00     0.000 OA
ATOM    115   O  IDS B   6      44.684   5.949  26.1700  0.00  0.00     0.000 OA
ENDBRANCH 104 111
BRANCH 107 116
ATOM    116   C  IDS B   6      45.674   9.814  20.8260  0.00  0.00     0.000 C
ATOM    117   O  IDS B   6      45.385   9.917  19.6610  0.00  0.00     0.000 OA
ATOM    118   O  IDS B   6      46.833   9.848  21.2090  0.00  0.00     0.000 OA
ENDBRANCH 107 116
BRANCH 103 119
ATOM    119  O4  SGN B   7      42.946  10.769  23.9600  0.00  0.00     0.000 O
BRANCH 119 123
ATOM    120  C1  SGN B   7      42.340  14.600  25.5240  0.00  0.00     0.000 C
ATOM    121  C2  SGN B   7      43.269  14.467  24.3030  0.00  0.00     0.000 C
ATOM    122  C3  SGN B   7      43.069  13.108  23.6200  0.00  0.00     0.000 C
ATOM    123  C4  SGN B   7      43.229  11.992  24.6400  0.00  0.00     0.000 C
ATOM    124  C5  SGN B   7      42.267  12.219  25.8180  0.00  0.00     0.000 C
ATOM    125  O5  SGN B   7      42.492  13.509  26.4300  0.00  0.00     0.000 O
ATOM    126   O  SGN B   7      44.015  12.979  22.5530  0.00  0.00     0.000 O
ATOM    128  HD  SGN B   7      43.640  13.486  23.1460  0.00  0.00     0.000 HD
BRANCH 121 130
ATOM    128   N  SGN B   7      43.600  15.878  24.5190  0.00  0.00     0.000 N
ATOM    130  HD  SGN B   7      44.435  15.715  24.3520  0.00  0.00     0.000 HD
ATOM    130   S  SGN B   7      43.974  16.868  23.3050  0.00  0.00     0.000 S
ATOM    131   O  SGN B   7      42.932  16.696  22.3510  0.00  0.00     0.000 OA
ATOM    132   O  SGN B   7      44.247  18.151  23.8440  0.00  0.00     0.000 OA
ATOM    133   O  SGN B   7      45.377  16.301  22.9010  0.00  0.00     0.000 OA
ENDBRANCH 121 130
BRANCH 124 134
ATOM    134   C  SGN B   7      42.431  11.231  26.9350  0.00  0.00     0.000 C
ATOM    135   O  SGN B   7      41.376  11.440  27.8890  0.00  0.00     0.000 O
ATOM    136   S  SGN B   7      41.280  10.401  29.0640  0.00  0.00     0.000 S
ATOM    137   O  SGN B   7      40.230  10.871  29.9360  0.00  0.00     0.000 OA
ATOM    138   O  SGN B   7      42.582  10.416  29.6900  0.00  0.00     0.000 OA
ATOM    139   O  SGN B   7      40.961   9.166  28.3640  0.00  0.00     0.000 OA
ENDBRANCH 124 134
BRANCH 120 140
ATOM    140  O4  IDS B   8      41.006  14.698  25.5360  0.00  0.00     0.000 O
BRANCH 140 144
ATOM    141  C1  IDS B   8      38.107  15.415  27.5470  0.00  0.00     0.000 C
ATOM    142  C2  IDS B   8      38.014  14.464  26.3210  0.00  0.00     0.000 C
ATOM    143  C3  IDS B   8      38.662  15.048  25.0520  0.00  0.00     0.000 C
ATOM    144  C4  IDS B   8      40.008  15.709  25.3490  0.00  0.00     0.000 C
ATOM    145  C5  IDS B   8      39.902  16.585  26.6060  0.00  0.00     0.000 C
ATOM    146  O5  IDS B   8      39.452  15.837  27.7330  0.00  0.00     0.000 O
BRANCH 142 147
ATOM    147   O  IDS B   8      38.717  13.190  26.6270  0.00  0.00     0.000 O
ATOM    148   S  IDS B   8      38.125  11.767  26.1220  0.00  0.00     0.000 S
ATOM    149   O  IDS B   8      36.744  11.973  25.7490  0.00  0.00     0.000 OA
ATOM    150   O  IDS B   8      38.958  11.377  24.9990  0.00  0.00     0.000 OA
ATOM    151   O  IDS B   8      38.251  10.876  27.2600  0.00  0.00     0.000 OA
ENDBRANCH 142 147
BRANCH 145 152
ATOM    152   C  IDS B   8      41.231  17.190  27.0090  0.00  0.00     0.000 C
ATOM    153   O  IDS B   8      41.824  17.923  26.2260  0.00  0.00     0.000 OA
ATOM    154   O  IDS B   8      41.687  16.957  28.1140  0.00  0.00     0.000 OA
ENDBRANCH 145 152
ENDBRANCH 140 144
ENDBRANCH 120 140
ENDBRANCH 119 123
ENDBRANCH 103 119
ENDBRANCH 102 106
ENDBRANCH 82 102
ENDBRANCH 81 85
ENDBRANCH 65 81
ENDBRANCH 64 68
ENDBRANCH 41 64
ENDBRANCH 40 44
ENDBRANCH 24 40
ENDBRANCH 23 27
ENDBRANCH 1 23
TORSDOF 31
ENDMDL
MODEL 77
REMARK VINA RESULT:      -5.3     11.316     14.459
ROOT
ATOM      1  C1  SGN B   1      40.279  -2.328  17.3360  0.00  0.00     0.000 C
ATOM      2  C2  SGN B   1      39.054  -3.180  17.7080  0.00  0.00     0.000 C
ATOM      3  C3  SGN B   1      39.282  -3.908  19.0370  0.00  0.00     0.000 C
ATOM      4  C4  SGN B   1      40.558  -4.741  18.9690  0.00  0.00     0.000 C
ATOM      5  C5  SGN B   1      41.700  -3.866  18.4580  0.00  0.00     0.000 C
ATOM      6  O5  SGN B   1      41.328  -3.277  17.1970  0.00  0.00     0.000 O
ATOM      7   O  SGN B   1      38.165  -4.729  19.3550  0.00  0.00     0.000 O
ATOM      9  HD  SGN B   1      38.431  -5.075  18.6070  0.00  0.00     0.000 HD
ATOM      9   O  SGN B   1      40.863  -5.240  20.2580  0.00  0.00     0.000 O
ATOM     11  HD  SGN B   1      41.129  -5.586  19.5100  0.00  0.00     0.000 HD
ENDROOT
BRANCH 2 13
ATOM     11   N  SGN B   1      38.200  -2.876  16.5440  0.00  0.00     0.000 N
ATOM     13  HD  SGN B   1      38.483  -2.241  17.0600  0.00  0.00     0.000 HD
ATOM     13   S  SGN B   1      37.222  -1.599  16.5070  0.00  0.00     0.000 S
ATOM     14   O  SGN B   1      37.362  -0.845  17.6900  0.00  0.00     0.000 OA
ATOM     15   O  SGN B   1      37.369  -0.956  15.2450  0.00  0.00     0.000 OA
ATOM     16   O  SGN B   1      35.861  -2.362  16.4780  0.00  0.00     0.000 OA
ENDBRANCH 2 13
BRANCH 5 17
ATOM     17   C  SGN B   1      42.995  -4.609  18.2430  0.00  0.00     0.000 C
ATOM     18   O  SGN B   1      42.749  -5.929  17.7170  0.00  0.00     0.000 O
ATOM     19   S  SGN B   1      43.573  -7.119  18.3970  0.00  0.00     0.000 S
ATOM     20   O  SGN B   1      43.333  -8.271  17.5530  0.00  0.00     0.000 OA
ATOM     21   O  SGN B   1      44.942  -6.660  18.3730  0.00  0.00     0.000 OA
ATOM     22   O  SGN B   1      43.019  -7.250  19.7270  0.00  0.00     0.000 OA
ENDBRANCH 5 17
BRANCH 1 23
ATOM     23  O4  IDS B   2      40.782  -1.073  17.5120  0.00  0.00     0.000 O
BRANCH 23 27
ATOM     24  C1  IDS B   2      44.482  -1.248  19.3840  0.00  0.00     0.000 C
ATOM     25  C2  IDS B   2      43.301  -0.819  20.2810  0.00  0.00     0.000 C
ATOM     26  C3  IDS B   2      41.966  -1.073  19.5850  0.00  0.00     0.000 C
ATOM     27  C4  IDS B   2      41.863  -0.424  18.2120  0.00  0.00     0.000 C
ATOM     28  C5  IDS B   2      43.225  -0.497  17.4910  0.00  0.00     0.000 C
ATOM     29  O5  IDS B   2      44.039  -1.518  18.0470  0.00  0.00     0.000 O
ATOM     30   O  IDS B   2      40.913  -0.552  20.3870  0.00  0.00     0.000 O
ATOM     32  HD  IDS B   2      40.821   0.306  20.3140  0.00  0.00     0.000 HD
BRANCH 25 32
ATOM     32   O  IDS B   2      43.280  -1.551  21.5710  0.00  0.00     0.000 O
ATOM     33   S  IDS B   2      43.363  -0.766  23.0200  0.00  0.00     0.000 S
ATOM     34   O  IDS B   2      43.545  -1.797  24.0290  0.00  0.00     0.000 OA
ATOM     35   O  IDS B   2      44.481   0.165  23.0040  0.00  0.00     0.000 OA
ATOM     36   O  IDS B   2      42.091  -0.097  23.1740  0.00  0.00     0.000 OA
ENDBRANCH 25 32
BRANCH 28 37
ATOM     37   C  IDS B   2      43.220  -0.662  15.9570  0.00  0.00     0.000 C
ATOM     38   O  IDS B   2      43.653  -1.732  15.6010  0.00  0.00     0.000 OA
ATOM     39   O  IDS B   2      42.770   0.150  15.1120  0.00  0.00     0.000 OA
ENDBRANCH 28 37
BRANCH 24 40
ATOM     40  O4  SUS B   3      45.750  -1.039  19.7960  0.00  0.00     0.000 O
BRANCH 40 44
ATOM     41  C1  SUS B   3      49.234  -3.253  19.0860  0.00  0.00     0.000 C
ATOM     42  C2  SUS B   3      48.624  -2.497  17.8890  0.00  0.00     0.000 C
ATOM     43  C3  SUS B   3      47.695  -1.401  18.4070  0.00  0.00     0.000 C
ATOM     44  C4  SUS B   3      46.664  -2.027  19.3340  0.00  0.00     0.000 C
ATOM     45  C5  SUS B   3      47.382  -2.656  20.5110  0.00  0.00     0.000 C
ATOM     46  O5  SUS B   3      48.238  -3.702  20.0100  0.00  0.00     0.000 O
BRANCH 42 49
ATOM     47   N  SUS B   3      48.984  -1.857  16.6120  0.00  0.00     0.000 N
ATOM     49  HD  SUS B   3      48.336  -1.495  16.1650  0.00  0.00     0.000 HD
ATOM     49   S  SUS B   3      49.778  -2.841  15.6300  0.00  0.00     0.000 S
ATOM     50   O  SUS B   3      49.008  -3.995  15.3800  0.00  0.00     0.000 OA
ATOM     51   O  SUS B   3      49.775  -1.904  14.3950  0.00  0.00     0.000 OA
ATOM     52   O  SUS B   3      51.090  -3.024  16.1120  0.00  0.00     0.000 OA
ENDBRANCH 42 49
BRANCH 43 53
ATOM     53   O  SUS B   3      47.020  -0.790  17.2460  0.00  0.00     0.000 O
ATOM     54   S  SUS B   3      47.224   0.826  17.0250  0.00  0.00     0.000 S
ATOM     55   O  SUS B   3      48.598   1.037  16.5930  0.00  0.00     0.000 OA
ATOM     56   O  SUS B   3      46.235   1.171  16.0200  0.00  0.00     0.000 OA
ATOM     57   O  SUS B   3      46.972   1.457  18.3240  0.00  0.00     0.000 OA
ENDBRANCH 43 53
BRANCH 45 58
ATOM     58   C  SUS B   3      46.414  -3.214  21.5320  0.00  0.00     0.000 C
ATOM     59   S  SUS B   3      45.972  -5.272  23.0000  0.00  0.00     0.000 S
ATOM     60   O  SUS B   3      46.947  -4.434  22.0750  0.00  0.00     0.000 O
ATOM     61   O  SUS B   3      45.076  -5.955  22.0860  0.00  0.00     0.000 OA
ATOM     62   O  SUS B   3      46.906  -6.164  23.6340  0.00  0.00     0.000 OA
ATOM     63   O  SUS B   3      45.356  -4.325  23.8600  0.00  0.00     0.000 OA
ENDBRANCH 45 58
BRANCH 41 64
ATOM     64  O4  IDS B   4      50.291  -2.600  19.6720  0.00  0.00     0.000 O
BRANCH 64 68
ATOM     65  C1  IDS B   4      53.753  -1.984  20.6270  0.00  0.00     0.000 C
ATOM     66  C2  IDS B   4      53.411  -2.403  19.1910  0.00  0.00     0.000 C
ATOM     67  C3  IDS B   4      52.447  -3.574  19.0920  0.00  0.00     0.000 C
ATOM     68  C4  IDS B   4      51.328  -3.504  20.1150  0.00  0.00     0.000 C
ATOM     69  C5  IDS B   4      51.940  -3.116  21.4670  0.00  0.00     0.000 C
ATOM     70  O5  IDS B   4      52.549  -1.827  21.3550  0.00  0.00     0.000 O
ATOM     71   O  IDS B   4      53.198  -4.754  19.2870  0.00  0.00     0.000 O
ATOM     73  HD  IDS B   4      53.083  -3.914  19.1090  0.00  0.00     0.000 HD
BRANCH 66 73
ATOM     73   O  IDS B   4      52.737  -1.284  18.5190  0.00  0.00     0.000 O
ATOM     74   S  IDS B   4      53.574  -0.447  17.4160  0.00  0.00     0.000 S
ATOM     75   O  IDS B   4      54.766   0.033  18.0840  0.00  0.00     0.000 OA
ATOM     76   O  IDS B   4      52.641   0.593  17.0620  0.00  0.00     0.000 OA
ATOM     77   O  IDS B   4      53.853  -1.382  16.3530  0.00  0.00     0.000 OA
ENDBRANCH 66 73
BRANCH 69 78
ATOM     78   C  IDS B   4      50.981  -3.218  22.6450  0.00  0.00     0.000 C
ATOM     79   O  IDS B   4      50.310  -2.232  22.9480  0.00  0.00     0.000 OA
ATOM     80   O  IDS B   4      50.828  -4.324  23.1950  0.00  0.00     0.000 OA
ENDBRANCH 69 78
BRANCH 65 81
ATOM     81  O4  SGN B   5      54.674  -2.844  21.1420  0.00  0.00     0.000 O
BRANCH 81 85
ATOM     82  C1  SGN B   5      58.090  -2.843  23.5870  0.00  0.00     0.000 C
ATOM     83  C2  SGN B   5      56.802  -3.428  24.1870  0.00  0.00     0.000 C
ATOM     84  C3  SGN B   5      55.822  -3.776  23.0580  0.00  0.00     0.000 C
ATOM     85  C4  SGN B   5      55.578  -2.542  22.2080  0.00  0.00     0.000 C
ATOM     86  C5  SGN B   5      56.918  -2.070  21.6510  0.00  0.00     0.000 C
ATOM     87  O5  SGN B   5      57.786  -1.740  22.7530  0.00  0.00     0.000 O
ATOM     88   O  SGN B   5      54.615  -4.261  23.6040  0.00  0.00     0.000 O
ATOM     90  HD  SGN B   5      55.241  -4.749  23.2580  0.00  0.00     0.000 HD
BRANCH 83 92
ATOM     90   N  SGN B   5      57.758  -3.573  25.3020  0.00  0.00     0.000 N
ATOM     92  HD  SGN B   5      58.194  -2.836  25.4350  0.00  0.00     0.000 HD
ATOM     92   S  SGN B   5      57.259  -4.312  26.6280  0.00  0.00     0.000 S
ATOM     93   O  SGN B   5      58.395  -4.283  27.4990  0.00  0.00     0.000 OA
ATOM     94   O  SGN B   5      56.054  -3.657  27.0050  0.00  0.00     0.000 OA
ATOM     95   O  SGN B   5      56.891  -5.708  26.1740  0.00  0.00     0.000 OA
ENDBRANCH 83 92
BRANCH 86 96
ATOM     96   C  SGN B   5      56.826  -0.843  20.7670  0.00  0.00     0.000 C
ATOM     97   O  SGN B   5      56.250   0.251  21.4850  0.00  0.00     0.000 O
ATOM     98   S  SGN B   5      57.061   1.633  21.4340  0.00  0.00     0.000 S
ATOM     99   O  SGN B   5      56.147   2.561  22.0570  0.00  0.00     0.000 OA
ATOM    100   O  SGN B   5      58.278   1.440  22.1370  0.00  0.00     0.000 OA
ATOM    101   O  SGN B   5      57.256   1.880  20.0430  0.00  0.00     0.000 OA
ENDBRANCH 86 96
BRANCH 82 102
ATOM    102  O4  IDS B   6      58.817  -3.770  22.9010  0.00  0.00     0.000 O
BRANCH 102 106
ATOM    103  C1  IDS B   6      61.815  -5.663  22.0750  0.00  0.00     0.000 C
ATOM    104  C2  IDS B   6      61.398  -5.451  23.5390  0.00  0.00     0.000 C
ATOM    105  C3  IDS B   6      61.023  -4.027  23.9000  0.00  0.00     0.000 C
ATOM    106  C4  IDS B   6      60.201  -3.345  22.8210  0.00  0.00     0.000 C
ATOM    107  C5  IDS B   6      60.790  -3.665  21.4430  0.00  0.00     0.000 C
ATOM    108  O5  IDS B   6      60.865  -5.072  21.2100  0.00  0.00     0.000 O
ATOM    109   O  IDS B   6      62.218  -3.307  24.1540  0.00  0.00     0.000 O
ATOM    111  HD  IDS B   6      62.825  -3.752  23.7260  0.00  0.00     0.000 HD
BRANCH 104 111
ATOM    111   O  IDS B   6      60.196  -6.252  23.8160  0.00  0.00     0.000 O
ATOM    112   S  IDS B   6      60.286  -7.378  24.9490  0.00  0.00     0.000 S
ATOM    113   O  IDS B   6      61.355  -8.260  24.5060  0.00  0.00     0.000 OA
ATOM    114   O  IDS B   6      60.530  -6.721  26.2390  0.00  0.00     0.000 OA
ATOM    115   O  IDS B   6      58.962  -7.948  24.8190  0.00  0.00     0.000 OA
ENDBRANCH 104 111
BRANCH 107 116
ATOM    116   C  IDS B   6      59.938  -3.006  20.3660  0.00  0.00     0.000 C
ATOM    117   O  IDS B   6      59.201  -3.727  19.7420  0.00  0.00     0.000 OA
ATOM    118   O  IDS B   6      60.009  -1.808  20.1440  0.00  0.00     0.000 OA
ENDBRANCH 107 116
BRANCH 103 119
ATOM    119  O4  SGN B   7      63.120  -5.287  22.0550  0.00  0.00     0.000 O
BRANCH 119 123
ATOM    120  C1  SGN B   7      66.028  -4.933  19.0710  0.00  0.00     0.000 C
ATOM    121  C2  SGN B   7      65.325  -3.644  19.5370  0.00  0.00     0.000 C
ATOM    122  C3  SGN B   7      64.609  -3.876  20.8740  0.00  0.00     0.000 C
ATOM    123  C4  SGN B   7      63.683  -5.076  20.7600  0.00  0.00     0.000 C
ATOM    124  C5  SGN B   7      64.476  -6.304  20.2830  0.00  0.00     0.000 C
ATOM    125  O5  SGN B   7      65.132  -6.041  19.0220  0.00  0.00     0.000 O
ATOM    126   O  SGN B   7      63.886  -2.692  21.2280  0.00  0.00     0.000 O
ATOM    128  HD  SGN B   7      64.467  -3.072  20.7100  0.00  0.00     0.000 HD
BRANCH 121 130
ATOM    128   N  SGN B   7      66.499  -2.975  18.9720  0.00  0.00     0.000 N
ATOM    130  HD  SGN B   7      66.142  -3.000  18.1830  0.00  0.00     0.000 HD
ATOM    130   S  SGN B   7      66.465  -1.438  18.4930  0.00  0.00     0.000 S
ATOM    131   O  SGN B   7      65.907  -0.720  19.5880  0.00  0.00     0.000 OA
ATOM    132   O  SGN B   7      67.748  -1.098  17.9920  0.00  0.00     0.000 OA
ATOM    133   O  SGN B   7      65.562  -1.560  17.2190  0.00  0.00     0.000 OA
ENDBRANCH 121 130
BRANCH 124 134
ATOM    134   C  SGN B   7      63.626  -7.514  20.0280  0.00  0.00     0.000 C
ATOM    135   O  SGN B   7      62.643  -7.181  19.0330  0.00  0.00     0.000 O
ATOM    136   S  SGN B   7      61.748  -8.362  18.5110  0.00  0.00     0.000 S
ATOM    137   O  SGN B   7      60.783  -7.774  17.6130  0.00  0.00     0.000 OA
ATOM    138   O  SGN B   7      61.144  -8.930  19.6950  0.00  0.00     0.000 OA
ATOM    139   O  SGN B   7      62.718  -9.225  17.8560  0.00  0.00     0.000 OA
ENDBRANCH 124 134
BRANCH 120 140
ATOM    140  O4  IDS B   8      67.083  -5.541  19.6240  0.00  0.00     0.000 O
BRANCH 140 144
ATOM    141  C1  IDS B   8      70.503  -6.544  20.1360  0.00  0.00     0.000 C
ATOM    142  C2  IDS B   8      69.920  -6.392  18.7020  0.00  0.00     0.000 C
ATOM    143  C3  IDS B   8      68.566  -7.102  18.5220  0.00  0.00     0.000 C
ATOM    144  C4  IDS B   8      67.631  -6.863  19.7070  0.00  0.00     0.000 C
ATOM    145  C5  IDS B   8      68.396  -7.036  21.0280  0.00  0.00     0.000 C
ATOM    146  O5  IDS B   8      69.526  -6.170  21.1000  0.00  0.00     0.000 O
BRANCH 142 147
ATOM    147   O  IDS B   8      69.704  -4.951  18.4060  0.00  0.00     0.000 O
ATOM    148   S  IDS B   8      70.696  -4.145  17.4070  0.00  0.00     0.000 S
ATOM    149   O  IDS B   8      71.898  -4.932  17.2540  0.00  0.00     0.000 OA
ATOM    150   O  IDS B   8      69.959  -3.999  16.1650  0.00  0.00     0.000 OA
ATOM    151   O  IDS B   8      70.956  -2.880  18.0660  0.00  0.00     0.000 OA
ENDBRANCH 142 147
BRANCH 145 152
ATOM    152   C  IDS B   8      67.545  -6.714  22.2400  0.00  0.00     0.000 C
ATOM    153   O  IDS B   8      67.765  -5.690  22.8780  0.00  0.00     0.000 OA
ATOM    154   O  IDS B   8      66.640  -7.464  22.5560  0.00  0.00     0.000 OA
ENDBRANCH 145 152
ENDBRANCH 140 144
ENDBRANCH 120 140
ENDBRANCH 119 123
ENDBRANCH 103 119
ENDBRANCH 102 106
ENDBRANCH 82 102
ENDBRANCH 81 85
ENDBRANCH 65 81
ENDBRANCH 64 68
ENDBRANCH 41 64
ENDBRANCH 40 44
ENDBRANCH 24 40
ENDBRANCH 23 27
ENDBRANCH 1 23
TORSDOF 31
ENDMDL
MODEL 78
REMARK VINA RESULT:      -5.3     15.554     21.983
ROOT
ATOM      1  C1  SGN B   1      60.056  10.700  18.6120  0.00  0.00     0.000 C
ATOM      2  C2  SGN B   1      60.357  11.575  17.3840  0.00  0.00     0.000 C
ATOM      3  C3  SGN B   1      61.854  11.890  17.2950  0.00  0.00     0.000 C
ATOM      4  C4  SGN B   1      62.332  12.540  18.5900  0.00  0.00     0.000 C
ATOM      5  C5  SGN B   1      61.876  11.690  19.7730  0.00  0.00     0.000 C
ATOM      6  O5  SGN B   1      60.448  11.508  19.7130  0.00  0.00     0.000 O
ATOM      7   O  SGN B   1      62.122  12.737  16.1840  0.00  0.00     0.000 O
ATOM      9  HD  SGN B   1      61.590  13.230  16.6560  0.00  0.00     0.000 HD
ATOM      9   O  SGN B   1      63.744  12.637  18.5740  0.00  0.00     0.000 O
ATOM     11  HD  SGN B   1      63.212  13.130  19.0460  0.00  0.00     0.000 HD
ENDROOT
BRANCH 2 13
ATOM     11   N  SGN B   1      59.023  11.745  16.7760  0.00  0.00     0.000 N
ATOM     13  HD  SGN B   1      59.324  10.955  16.9630  0.00  0.00     0.000 HD
ATOM     13   S  SGN B   1      58.354  10.618  15.8430  0.00  0.00     0.000 S
ATOM     14   O  SGN B   1      59.197   9.491  15.7630  0.00  0.00     0.000 OA
ATOM     15   O  SGN B   1      56.997  10.451  16.2430  0.00  0.00     0.000 OA
ATOM     16   O  SGN B   1      58.344  11.416  14.5030  0.00  0.00     0.000 OA
ENDBRANCH 2 13
BRANCH 5 17
ATOM     17   C  SGN B   1      62.196  12.289  21.1200  0.00  0.00     0.000 C
ATOM     18   O  SGN B   1      61.689  11.462  22.1860  0.00  0.00     0.000 O
ATOM     19   S  SGN B   1      60.929  12.227  23.3670  0.00  0.00     0.000 S
ATOM     20   O  SGN B   1      60.736  11.228  24.3970  0.00  0.00     0.000 OA
ATOM     21   O  SGN B   1      61.839  13.282  23.7470  0.00  0.00     0.000 OA
ATOM     22   O  SGN B   1      59.695  12.699  22.7780  0.00  0.00     0.000 OA
ENDBRANCH 5 17
BRANCH 1 23
ATOM     23  O4  IDS B   2      59.976   9.389  18.9770  0.00  0.00     0.000 O
BRANCH 23 27
ATOM     24  C1  IDS B   2      58.823   5.862  20.8370  0.00  0.00     0.000 C
ATOM     25  C2  IDS B   2      58.020   7.119  21.2360  0.00  0.00     0.000 C
ATOM     26  C3  IDS B   2      58.318   8.280  20.2900  0.00  0.00     0.000 C
ATOM     27  C4  IDS B   2      59.802   8.603  20.1740  0.00  0.00     0.000 C
ATOM     28  C5  IDS B   2      60.629   7.302  20.2080  0.00  0.00     0.000 C
ATOM     29  O5  IDS B   2      59.827   6.182  19.8640  0.00  0.00     0.000 O
ATOM     30   O  IDS B   2      57.660   9.450  20.7620  0.00  0.00     0.000 O
ATOM     32  HD  IDS B   2      58.076   9.836  21.4160  0.00  0.00     0.000 HD
BRANCH 25 32
ATOM     32   O  IDS B   2      56.556   6.883  21.2070  0.00  0.00     0.000 O
ATOM     33   S  IDS B   2      55.622   7.035  22.5590  0.00  0.00     0.000 S
ATOM     34   O  IDS B   2      54.310   6.515  22.2050  0.00  0.00     0.000 OA
ATOM     35   O  IDS B   2      56.219   6.276  23.6480  0.00  0.00     0.000 OA
ATOM     36   O  IDS B   2      55.569   8.451  22.8390  0.00  0.00     0.000 OA
ENDBRANCH 25 32
BRANCH 28 37
ATOM     37   C  IDS B   2      61.923   7.248  19.3700  0.00  0.00     0.000 C
ATOM     38   O  IDS B   2      62.839   6.722  19.9570  0.00  0.00     0.000 OA
ATOM     39   O  IDS B   2      62.068   7.624  18.1810  0.00  0.00     0.000 OA
ENDBRANCH 28 37
BRANCH 24 40
ATOM     40  O4  SUS B   3      58.747   4.747  21.5940  0.00  0.00     0.000 O
BRANCH 40 44
ATOM     41  C1  SUS B   3      58.580   0.719  20.4580  0.00  0.00     0.000 C
ATOM     42  C2  SUS B   3      59.965   1.396  20.4510  0.00  0.00     0.000 C
ATOM     43  C3  SUS B   3      59.916   2.649  21.3220  0.00  0.00     0.000 C
ATOM     44  C4  SUS B   3      58.788   3.544  20.8340  0.00  0.00     0.000 C
ATOM     45  C5  SUS B   3      57.476   2.800  20.9770  0.00  0.00     0.000 C
ATOM     46  O5  SUS B   3      57.526   1.632  20.1330  0.00  0.00     0.000 O
BRANCH 42 49
ATOM     47   N  SUS B   3      60.930   0.344  20.8130  0.00  0.00     0.000 N
ATOM     49  HD  SUS B   3      61.411   0.487  21.5190  0.00  0.00     0.000 HD
ATOM     49   S  SUS B   3      61.914  -0.033  19.6070  0.00  0.00     0.000 S
ATOM     50   O  SUS B   3      62.607   1.116  19.1760  0.00  0.00     0.000 OA
ATOM     51   O  SUS B   3      62.851  -0.961  20.4240  0.00  0.00     0.000 OA
ATOM     52   O  SUS B   3      61.205  -0.770  18.6390  0.00  0.00     0.000 OA
ENDBRANCH 42 49
BRANCH 43 53
ATOM     53   O  SUS B   3      61.208   3.350  21.1830  0.00  0.00     0.000 O
ATOM     54   S  SUS B   3      62.212   3.336  22.4840  0.00  0.00     0.000 S
ATOM     55   O  SUS B   3      62.731   1.982  22.6200  0.00  0.00     0.000 OA
ATOM     56   O  SUS B   3      63.227   4.321  22.1570  0.00  0.00     0.000 OA
ATOM     57   O  SUS B   3      61.395   3.710  23.6430  0.00  0.00     0.000 OA
ENDBRANCH 43 53
BRANCH 45 58
ATOM     58   C  SUS B   3      56.291   3.664  20.6040  0.00  0.00     0.000 C
ATOM     59   S  SUS B   3      54.954   4.520  18.5870  0.00  0.00     0.000 S
ATOM     60   O  SUS B   3      56.023   3.524  19.1980  0.00  0.00     0.000 O
ATOM     61   O  SUS B   3      55.656   5.779  18.4290  0.00  0.00     0.000 OA
ATOM     62   O  SUS B   3      54.676   3.876  17.3320  0.00  0.00     0.000 OA
ATOM     63   O  SUS B   3      53.877   4.537  19.5130  0.00  0.00     0.000 OA
ENDBRANCH 45 58
BRANCH 41 64
ATOM     64  O4  IDS B   4      58.341  -0.039  21.5790  0.00  0.00     0.000 O
BRANCH 64 68
ATOM     65  C1  IDS B   4      57.154  -2.952  23.4180  0.00  0.00     0.000 C
ATOM     66  C2  IDS B   4      57.823  -3.123  22.0480  0.00  0.00     0.000 C
ATOM     67  C3  IDS B   4      57.320  -2.167  20.9800  0.00  0.00     0.000 C
ATOM     68  C4  IDS B   4      57.092  -0.763  21.5060  0.00  0.00     0.000 C
ATOM     69  C5  IDS B   4      56.368  -0.869  22.8550  0.00  0.00     0.000 C
ATOM     70  O5  IDS B   4      57.195  -1.583  23.7770  0.00  0.00     0.000 O
ATOM     71   O  IDS B   4      56.107  -2.694  20.4830  0.00  0.00     0.000 O
ATOM     73  HD  IDS B   4      56.866  -2.722  20.8990  0.00  0.00     0.000 HD
BRANCH 66 73
ATOM     73   O  IDS B   4      59.258  -2.838  22.1830  0.00  0.00     0.000 O
ATOM     74   S  IDS B   4      60.303  -3.867  21.5000  0.00  0.00     0.000 S
ATOM     75   O  IDS B   4      60.013  -5.173  22.0520  0.00  0.00     0.000 OA
ATOM     76   O  IDS B   4      61.571  -3.322  21.9170  0.00  0.00     0.000 OA
ATOM     77   O  IDS B   4      60.058  -3.779  20.0800  0.00  0.00     0.000 OA
ENDBRANCH 66 73
BRANCH 69 78
ATOM     78   C  IDS B   4      55.871   0.459  23.4090  0.00  0.00     0.000 C
ATOM     79   O  IDS B   4      54.723   0.816  23.1470  0.00  0.00     0.000 OA
ATOM     80   O  IDS B   4      56.603   1.088  24.1950  0.00  0.00     0.000 OA
ENDBRANCH 69 78
BRANCH 65 81
ATOM     81  O4  SGN B   5      55.929  -3.546  23.4010  0.00  0.00     0.000 O
BRANCH 81 85
ATOM     82  C1  SGN B   5      52.761  -4.669  25.9190  0.00  0.00     0.000 C
ATOM     83  C2  SGN B   5      52.626  -3.327  25.1830  0.00  0.00     0.000 C
ATOM     84  C3  SGN B   5      53.597  -3.293  23.9950  0.00  0.00     0.000 C
ATOM     85  C4  SGN B   5      55.006  -3.562  24.4920  0.00  0.00     0.000 C
ATOM     86  C5  SGN B   5      55.020  -4.925  25.1800  0.00  0.00     0.000 C
ATOM     87  O5  SGN B   5      54.107  -4.890  26.2940  0.00  0.00     0.000 O
ATOM     88   O  SGN B   5      53.520  -2.041  23.3490  0.00  0.00     0.000 O
ATOM     90  HD  SGN B   5      53.150  -2.774  23.0700  0.00  0.00     0.000 HD
BRANCH 83 92
ATOM     90   N  SGN B   5      51.154  -3.441  25.1980  0.00  0.00     0.000 N
ATOM     92  HD  SGN B   5      50.905  -4.217  25.4890  0.00  0.00     0.000 HD
ATOM     92   S  SGN B   5      50.311  -2.205  25.7600  0.00  0.00     0.000 S
ATOM     93   O  SGN B   5      48.947  -2.626  25.6460  0.00  0.00     0.000 OA
ATOM     94   O  SGN B   5      50.862  -1.911  27.0380  0.00  0.00     0.000 OA
ATOM     95   O  SGN B   5      50.658  -1.053  24.8420  0.00  0.00     0.000 OA
ENDBRANCH 83 92
BRANCH 86 96
ATOM     96   C  SGN B   5      56.374  -5.335  25.7190  0.00  0.00     0.000 C
ATOM     97   O  SGN B   5      56.569  -6.743  25.5700  0.00  0.00     0.000 O
ATOM     98   S  SGN B   5      57.940  -7.196  24.8710  0.00  0.00     0.000 S
ATOM     99   O  SGN B   5      57.931  -8.628  25.0520  0.00  0.00     0.000 OA
ATOM    100   O  SGN B   5      57.891  -6.769  23.5190  0.00  0.00     0.000 OA
ATOM    101   O  SGN B   5      58.957  -6.538  25.6260  0.00  0.00     0.000 OA
ENDBRANCH 86 96
BRANCH 82 102
ATOM    102  O4  IDS B   6      52.294  -5.718  25.1850  0.00  0.00     0.000 O
BRANCH 102 106
ATOM    103  C1  IDS B   6      49.972  -8.441  24.5140  0.00  0.00     0.000 C
ATOM    104  C2  IDS B   6      49.471  -7.102  25.0760  0.00  0.00     0.000 C
ATOM    105  C3  IDS B   6      50.268  -6.557  26.2450  0.00  0.00     0.000 C
ATOM    106  C4  IDS B   6      51.766  -6.739  26.0690  0.00  0.00     0.000 C
ATOM    107  C5  IDS B   6      52.055  -8.139  25.5200  0.00  0.00     0.000 C
ATOM    108  O5  IDS B   6      51.368  -8.382  24.2910  0.00  0.00     0.000 O
ATOM    109   O  IDS B   6      49.818  -7.201  27.4250  0.00  0.00     0.000 O
ATOM    111  HD  IDS B   6      49.467  -7.939  27.1390  0.00  0.00     0.000 HD
BRANCH 104 111
ATOM    111   O  IDS B   6      49.568  -6.075  24.0270  0.00  0.00     0.000 O
ATOM    112   S  IDS B   6      48.225  -5.637  23.2750  0.00  0.00     0.000 S
ATOM    113   O  IDS B   6      47.713  -6.868  22.6920  0.00  0.00     0.000 OA
ATOM    114   O  IDS B   6      47.331  -5.004  24.2520  0.00  0.00     0.000 OA
ATOM    115   O  IDS B   6      48.787  -4.718  22.3080  0.00  0.00     0.000 OA
ENDBRANCH 104 111
BRANCH 107 116
ATOM    116   C  IDS B   6      53.556  -8.299  25.3130  0.00  0.00     0.000 C
ATOM    117   O  IDS B   6      54.229  -8.430  26.3040  0.00  0.00     0.000 OA
ATOM    118   O  IDS B   6      54.049  -8.283  24.1960  0.00  0.00     0.000 OA
ENDBRANCH 107 116
BRANCH 103 119
ATOM    119  O4  SGN B   7      49.428  -9.364  25.3480  0.00  0.00     0.000 O
BRANCH 119 123
ATOM    120  C1  SGN B   7      47.945 -13.260  25.0200  0.00  0.00     0.000 C
ATOM    121  C2  SGN B   7      49.467 -13.063  24.8880  0.00  0.00     0.000 C
ATOM    122  C3  SGN B   7      49.879 -11.686  25.4240  0.00  0.00     0.000 C
ATOM    123  C4  SGN B   7      49.057 -10.603  24.7440  0.00  0.00     0.000 C
ATOM    124  C5  SGN B   7      47.558 -10.894  24.9270  0.00  0.00     0.000 C
ATOM    125  O5  SGN B   7      47.215 -12.198  24.4080  0.00  0.00     0.000 O
ATOM    126   O  SGN B   7      51.280 -11.497  25.1950  0.00  0.00     0.000 O
ATOM    128  HD  SGN B   7      50.600 -12.034  25.1940  0.00  0.00     0.000 HD
BRANCH 121 130
ATOM    128   N  SGN B   7      49.611 -14.417  24.3490  0.00  0.00     0.000 N
ATOM    130  HD  SGN B   7      50.305 -14.169  23.8930  0.00  0.00     0.000 HD
ATOM    130   S  SGN B   7      50.786 -15.410  24.8240  0.00  0.00     0.000 S
ATOM    131   O  SGN B   7      50.733 -15.396  26.2460  0.00  0.00     0.000 OA
ATOM    132   O  SGN B   7      50.654 -16.631  24.1130  0.00  0.00     0.000 OA
ATOM    133   O  SGN B   7      52.027 -14.708  24.1760  0.00  0.00     0.000 OA
ENDBRANCH 121 130
BRANCH 124 134
ATOM    134   C  SGN B   7      46.661  -9.941  24.1920  0.00  0.00     0.000 C
ATOM    135   O  SGN B   7      45.582 -10.689  23.6050  0.00  0.00     0.000 O
ATOM    136   S  SGN B   7      44.445  -9.853  22.9170  0.00  0.00     0.000 S
ATOM    137   O  SGN B   7      43.543 -10.809  22.3190  0.00  0.00     0.000 OA
ATOM    138   O  SGN B   7      45.119  -9.026  21.9420  0.00  0.00     0.000 OA
ATOM    139   O  SGN B   7      43.873  -9.121  24.0360  0.00  0.00     0.000 OA
ENDBRANCH 124 134
BRANCH 120 140
ATOM    140  O4  IDS B   8      47.226 -13.389  26.1410  0.00  0.00     0.000 O
BRANCH 140 144
ATOM    141  C1  IDS B   8      46.077 -12.745  29.4920  0.00  0.00     0.000 C
ATOM    142  C2  IDS B   8      47.587 -12.643  29.1300  0.00  0.00     0.000 C
ATOM    143  C3  IDS B   8      48.103 -13.862  28.3450  0.00  0.00     0.000 C
ATOM    144  C4  IDS B   8      47.129 -14.293  27.2490  0.00  0.00     0.000 C
ATOM    145  C5  IDS B   8      45.693 -14.308  27.7940  0.00  0.00     0.000 C
ATOM    146  O5  IDS B   8      45.317 -13.040  28.3260  0.00  0.00     0.000 O
BRANCH 142 147
ATOM    147   O  IDS B   8      47.812 -11.444  28.2800  0.00  0.00     0.000 O
ATOM    148   S  IDS B   8      48.371 -10.061  28.9170  0.00  0.00     0.000 S
ATOM    149   O  IDS B   8      48.199 -10.137  30.3500  0.00  0.00     0.000 OA
ATOM    150   O  IDS B   8      49.766  -9.989  28.5220  0.00  0.00     0.000 OA
ATOM    151   O  IDS B   8      47.558  -9.014  28.3280  0.00  0.00     0.000 OA
ENDBRANCH 142 147
BRANCH 145 152
ATOM    152   C  IDS B   8      44.668 -14.632  26.7260  0.00  0.00     0.000 C
ATOM    153   O  IDS B   8      43.900 -15.573  26.8900  0.00  0.00     0.000 OA
ATOM    154   O  IDS B   8      44.603 -13.942  25.7240  0.00  0.00     0.000 OA
ENDBRANCH 145 152
ENDBRANCH 140 144
ENDBRANCH 120 140
ENDBRANCH 119 123
ENDBRANCH 103 119
ENDBRANCH 102 106
ENDBRANCH 82 102
ENDBRANCH 81 85
ENDBRANCH 65 81
ENDBRANCH 64 68
ENDBRANCH 41 64
ENDBRANCH 40 44
ENDBRANCH 24 40
ENDBRANCH 23 27
ENDBRANCH 1 23
TORSDOF 31
ENDMDL
MODEL 79
REMARK VINA RESULT:      -5.3     16.246     20.908
ROOT
ATOM      1  C1  SGN B   1      59.851  10.597  18.2270  0.00  0.00     0.000 C
ATOM      2  C2  SGN B   1      60.389  11.436  17.0570  0.00  0.00     0.000 C
ATOM      3  C3  SGN B   1      61.853  11.823  17.2950  0.00  0.00     0.000 C
ATOM      4  C4  SGN B   1      61.996  12.547  18.6300  0.00  0.00     0.000 C
ATOM      5  C5  SGN B   1      61.315  11.723  19.7200  0.00  0.00     0.000 C
ATOM      6  O5  SGN B   1      59.948  11.467  19.3470  0.00  0.00     0.000 O
ATOM      7   O  SGN B   1      62.334  12.637  16.2320  0.00  0.00     0.000 O
ATOM      9  HD  SGN B   1      61.689  13.121  16.5460  0.00  0.00     0.000 HD
ATOM      9   O  SGN B   1      63.369  12.715  18.9300  0.00  0.00     0.000 O
ATOM     11  HD  SGN B   1      62.724  13.199  19.2440  0.00  0.00     0.000 HD
ENDROOT
BRANCH 2 13
ATOM     11   N  SGN B   1      59.292  11.552  16.0780  0.00  0.00     0.000 N
ATOM     13  HD  SGN B   1      59.474  10.790  16.4470  0.00  0.00     0.000 HD
ATOM     13   S  SGN B   1      58.833  10.319  15.1530  0.00  0.00     0.000 S
ATOM     14   O  SGN B   1      59.586   9.168  15.4680  0.00  0.00     0.000 OA
ATOM     15   O  SGN B   1      57.410  10.250  15.1680  0.00  0.00     0.000 OA
ATOM     16   O  SGN B   1      59.250  10.910  13.7710  0.00  0.00     0.000 OA
ENDBRANCH 2 13
BRANCH 5 17
ATOM     17   C  SGN B   1      61.295  12.391  21.0730  0.00  0.00     0.000 C
ATOM     18   O  SGN B   1      60.996  11.439  22.1130  0.00  0.00     0.000 O
ATOM     19   S  SGN B   1      59.921  11.903  23.2010  0.00  0.00     0.000 S
ATOM     20   O  SGN B   1      59.976  10.895  24.2380  0.00  0.00     0.000 OA
ATOM     21   O  SGN B   1      60.391  13.200  23.6300  0.00  0.00     0.000 OA
ATOM     22   O  SGN B   1      58.659  11.940  22.4950  0.00  0.00     0.000 OA
ENDBRANCH 5 17
BRANCH 1 23
ATOM     23  O4  IDS B   2      59.742   9.299  18.6300  0.00  0.00     0.000 O
BRANCH 23 27
ATOM     24  C1  IDS B   2      58.792   5.698  20.4630  0.00  0.00     0.000 C
ATOM     25  C2  IDS B   2      57.668   6.756  20.4490  0.00  0.00     0.000 C
ATOM     26  C3  IDS B   2      58.012   7.906  19.5070  0.00  0.00     0.000 C
ATOM     27  C4  IDS B   2      59.357   8.554  19.8040  0.00  0.00     0.000 C
ATOM     28  C5  IDS B   2      60.374   7.480  20.2400  0.00  0.00     0.000 C
ATOM     29  O5  IDS B   2      59.968   6.190  19.8060  0.00  0.00     0.000 O
ATOM     30   O  IDS B   2      57.015   8.916  19.6160  0.00  0.00     0.000 O
ATOM     32  HD  IDS B   2      57.114   9.419  20.3140  0.00  0.00     0.000 HD
BRANCH 25 32
ATOM     32   O  IDS B   2      56.369   6.190  20.0100  0.00  0.00     0.000 O
ATOM     33   S  IDS B   2      55.033   6.217  20.9780  0.00  0.00     0.000 S
ATOM     34   O  IDS B   2      54.037   5.388  20.3180  0.00  0.00     0.000 OA
ATOM     35   O  IDS B   2      55.377   5.692  22.2920  0.00  0.00     0.000 OA
ATOM     36   O  IDS B   2      54.617   7.600  21.0300  0.00  0.00     0.000 OA
ENDBRANCH 25 32
BRANCH 28 37
ATOM     37   C  IDS B   2      61.851   7.682  19.8430  0.00  0.00     0.000 C
ATOM     38   O  IDS B   2      62.228   6.881  19.0200  0.00  0.00     0.000 OA
ATOM     39   O  IDS B   2      62.620   8.595  20.2330  0.00  0.00     0.000 OA
ENDBRANCH 28 37
BRANCH 24 40
ATOM     40  O4  SUS B   3      58.705   4.634  21.2890  0.00  0.00     0.000 O
BRANCH 40 44
ATOM     41  C1  SUS B   3      60.113   0.716  20.8260  0.00  0.00     0.000 C
ATOM     42  C2  SUS B   3      61.166   1.825  21.0230  0.00  0.00     0.000 C
ATOM     43  C3  SUS B   3      60.496   3.050  21.6410  0.00  0.00     0.000 C
ATOM     44  C4  SUS B   3      59.321   3.462  20.7670  0.00  0.00     0.000 C
ATOM     45  C5  SUS B   3      58.319   2.327  20.7280  0.00  0.00     0.000 C
ATOM     46  O5  SUS B   3      58.956   1.184  20.1230  0.00  0.00     0.000 O
BRANCH 42 49
ATOM     47   N  SUS B   3      62.564   2.275  21.1280  0.00  0.00     0.000 N
ATOM     49  HD  SUS B   3      62.795   2.942  20.6250  0.00  0.00     0.000 HD
ATOM     49   S  SUS B   3      63.615   1.089  20.8950  0.00  0.00     0.000 S
ATOM     50   O  SUS B   3      63.400   0.500  19.6320  0.00  0.00     0.000 OA
ATOM     51   O  SUS B   3      64.886   1.976  20.8750  0.00  0.00     0.000 OA
ATOM     52   O  SUS B   3      63.618   0.240  22.0190  0.00  0.00     0.000 OA
ENDBRANCH 42 49
BRANCH 43 53
ATOM     53   O  SUS B   3      61.493   4.138  21.6870  0.00  0.00     0.000 O
ATOM     54   S  SUS B   3      61.862   4.755  23.1650  0.00  0.00     0.000 S
ATOM     55   O  SUS B   3      62.632   3.745  23.8790  0.00  0.00     0.000 OA
ATOM     56   O  SUS B   3      62.612   5.961  22.8650  0.00  0.00     0.000 OA
ATOM     57   O  SUS B   3      60.585   5.020  23.8350  0.00  0.00     0.000 OA
ENDBRANCH 43 53
BRANCH 45 58
ATOM     58   C  SUS B   3      57.071   2.699  19.9570  0.00  0.00     0.000 C
ATOM     59   S  SUS B   3      55.583   1.940  18.0090  0.00  0.00     0.000 S
ATOM     60   O  SUS B   3      56.735   1.634  19.0520  0.00  0.00     0.000 O
ATOM     61   O  SUS B   3      56.207   2.750  16.9810  0.00  0.00     0.000 OA
ATOM     62   O  SUS B   3      55.272   0.611  17.5570  0.00  0.00     0.000 OA
ATOM     63   O  SUS B   3      54.559   2.585  18.7530  0.00  0.00     0.000 OA
ENDBRANCH 45 58
BRANCH 41 64
ATOM     64  O4  IDS B   4      59.828   0.014  21.9720  0.00  0.00     0.000 O
BRANCH 64 68
ATOM     65  C1  IDS B   4      59.290  -2.780  24.2480  0.00  0.00     0.000 C
ATOM     66  C2  IDS B   4      60.680  -2.528  23.6490  0.00  0.00     0.000 C
ATOM     67  C3  IDS B   4      60.679  -2.260  22.1530  0.00  0.00     0.000 C
ATOM     68  C4  IDS B   4      59.527  -1.376  21.7130  0.00  0.00     0.000 C
ATOM     69  C5  IDS B   4      58.253  -1.866  22.4140  0.00  0.00     0.000 C
ATOM     70  O5  IDS B   4      58.419  -1.745  23.8290  0.00  0.00     0.000 O
ATOM     71   O  IDS B   4      60.595  -3.512  21.5030  0.00  0.00     0.000 O
ATOM     73  HD  IDS B   4      60.744  -2.979  22.1690  0.00  0.00     0.000 HD
BRANCH 66 73
ATOM     73   O  IDS B   4      61.248  -1.320  24.2620  0.00  0.00     0.000 O
ATOM     74   S  IDS B   4      62.495  -1.501  25.2770  0.00  0.00     0.000 S
ATOM     75   O  IDS B   4      62.052  -2.410  26.3130  0.00  0.00     0.000 OA
ATOM     76   O  IDS B   4      62.704  -0.149  25.7320  0.00  0.00     0.000 OA
ATOM     77   O  IDS B   4      63.572  -2.030  24.4750  0.00  0.00     0.000 OA
ENDBRANCH 66 73
BRANCH 69 78
ATOM     78   C  IDS B   4      56.970  -1.221  21.9110  0.00  0.00     0.000 C
ATOM     79   O  IDS B   4      56.215  -0.692  22.7260  0.00  0.00     0.000 OA
ATOM     80   O  IDS B   4      56.777  -1.156  20.6830  0.00  0.00     0.000 OA
ENDBRANCH 69 78
BRANCH 65 81
ATOM     81  O4  SGN B   5      58.903  -4.057  23.9750  0.00  0.00     0.000 O
BRANCH 81 85
ATOM     82  C1  SGN B   5      56.418  -7.149  25.3530  0.00  0.00     0.000 C
ATOM     83  C2  SGN B   5      55.847  -5.723  25.3960  0.00  0.00     0.000 C
ATOM     84  C3  SGN B   5      56.658  -4.818  24.4580  0.00  0.00     0.000 C
ATOM     85  C4  SGN B   5      58.125  -4.885  24.8420  0.00  0.00     0.000 C
ATOM     86  C5  SGN B   5      58.581  -6.338  24.7390  0.00  0.00     0.000 C
ATOM     87  O5  SGN B   5      57.801  -7.133  25.6520  0.00  0.00     0.000 O
ATOM     88   O  SGN B   5      56.175  -3.494  24.5350  0.00  0.00     0.000 O
ATOM     90  HD  SGN B   5      56.002  -4.056  23.8990  0.00  0.00     0.000 HD
BRANCH 83 92
ATOM     90   N  SGN B   5      54.779  -6.487  26.0700  0.00  0.00     0.000 N
ATOM     92  HD  SGN B   5      55.089  -6.918  26.7540  0.00  0.00     0.000 HD
ATOM     92   S  SGN B   5      53.374  -5.763  26.3070  0.00  0.00     0.000 S
ATOM     93   O  SGN B   5      52.576  -6.748  26.9740  0.00  0.00     0.000 OA
ATOM     94   O  SGN B   5      53.677  -4.534  26.9550  0.00  0.00     0.000 OA
ATOM     95   O  SGN B   5      52.873  -5.431  24.9180  0.00  0.00     0.000 OA
ENDBRANCH 83 92
BRANCH 86 96
ATOM     96   C  SGN B   5      60.040  -6.557  25.0840  0.00  0.00     0.000 C
ATOM     97   O  SGN B   5      60.549  -7.709  24.4070  0.00  0.00     0.000 O
ATOM     98   S  SGN B   5      61.915  -7.502  23.5920  0.00  0.00     0.000 S
ATOM     99   O  SGN B   5      62.264  -8.850  23.2100  0.00  0.00     0.000 OA
ATOM    100   O  SGN B   5      61.636  -6.632  22.5070  0.00  0.00     0.000 OA
ATOM    101   O  SGN B   5      62.813  -6.934  24.5440  0.00  0.00     0.000 OA
ENDBRANCH 86 96
BRANCH 82 102
ATOM    102  O4  IDS B   6      56.198  -7.766  24.1580  0.00  0.00     0.000 O
BRANCH 102 106
ATOM    103  C1  IDS B   6      55.132 -10.844  22.5310  0.00  0.00     0.000 C
ATOM    104  C2  IDS B   6      54.739 -10.548  23.9870  0.00  0.00     0.000 C
ATOM    105  C3  IDS B   6      55.872 -10.071  24.8740  0.00  0.00     0.000 C
ATOM    106  C4  IDS B   6      56.793  -9.089  24.1720  0.00  0.00     0.000 C
ATOM    107  C5  IDS B   6      57.077  -9.574  22.7480  0.00  0.00     0.000 C
ATOM    108  O5  IDS B   6      55.874  -9.764  22.0000  0.00  0.00     0.000 O
ATOM    109   O  IDS B   6      56.593 -11.208  25.3190  0.00  0.00     0.000 O
ATOM    111  HD  IDS B   6      56.415 -11.813  24.7250  0.00  0.00     0.000 HD
BRANCH 104 111
ATOM    111   O  IDS B   6      53.748  -9.461  24.0040  0.00  0.00     0.000 O
ATOM    112   S  IDS B   6      52.314  -9.759  24.6500  0.00  0.00     0.000 S
ATOM    113   O  IDS B   6      51.788 -10.872  23.8750  0.00  0.00     0.000 OA
ATOM    114   O  IDS B   6      52.497 -10.039  26.0790  0.00  0.00     0.000 OA
ATOM    115   O  IDS B   6      51.667  -8.494  24.3760  0.00  0.00     0.000 OA
ENDBRANCH 104 111
BRANCH 107 116
ATOM    116   C  IDS B   6      57.972  -8.564  22.0400  0.00  0.00     0.000 C
ATOM    117   O  IDS B   6      59.106  -8.906  21.8200  0.00  0.00     0.000 OA
ATOM    118   O  IDS B   6      57.557  -7.461  21.7220  0.00  0.00     0.000 OA
ENDBRANCH 107 116
BRANCH 103 119
ATOM    119  O4  SGN B   7      55.650 -12.098  22.5880  0.00  0.00     0.000 O
BRANCH 119 123
ATOM    120  C1  SGN B   7      55.721 -15.466  20.1090  0.00  0.00     0.000 C
ATOM    121  C2  SGN B   7      56.682 -14.311  19.7710  0.00  0.00     0.000 C
ATOM    122  C3  SGN B   7      56.824 -13.361  20.9670  0.00  0.00     0.000 C
ATOM    123  C4  SGN B   7      55.450 -12.904  21.4260  0.00  0.00     0.000 C
ATOM    124  C5  SGN B   7      54.567 -14.125  21.7310  0.00  0.00     0.000 C
ATOM    125  O5  SGN B   7      54.461 -14.990  20.5780  0.00  0.00     0.000 O
ATOM    126   O  SGN B   7      57.644 -12.250  20.5850  0.00  0.00     0.000 O
ATOM    128  HD  SGN B   7      57.334 -13.036  20.3940  0.00  0.00     0.000 HD
BRANCH 121 130
ATOM    128   N  SGN B   7      57.226 -15.314  18.8520  0.00  0.00     0.000 N
ATOM    130  HD  SGN B   7      56.833 -14.926  18.1840  0.00  0.00     0.000 HD
ATOM    130   S  SGN B   7      58.415 -14.979  17.8190  0.00  0.00     0.000 S
ATOM    131   O  SGN B   7      59.427 -14.360  18.6050  0.00  0.00     0.000 OA
ATOM    132   O  SGN B   7      58.703 -16.152  17.0740  0.00  0.00     0.000 OA
ATOM    133   O  SGN B   7      57.660 -14.046  16.8130  0.00  0.00     0.000 OA
ENDBRANCH 121 130
BRANCH 124 134
ATOM    134   C  SGN B   7      53.151 -13.778  22.0820  0.00  0.00     0.000 C
ATOM    135   O  SGN B   7      52.271 -14.521  21.2210  0.00  0.00     0.000 O
ATOM    136   S  SGN B   7      50.734 -14.415  21.5310  0.00  0.00     0.000 S
ATOM    137   O  SGN B   7      50.058 -15.148  20.4870  0.00  0.00     0.000 OA
ATOM    138   O  SGN B   7      50.441 -13.000  21.5080  0.00  0.00     0.000 OA
ATOM    139   O  SGN B   7      50.637 -15.029  22.8460  0.00  0.00     0.000 OA
ENDBRANCH 124 134
BRANCH 120 140
ATOM    140  O4  IDS B   8      55.907 -16.462  20.9830  0.00  0.00     0.000 O
BRANCH 140 144
ATOM    141  C1  IDS B   8      56.901 -18.094  24.0330  0.00  0.00     0.000 C
ATOM    142  C2  IDS B   8      57.751 -16.940  23.4310  0.00  0.00     0.000 C
ATOM    143  C3  IDS B   8      58.034 -17.120  21.9280  0.00  0.00     0.000 C
ATOM    144  C4  IDS B   8      56.793 -17.574  21.1620  0.00  0.00     0.000 C
ATOM    145  C5  IDS B   8      56.080 -18.698  21.9280  0.00  0.00     0.000 C
ATOM    146  O5  IDS B   8      55.731 -18.297  23.2500  0.00  0.00     0.000 O
BRANCH 142 147
ATOM    147   O  IDS B   8      57.024 -15.653  23.5910  0.00  0.00     0.000 O
ATOM    148   S  IDS B   8      57.387 -14.632  24.7980  0.00  0.00     0.000 S
ATOM    149   O  IDS B   8      58.157 -15.367  25.7760  0.00  0.00     0.000 OA
ATOM    150   O  IDS B   8      58.141 -13.557  24.1820  0.00  0.00     0.000 OA
ATOM    151   O  IDS B   8      56.108 -14.200  25.3290  0.00  0.00     0.000 OA
ENDBRANCH 142 147
BRANCH 145 152
ATOM    152   C  IDS B   8      54.784 -19.124  21.2670  0.00  0.00     0.000 C
ATOM    153   O  IDS B   8      53.728 -19.014  21.8790  0.00  0.00     0.000 OA
ATOM    154   O  IDS B   8      54.803 -19.552  20.1260  0.00  0.00     0.000 OA
ENDBRANCH 145 152
ENDBRANCH 140 144
ENDBRANCH 120 140
ENDBRANCH 119 123
ENDBRANCH 103 119
ENDBRANCH 102 106
ENDBRANCH 82 102
ENDBRANCH 81 85
ENDBRANCH 65 81
ENDBRANCH 64 68
ENDBRANCH 41 64
ENDBRANCH 40 44
ENDBRANCH 24 40
ENDBRANCH 23 27
ENDBRANCH 1 23
TORSDOF 31
ENDMDL
MODEL 80
REMARK VINA RESULT:      -5.2     13.361     25.830
ROOT
ATOM      1  C1  SGN B   1      57.765  -2.729  21.6360  0.00  0.00     0.000 C
ATOM      2  C2  SGN B   1      58.986  -3.262  22.4020  0.00  0.00     0.000 C
ATOM      3  C3  SGN B   1      58.700  -4.654  22.9780  0.00  0.00     0.000 C
ATOM      4  C4  SGN B   1      57.451  -4.616  23.8510  0.00  0.00     0.000 C
ATOM      5  C5  SGN B   1      56.319  -3.945  23.0750  0.00  0.00     0.000 C
ATOM      6  O5  SGN B   1      56.748  -2.646  22.6250  0.00  0.00     0.000 O
ATOM      7   O  SGN B   1      59.816  -5.126  23.7240  0.00  0.00     0.000 O
ATOM      9  HD  SGN B   1      59.602  -4.410  24.1610  0.00  0.00     0.000 HD
ATOM      9   O  SGN B   1      57.084  -5.936  24.2060  0.00  0.00     0.000 O
ATOM     11  HD  SGN B   1      56.870  -5.220  24.6440  0.00  0.00     0.000 HD
ENDROOT
BRANCH 2 13
ATOM     11   N  SGN B   1      60.058  -2.254  22.2930  0.00  0.00     0.000 N
ATOM     13  HD  SGN B   1      59.578  -2.463  21.6030  0.00  0.00     0.000 HD
ATOM     13   S  SGN B   1      60.847  -1.985  20.9170  0.00  0.00     0.000 S
ATOM     14   O  SGN B   1      60.323  -2.797  19.8900  0.00  0.00     0.000 OA
ATOM     15   O  SGN B   1      60.938  -0.577  20.7190  0.00  0.00     0.000 OA
ATOM     16   O  SGN B   1      62.256  -2.478  21.3680  0.00  0.00     0.000 OA
ENDBRANCH 2 13
BRANCH 5 17
ATOM     17   C  SGN B   1      55.056  -3.750  23.8760  0.00  0.00     0.000 C
ATOM     18   O  SGN B   1      55.361  -3.473  25.2580  0.00  0.00     0.000 O
ATOM     19   S  SGN B   1      54.495  -4.271  26.3400  0.00  0.00     0.000 S
ATOM     20   O  SGN B   1      54.820  -3.654  27.6090  0.00  0.00     0.000 OA
ATOM     21   O  SGN B   1      53.128  -4.056  25.9260  0.00  0.00     0.000 OA
ATOM     22   O  SGN B   1      54.933  -5.646  26.2350  0.00  0.00     0.000 OA
ENDBRANCH 5 17
BRANCH 1 23
ATOM     23  O4  IDS B   2      57.224  -2.729  20.3840  0.00  0.00     0.000 O
BRANCH 23 27
ATOM     24  C1  IDS B   2      54.049  -0.058  20.2740  0.00  0.00     0.000 C
ATOM     25  C2  IDS B   2      53.683  -1.539  20.0320  0.00  0.00     0.000 C
ATOM     26  C3  IDS B   2      54.852  -2.454  20.3860  0.00  0.00     0.000 C
ATOM     27  C4  IDS B   2      56.145  -2.094  19.6670  0.00  0.00     0.000 C
ATOM     28  C5  IDS B   2      56.272  -0.562  19.5470  0.00  0.00     0.000 C
ATOM     29  O5  IDS B   2      55.456   0.091  20.5070  0.00  0.00     0.000 O
ATOM     30   O  IDS B   2      54.522  -3.793  20.0330  0.00  0.00     0.000 O
ATOM     32  HD  IDS B   2      54.612  -3.955  19.1870  0.00  0.00     0.000 HD
BRANCH 25 32
ATOM     32   O  IDS B   2      52.516  -1.969  20.8420  0.00  0.00     0.000 O
ATOM     33   S  IDS B   2      51.164  -2.611  20.1490  0.00  0.00     0.000 S
ATOM     34   O  IDS B   2      50.169  -2.697  21.2060  0.00  0.00     0.000 OA
ATOM     35   O  IDS B   2      50.717  -1.746  19.0660  0.00  0.00     0.000 OA
ATOM     36   O  IDS B   2      51.550  -3.922  19.6820  0.00  0.00     0.000 OA
ENDBRANCH 25 32
BRANCH 28 37
ATOM     37   C  IDS B   2      57.686   0.051  19.6150  0.00  0.00     0.000 C
ATOM     38   O  IDS B   2      57.887   0.650  20.6460  0.00  0.00     0.000 OA
ATOM     39   O  IDS B   2      58.605  -0.073  18.7690  0.00  0.00     0.000 OA
ENDBRANCH 28 37
BRANCH 24 40
ATOM     40  O4  SUS B   3      53.168   0.913  19.9560  0.00  0.00     0.000 O
BRANCH 40 44
ATOM     41  C1  SUS B   3      52.416   4.481  22.0180  0.00  0.00     0.000 C
ATOM     42  C2  SUS B   3      53.263   4.574  20.7330  0.00  0.00     0.000 C
ATOM     43  C3  SUS B   3      53.032   3.325  19.8860  0.00  0.00     0.000 C
ATOM     44  C4  SUS B   3      53.325   2.096  20.7320  0.00  0.00     0.000 C
ATOM     45  C5  SUS B   3      52.371   2.071  21.9080  0.00  0.00     0.000 C
ATOM     46  O5  SUS B   3      52.615   3.244  22.7110  0.00  0.00     0.000 O
BRANCH 42 49
ATOM     47   N  SUS B   3      53.824   5.819  21.2880  0.00  0.00     0.000 N
ATOM     49  HD  SUS B   3      53.354   6.217  21.8970  0.00  0.00     0.000 HD
ATOM     49   S  SUS B   3      54.184   6.893  20.1550  0.00  0.00     0.000 S
ATOM     50   O  SUS B   3      53.035   7.189  19.3930  0.00  0.00     0.000 OA
ATOM     51   O  SUS B   3      54.518   8.062  21.1170  0.00  0.00     0.000 OA
ATOM     52   O  SUS B   3      55.336   6.473  19.4620  0.00  0.00     0.000 OA
ENDBRANCH 42 49
BRANCH 43 53
ATOM     53   O  SUS B   3      53.957   3.376  18.7370  0.00  0.00     0.000 O
ATOM     54   S  SUS B   3      53.287   3.495  17.2410  0.00  0.00     0.000 S
ATOM     55   O  SUS B   3      52.735   4.836  17.1150  0.00  0.00     0.000 OA
ATOM     56   O  SUS B   3      54.394   3.230  16.3380  0.00  0.00     0.000 OA
ATOM     57   O  SUS B   3      52.233   2.479  17.1760  0.00  0.00     0.000 OA
ENDBRANCH 43 53
BRANCH 45 58
ATOM     58   C  SUS B   3      52.535   0.821  22.7450  0.00  0.00     0.000 C
ATOM     59   S  SUS B   3      53.384  -0.004  25.0210  0.00  0.00     0.000 S
ATOM     60   O  SUS B   3      52.954   1.187  24.0700  0.00  0.00     0.000 O
ATOM     61   O  SUS B   3      54.721  -0.368  24.5930  0.00  0.00     0.000 OA
ATOM     62   O  SUS B   3      53.371   0.656  26.2990  0.00  0.00     0.000 OA
ATOM     63   O  SUS B   3      52.395  -1.008  24.8450  0.00  0.00     0.000 OA
ENDBRANCH 45 58
BRANCH 41 64
ATOM     64  O4  IDS B   4      51.097   4.818  21.8370  0.00  0.00     0.000 O
BRANCH 64 68
ATOM     65  C1  IDS B   4      47.792   6.229  22.4350  0.00  0.00     0.000 C
ATOM     66  C2  IDS B   4      48.998   7.152  22.2160  0.00  0.00     0.000 C
ATOM     67  C3  IDS B   4      50.234   6.769  23.0110  0.00  0.00     0.000 C
ATOM     68  C4  IDS B   4      50.466   5.270  23.0560  0.00  0.00     0.000 C
ATOM     69  C5  IDS B   4      49.121   4.587  23.3360  0.00  0.00     0.000 C
ATOM     70  O5  IDS B   4      48.211   4.886  22.2750  0.00  0.00     0.000 O
ATOM     71   O  IDS B   4      50.059   7.264  24.3230  0.00  0.00     0.000 O
ATOM     73  HD  IDS B   4      49.899   7.210  23.4740  0.00  0.00     0.000 HD
BRANCH 66 73
ATOM     73   O  IDS B   4      49.401   7.077  20.8050  0.00  0.00     0.000 O
ATOM     74   S  IDS B   4      49.376   8.441  19.9360  0.00  0.00     0.000 S
ATOM     75   O  IDS B   4      48.030   8.962  20.0290  0.00  0.00     0.000 OA
ATOM     76   O  IDS B   4      49.731   7.962  18.6230  0.00  0.00     0.000 OA
ATOM     77   O  IDS B   4      50.365   9.301  20.5410  0.00  0.00     0.000 OA
ENDBRANCH 66 73
BRANCH 69 78
ATOM     78   C  IDS B   4      49.221   3.096  23.6280  0.00  0.00     0.000 C
ATOM     79   O  IDS B   4      49.358   2.731  24.7950  0.00  0.00     0.000 OA
ATOM     80   O  IDS B   4      49.054   2.293  22.6920  0.00  0.00     0.000 OA
ENDBRANCH 69 78
BRANCH 65 81
ATOM     81  O4  SGN B   5      47.187   6.547  23.6140  0.00  0.00     0.000 O
BRANCH 81 85
ATOM     82  C1  SGN B   5      43.504   6.458  25.6290  0.00  0.00     0.000 C
ATOM     83  C2  SGN B   5      44.358   5.182  25.6810  0.00  0.00     0.000 C
ATOM     84  C3  SGN B   5      45.811   5.523  25.3210  0.00  0.00     0.000 C
ATOM     85  C4  SGN B   5      45.844   6.210  23.9670  0.00  0.00     0.000 C
ATOM     86  C5  SGN B   5      44.983   7.468  24.0460  0.00  0.00     0.000 C
ATOM     87  O5  SGN B   5      43.632   7.084  24.3670  0.00  0.00     0.000 O
ATOM     88   O  SGN B   5      46.590   4.347  25.3100  0.00  0.00     0.000 O
ATOM     90  HD  SGN B   5      46.575   4.933  25.9470  0.00  0.00     0.000 HD
BRANCH 83 92
ATOM     90   N  SGN B   5      43.193   4.811  26.5080  0.00  0.00     0.000 N
ATOM     92  HD  SGN B   5      42.454   5.069  26.1370  0.00  0.00     0.000 HD
ATOM     92   S  SGN B   5      43.158   3.344  27.1410  0.00  0.00     0.000 S
ATOM     93   O  SGN B   5      41.923   3.300  27.8640  0.00  0.00     0.000 OA
ATOM     94   O  SGN B   5      43.382   2.451  26.0570  0.00  0.00     0.000 OA
ATOM     95   O  SGN B   5      44.377   3.283  28.0360  0.00  0.00     0.000 OA
ENDBRANCH 83 92
BRANCH 86 96
ATOM     96   C  SGN B   5      44.932   8.267  22.7610  0.00  0.00     0.000 C
ATOM     97   O  SGN B   5      43.643   8.156  22.1510  0.00  0.00     0.000 O
ATOM     98   S  SGN B   5      42.935   9.535  21.7410  0.00  0.00     0.000 S
ATOM     99   O  SGN B   5      41.786   9.090  20.9880  0.00  0.00     0.000 OA
ATOM    100   O  SGN B   5      42.625  10.228  22.9400  0.00  0.00     0.000 OA
ATOM    101   O  SGN B   5      43.907  10.210  20.9440  0.00  0.00     0.000 OA
ENDBRANCH 86 96
BRANCH 82 102
ATOM    102  O4  IDS B   6      43.809   7.334  26.6280  0.00  0.00     0.000 O
BRANCH 102 106
ATOM    103  C1  IDS B   6      42.576   9.220  29.4880  0.00  0.00     0.000 C
ATOM    104  C2  IDS B   6      41.849   7.953  29.0090  0.00  0.00     0.000 C
ATOM    105  C3  IDS B   6      41.607   7.877  27.5140  0.00  0.00     0.000 C
ATOM    106  C4  IDS B   6      42.793   8.367  26.7020  0.00  0.00     0.000 C
ATOM    107  C5  IDS B   6      43.359   9.643  27.3310  0.00  0.00     0.000 C
ATOM    108  O5  IDS B   6      43.727   9.447  28.6970  0.00  0.00     0.000 O
ATOM    109   O  IDS B   6      40.446   8.634  27.2160  0.00  0.00     0.000 O
ATOM    111  HD  IDS B   6      40.383   9.189  27.8780  0.00  0.00     0.000 HD
BRANCH 104 111
ATOM    111   O  IDS B   6      42.674   6.778  29.3290  0.00  0.00     0.000 O
ATOM    112   S  IDS B   6      42.227   5.857  30.5600  0.00  0.00     0.000 S
ATOM    113   O  IDS B   6      42.213   6.756  31.7040  0.00  0.00     0.000 OA
ATOM    114   O  IDS B   6      40.929   5.252  30.2400  0.00  0.00     0.000 OA
ATOM    115   O  IDS B   6      43.330   4.920  30.5630  0.00  0.00     0.000 OA
ENDBRANCH 104 111
BRANCH 107 116
ATOM    116   C  IDS B   6      44.570  10.106  26.5310  0.00  0.00     0.000 C
ATOM    117   O  IDS B   6      44.350  10.624  25.4660  0.00  0.00     0.000 OA
ATOM    118   O  IDS B   6      45.706   9.947  26.9480  0.00  0.00     0.000 OA
ENDBRANCH 107 116
BRANCH 103 119
ATOM    119  O4  SGN B   7      41.585  10.144  29.5750  0.00  0.00     0.000 O
BRANCH 119 123
ATOM    120  C1  SGN B   7      40.907  13.638  31.7710  0.00  0.00     0.000 C
ATOM    121  C2  SGN B   7      41.709  13.763  30.4620  0.00  0.00     0.000 C
ATOM    122  C3  SGN B   7      41.524  12.510  29.5960  0.00  0.00     0.000 C
ATOM    123  C4  SGN B   7      41.861  11.270  30.4090  0.00  0.00     0.000 C
ATOM    124  C5  SGN B   7      41.016  11.242  31.6930  0.00  0.00     0.000 C
ATOM    125  O5  SGN B   7      41.222  12.439  32.4770  0.00  0.00     0.000 O
ATOM    126   O  SGN B   7      42.359  12.617  28.4380  0.00  0.00     0.000 O
ATOM    128  HD  SGN B   7      42.017  12.999  29.1360  0.00  0.00     0.000 HD
BRANCH 121 130
ATOM    128   N  SGN B   7      41.197  15.118  30.2420  0.00  0.00     0.000 N
ATOM    130  HD  SGN B   7      41.571  15.386  30.9760  0.00  0.00     0.000 HD
ATOM    130   S  SGN B   7      42.152  16.334  29.7920  0.00  0.00     0.000 S
ATOM    131   O  SGN B   7      42.880  15.842  28.6730  0.00  0.00     0.000 OA
ATOM    132   O  SGN B   7      41.358  17.504  29.6730  0.00  0.00     0.000 OA
ATOM    133   O  SGN B   7      42.975  16.547  31.1070  0.00  0.00     0.000 OA
ENDBRANCH 121 130
BRANCH 124 134
ATOM    134   C  SGN B   7      41.359  10.113  32.6200  0.00  0.00     0.000 C
ATOM    135   O  SGN B   7      41.559  10.649  33.9390  0.00  0.00     0.000 O
ATOM    136   S  SGN B   7      41.778   9.606  35.0930  0.00  0.00     0.000 S
ATOM    137   O  SGN B   7      42.059  10.371  36.2840  0.00  0.00     0.000 OA
ATOM    138   O  SGN B   7      42.898   8.798  34.6650  0.00  0.00     0.000 OA
ATOM    139   O  SGN B   7      40.505   8.904  35.1260  0.00  0.00     0.000 OA
ENDBRANCH 124 134
BRANCH 120 140
ATOM    140  O4  IDS B   8      39.578  13.628  31.9240  0.00  0.00     0.000 O
BRANCH 140 144
ATOM    141  C1  IDS B   8      35.999  13.253  31.8320  0.00  0.00     0.000 C
ATOM    142  C2  IDS B   8      36.729  14.207  30.8440  0.00  0.00     0.000 C
ATOM    143  C3  IDS B   8      37.733  15.144  31.5410  0.00  0.00     0.000 C
ATOM    144  C4  IDS B   8      38.573  14.408  32.5840  0.00  0.00     0.000 C
ATOM    145  C5  IDS B   8      37.679  13.501  33.4410  0.00  0.00     0.000 C
ATOM    146  O5  IDS B   8      36.949  12.573  32.6420  0.00  0.00     0.000 O
BRANCH 142 147
ATOM    147   O  IDS B   8      37.491  13.405  29.8520  0.00  0.00     0.000 O
ATOM    148   S  IDS B   8      37.649  13.905  28.3170  0.00  0.00     0.000 S
ATOM    149   O  IDS B   8      36.654  14.928  28.0850  0.00  0.00     0.000 OA
ATOM    150   O  IDS B   8      39.006  14.407  28.2110  0.00  0.00     0.000 OA
ATOM    151   O  IDS B   8      37.413  12.727  27.5050  0.00  0.00     0.000 OA
ENDBRANCH 142 147
BRANCH 145 152
ATOM    152   C  IDS B   8      38.469  12.669  34.4310  0.00  0.00     0.000 C
ATOM    153   O  IDS B   8      39.156  13.228  35.2780  0.00  0.00     0.000 OA
ATOM    154   O  IDS B   8      38.398  11.454  34.3870  0.00  0.00     0.000 OA
ENDBRANCH 145 152
ENDBRANCH 140 144
ENDBRANCH 120 140
ENDBRANCH 119 123
ENDBRANCH 103 119
ENDBRANCH 102 106
ENDBRANCH 82 102
ENDBRANCH 81 85
ENDBRANCH 65 81
ENDBRANCH 64 68
ENDBRANCH 41 64
ENDBRANCH 40 44
ENDBRANCH 24 40
ENDBRANCH 23 27
ENDBRANCH 1 23
TORSDOF 31
ENDMDL
MODEL 81
REMARK VINA RESULT:      -5.1     16.848     27.175
ROOT
ATOM      1  C1  SGN B   1      63.023  -8.743  16.3550  0.00  0.00     0.000 C
ATOM      2  C2  SGN B   1      64.330  -9.382  15.8580  0.00  0.00     0.000 C
ATOM      3  C3  SGN B   1      65.544  -8.715  16.5130  0.00  0.00     0.000 C
ATOM      4  C4  SGN B   1      65.515  -7.210  16.2660  0.00  0.00     0.000 C
ATOM      5  C5  SGN B   1      64.141  -6.668  16.6500  0.00  0.00     0.000 C
ATOM      6  O5  SGN B   1      63.121  -7.389  15.9320  0.00  0.00     0.000 O
ATOM      7   O  SGN B   1      66.753  -9.279  16.0170  0.00  0.00     0.000 O
ATOM      9  HD  SGN B   1      66.401  -8.954  15.2950  0.00  0.00     0.000 HD
ATOM      9   O  SGN B   1      66.521  -6.586  17.0420  0.00  0.00     0.000 O
ATOM     11  HD  SGN B   1      66.170  -6.262  16.3210  0.00  0.00     0.000 HD
ENDROOT
BRANCH 2 13
ATOM     11   N  SGN B   1      63.708 -10.365  14.9500  0.00  0.00     0.000 N
ATOM     13  HD  SGN B   1      63.555 -10.394  15.8020  0.00  0.00     0.000 HD
ATOM     13   S  SGN B   1      63.308 -11.847  15.4320  0.00  0.00     0.000 S
ATOM     14   O  SGN B   1      63.594 -12.005  16.8040  0.00  0.00     0.000 OA
ATOM     15   O  SGN B   1      62.000 -12.139  14.9510  0.00  0.00     0.000 OA
ATOM     16   O  SGN B   1      64.313 -12.647  14.5470  0.00  0.00     0.000 OA
ENDBRANCH 2 13
BRANCH 5 17
ATOM     17   C  SGN B   1      63.952  -5.202  16.3460  0.00  0.00     0.000 C
ATOM     18   O  SGN B   1      64.159  -4.401  17.5270  0.00  0.00     0.000 O
ATOM     19   S  SGN B   1      63.078  -3.254  17.7940  0.00  0.00     0.000 S
ATOM     20   O  SGN B   1      63.629  -2.463  18.8740  0.00  0.00     0.000 OA
ATOM     21   O  SGN B   1      63.000  -2.543  16.5390  0.00  0.00     0.000 OA
ATOM     22   O  SGN B   1      61.863  -3.954  18.1500  0.00  0.00     0.000 OA
ENDBRANCH 5 17
BRANCH 1 23
ATOM     23  O4  IDS B   2      62.096  -8.876  17.3460  0.00  0.00     0.000 O
BRANCH 23 27
ATOM     24  C1  IDS B   2      60.060  -8.585  20.9510  0.00  0.00     0.000 C
ATOM     25  C2  IDS B   2      61.335  -7.721  20.8340  0.00  0.00     0.000 C
ATOM     26  C3  IDS B   2      61.830  -7.672  19.3910  0.00  0.00     0.000 C
ATOM     27  C4  IDS B   2      62.053  -9.048  18.7780  0.00  0.00     0.000 C
ATOM     28  C5  IDS B   2      60.967 -10.026  19.2700  0.00  0.00     0.000 C
ATOM     29  O5  IDS B   2      59.828  -9.323  19.7440  0.00  0.00     0.000 O
ATOM     30   O  IDS B   2      63.070  -6.976  19.3450  0.00  0.00     0.000 O
ATOM     32  HD  IDS B   2      63.744  -7.461  19.5910  0.00  0.00     0.000 HD
BRANCH 25 32
ATOM     32   O  IDS B   2      61.110  -6.324  21.2790  0.00  0.00     0.000 O
ATOM     33   S  IDS B   2      61.918  -5.678  22.5640  0.00  0.00     0.000 S
ATOM     34   O  IDS B   2      61.286  -4.397  22.8380  0.00  0.00     0.000 OA
ATOM     35   O  IDS B   2      61.813  -6.577  23.7040  0.00  0.00     0.000 OA
ATOM     36   O  IDS B   2      63.283  -5.507  22.1220  0.00  0.00     0.000 OA
ENDBRANCH 25 32
BRANCH 28 37
ATOM     37   C  IDS B   2      60.489 -11.122  18.2950  0.00  0.00     0.000 C
ATOM     38   O  IDS B   2      59.628 -10.735  17.5420  0.00  0.00     0.000 OA
ATOM     39   O  IDS B   2      60.943 -12.288  18.1880  0.00  0.00     0.000 OA
ENDBRANCH 28 37
BRANCH 24 40
ATOM     40  O4  SUS B   3      59.506  -8.806  22.1620  0.00  0.00     0.000 O
BRANCH 40 44
ATOM     41  C1  SUS B   3      55.498  -9.332  23.2580  0.00  0.00     0.000 C
ATOM     42  C2  SUS B   3      56.165 -10.470  22.4590  0.00  0.00     0.000 C
ATOM     43  C3  SUS B   3      57.683 -10.339  22.5700  0.00  0.00     0.000 C
ATOM     44  C4  SUS B   3      58.090  -8.945  22.1190  0.00  0.00     0.000 C
ATOM     45  C5  SUS B   3      57.445  -7.925  23.0340  0.00  0.00     0.000 C
ATOM     46  O5  SUS B   3      56.014  -8.045  22.9040  0.00  0.00     0.000 O
BRANCH 42 49
ATOM     47   N  SUS B   3      55.692 -11.311  21.3470  0.00  0.00     0.000 N
ATOM     49  HD  SUS B   3      55.349 -10.898  20.6680  0.00  0.00     0.000 HD
ATOM     49   S  SUS B   3      54.655 -12.436  21.8210  0.00  0.00     0.000 S
ATOM     50   O  SUS B   3      53.553 -11.834  22.4610  0.00  0.00     0.000 OA
ATOM     51   O  SUS B   3      54.262 -12.927  20.4030  0.00  0.00     0.000 OA
ATOM     52   O  SUS B   3      55.347 -13.443  22.5220  0.00  0.00     0.000 OA
ENDBRANCH 42 49
BRANCH 43 53
ATOM     53   O  SUS B   3      58.292 -11.351  21.6860  0.00  0.00     0.000 O
ATOM     54   S  SUS B   3      59.282 -12.460  22.3860  0.00  0.00     0.000 S
ATOM     55   O  SUS B   3      58.446 -13.357  23.1720  0.00  0.00     0.000 OA
ATOM     56   O  SUS B   3      59.939 -13.105  21.2630  0.00  0.00     0.000 OA
ATOM     57   O  SUS B   3      60.206 -11.710  23.2420  0.00  0.00     0.000 OA
ENDBRANCH 43 53
BRANCH 45 58
ATOM     58   C  SUS B   3      57.884  -6.514  22.7100  0.00  0.00     0.000 C
ATOM     59   S  SUS B   3      57.457  -4.576  21.0830  0.00  0.00     0.000 S
ATOM     60   O  SUS B   3      57.018  -5.966  21.7020  0.00  0.00     0.000 O
ATOM     61   O  SUS B   3      58.512  -4.897  20.1410  0.00  0.00     0.000 OA
ATOM     62   O  SUS B   3      56.237  -4.174  20.4350  0.00  0.00     0.000 OA
ATOM     63   O  SUS B   3      57.851  -3.775  22.1870  0.00  0.00     0.000 OA
ENDBRANCH 45 58
BRANCH 41 64
ATOM     64  O4  IDS B   4      55.444  -9.564  24.6110  0.00  0.00     0.000 O
BRANCH 64 68
ATOM     65  C1  IDS B   4      53.856 -10.407  27.7800  0.00  0.00     0.000 C
ATOM     66  C2  IDS B   4      53.455 -11.143  26.4950  0.00  0.00     0.000 C
ATOM     67  C3  IDS B   4      53.208 -10.234  25.3020  0.00  0.00     0.000 C
ATOM     68  C4  IDS B   4      54.212  -9.101  25.2060  0.00  0.00     0.000 C
ATOM     69  C5  IDS B   4      54.397  -8.507  26.6090  0.00  0.00     0.000 C
ATOM     70  O5  IDS B   4      54.914  -9.514  27.4820  0.00  0.00     0.000 O
ATOM     71   O  IDS B   4      51.904  -9.707  25.4400  0.00  0.00     0.000 O
ATOM     73  HD  IDS B   4      52.551 -10.261  25.5990  0.00  0.00     0.000 HD
BRANCH 66 73
ATOM     73   O  IDS B   4      54.558 -12.026  26.0920  0.00  0.00     0.000 O
ATOM     74   S  IDS B   4      54.305 -13.624  26.1370  0.00  0.00     0.000 S
ATOM     75   O  IDS B   4      53.902 -13.936  27.4920  0.00  0.00     0.000 OA
ATOM     76   O  IDS B   4      55.602 -14.139  25.7770  0.00  0.00     0.000 OA
ATOM     77   O  IDS B   4      53.272 -13.879  25.1610  0.00  0.00     0.000 OA
ENDBRANCH 66 73
BRANCH 69 78
ATOM     78   C  IDS B   4      55.207  -7.218  26.6450  0.00  0.00     0.000 C
ATOM     79   O  IDS B   4      55.982  -7.034  27.5820  0.00  0.00     0.000 OA
ATOM     80   O  IDS B   4      55.138  -6.444  25.6730  0.00  0.00     0.000 OA
ENDBRANCH 69 78
BRANCH 65 81
ATOM     81  O4  SGN B   5      52.746  -9.872  28.3610  0.00  0.00     0.000 O
BRANCH 81 85
ATOM     82  C1  SGN B   5      50.836  -9.337  32.0620  0.00  0.00     0.000 C
ATOM     83  C2  SGN B   5      51.838  -8.256  31.6310  0.00  0.00     0.000 C
ATOM     84  C3  SGN B   5      52.076  -8.350  30.1180  0.00  0.00     0.000 C
ATOM     85  C4  SGN B   5      52.528  -9.756  29.7680  0.00  0.00     0.000 C
ATOM     86  C5  SGN B   5      51.447 -10.734  30.2210  0.00  0.00     0.000 C
ATOM     87  O5  SGN B   5      51.283 -10.614  31.6470  0.00  0.00     0.000 O
ATOM     88   O  SGN B   5      53.039  -7.397  29.7240  0.00  0.00     0.000 O
ATOM     90  HD  SGN B   5      52.182  -7.318  29.6190  0.00  0.00     0.000 HD
BRANCH 83 92
ATOM     90   N  SGN B   5      51.385  -7.754  32.9440  0.00  0.00     0.000 N
ATOM     92  HD  SGN B   5      51.399  -8.384  33.5380  0.00  0.00     0.000 HD
ATOM     92   S  SGN B   5      51.942  -6.341  33.4410  0.00  0.00     0.000 S
ATOM     93   O  SGN B   5      51.330  -6.151  34.7220  0.00  0.00     0.000 OA
ATOM     94   O  SGN B   5      53.358  -6.424  33.3320  0.00  0.00     0.000 OA
ATOM     95   O  SGN B   5      51.466  -5.352  32.4000  0.00  0.00     0.000 OA
ENDBRANCH 83 92
BRANCH 86 96
ATOM     96   C  SGN B   5      51.759 -12.186  29.9240  0.00  0.00     0.000 C
ATOM     97   O  SGN B   5      53.036 -12.545  30.4580  0.00  0.00     0.000 O
ATOM     98   S  SGN B   5      53.076 -13.868  31.3630  0.00  0.00     0.000 S
ATOM     99   O  SGN B   5      54.490 -14.069  31.5700  0.00  0.00     0.000 OA
ATOM    100   O  SGN B   5      52.337 -13.600  32.5440  0.00  0.00     0.000 OA
ATOM    101   O  SGN B   5      52.476 -14.874  30.5480  0.00  0.00     0.000 OA
ENDBRANCH 86 96
BRANCH 82 102
ATOM    102  O4  IDS B   6      49.577  -9.100  31.5970  0.00  0.00     0.000 O
BRANCH 102 106
ATOM    103  C1  IDS B   6      46.006  -8.502  31.9850  0.00  0.00     0.000 C
ATOM    104  C2  IDS B   6      47.022  -7.837  32.9280  0.00  0.00     0.000 C
ATOM    105  C3  IDS B   6      48.081  -8.766  33.4890  0.00  0.00     0.000 C
ATOM    106  C4  IDS B   6      48.606  -9.749  32.4570  0.00  0.00     0.000 C
ATOM    107  C5  IDS B   6      47.440 -10.310  31.6370  0.00  0.00     0.000 C
ATOM    108  O5  IDS B   6      46.682  -9.273  31.0100  0.00  0.00     0.000 O
ATOM    109   O  IDS B   6      47.525  -9.451  34.5990  0.00  0.00     0.000 O
ATOM    111  HD  IDS B   6      46.671  -9.414  34.4600  0.00  0.00     0.000 HD
BRANCH 104 111
ATOM    111   O  IDS B   6      47.763  -6.807  32.1850  0.00  0.00     0.000 O
ATOM    112   S  IDS B   6      47.603  -5.283  32.6480  0.00  0.00     0.000 S
ATOM    113   O  IDS B   6      46.177  -5.016  32.5400  0.00  0.00     0.000 OA
ATOM    114   O  IDS B   6      48.151  -5.149  34.0020  0.00  0.00     0.000 OA
ATOM    115   O  IDS B   6      48.399  -4.642  31.6230  0.00  0.00     0.000 OA
ENDBRANCH 104 111
BRANCH 107 116
ATOM    116   C  IDS B   6      47.980 -11.266  30.5820  0.00  0.00     0.000 C
ATOM    117   O  IDS B   6      47.976 -10.874  29.4420  0.00  0.00     0.000 OA
ATOM    118   O  IDS B   6      48.388 -12.377  30.8810  0.00  0.00     0.000 OA
ENDBRANCH 107 116
BRANCH 103 119
ATOM    119  O4  SGN B   7      45.104  -9.064  32.8290  0.00  0.00     0.000 O
BRANCH 119 123
ATOM    120  C1  SGN B   7      41.467 -11.082  32.3930  0.00  0.00     0.000 C
ATOM    121  C2  SGN B   7      42.750 -11.932  32.4700  0.00  0.00     0.000 C
ATOM    122  C3  SGN B   7      43.913 -11.100  33.0240  0.00  0.00     0.000 C
ATOM    123  C4  SGN B   7      44.067  -9.825  32.2100  0.00  0.00     0.000 C
ATOM    124  C5  SGN B   7      42.736  -9.056  32.1890  0.00  0.00     0.000 C
ATOM    125  O5  SGN B   7      41.670  -9.876  31.6590  0.00  0.00     0.000 O
ATOM    126   O  SGN B   7      45.108 -11.889  32.9890  0.00  0.00     0.000 O
ATOM    128  HD  SGN B   7      44.247 -11.854  32.9060  0.00  0.00     0.000 HD
BRANCH 121 130
ATOM    128   N  SGN B   7      41.977 -13.025  33.0640  0.00  0.00     0.000 N
ATOM    130  HD  SGN B   7      41.532 -13.121  32.3280  0.00  0.00     0.000 HD
ATOM    130   S  SGN B   7      42.206 -14.564  32.6490  0.00  0.00     0.000 S
ATOM    131   O  SGN B   7      43.610 -14.773  32.7540  0.00  0.00     0.000 OA
ATOM    132   O  SGN B   7      41.304 -15.367  33.3930  0.00  0.00     0.000 OA
ATOM    133   O  SGN B   7      41.620 -14.553  31.1960  0.00  0.00     0.000 OA
ENDBRANCH 121 130
BRANCH 124 134
ATOM    134   C  SGN B   7      42.754  -7.838  31.3120  0.00  0.00     0.000 C
ATOM    135   O  SGN B   7      43.200  -8.223  30.0010  0.00  0.00     0.000 O
ATOM    136   S  SGN B   7      43.143  -7.116  28.8890  0.00  0.00     0.000 S
ATOM    137   O  SGN B   7      43.730  -7.698  27.7060  0.00  0.00     0.000 OA
ATOM    138   O  SGN B   7      43.910  -6.010  29.4150  0.00  0.00     0.000 OA
ATOM    139   O  SGN B   7      41.715  -6.859  28.7760  0.00  0.00     0.000 OA
ENDBRANCH 124 134
BRANCH 120 140
ATOM    140  O4  IDS B   8      40.743 -10.591  33.4050  0.00  0.00     0.000 O
BRANCH 140 144
ATOM    141  C1  IDS B   8      38.076 -10.620  35.8240  0.00  0.00     0.000 C
ATOM    142  C2  IDS B   8      37.873 -11.217  34.4020  0.00  0.00     0.000 C
ATOM    143  C3  IDS B   8      38.348 -10.277  33.2790  0.00  0.00     0.000 C
ATOM    144  C4  IDS B   8      39.696  -9.633  33.6020  0.00  0.00     0.000 C
ATOM    145  C5  IDS B   8      39.707  -9.130  35.0540  0.00  0.00     0.000 C
ATOM    146  O5  IDS B   8      39.419 -10.176  35.9770  0.00  0.00     0.000 O
BRANCH 142 147
ATOM    147   O  IDS B   8      38.650 -12.478  34.2780  0.00  0.00     0.000 O
ATOM    148   S  IDS B   8      37.965 -13.829  33.6970  0.00  0.00     0.000 S
ATOM    149   O  IDS B   8      36.531 -13.647  33.7420  0.00  0.00     0.000 OA
ATOM    150   O  IDS B   8      38.471 -13.968  32.3440  0.00  0.00     0.000 OA
ATOM    151   O  IDS B   8      38.404 -14.891  34.5820  0.00  0.00     0.000 OA
ENDBRANCH 142 147
BRANCH 145 152
ATOM    152   C  IDS B   8      41.053  -8.569  35.4660  0.00  0.00     0.000 C
ATOM    153   O  IDS B   8      41.775  -9.219  36.2140  0.00  0.00     0.000 OA
ATOM    154   O  IDS B   8      41.413  -7.489  35.0340  0.00  0.00     0.000 OA
ENDBRANCH 145 152
ENDBRANCH 140 144
ENDBRANCH 120 140
ENDBRANCH 119 123
ENDBRANCH 103 119
ENDBRANCH 102 106
ENDBRANCH 82 102
ENDBRANCH 81 85
ENDBRANCH 65 81
ENDBRANCH 64 68
ENDBRANCH 41 64
ENDBRANCH 40 44
ENDBRANCH 24 40
ENDBRANCH 23 27
ENDBRANCH 1 23
TORSDOF 31
ENDMDL
MODEL 82
REMARK VINA RESULT:      -5.1     16.880     25.633
ROOT
ATOM      1  C1  SGN B   1      65.918  -1.093  21.4770  0.00  0.00     0.000 C
ATOM      2  C2  SGN B   1      65.679   0.420  21.3440  0.00  0.00     0.000 C
ATOM      3  C3  SGN B   1      64.182   0.742  21.4180  0.00  0.00     0.000 C
ATOM      4  C4  SGN B   1      63.421  -0.050  20.3600  0.00  0.00     0.000 C
ATOM      5  C5  SGN B   1      63.815  -1.522  20.4600  0.00  0.00     0.000 C
ATOM      6  O5  SGN B   1      65.246  -1.646  20.3530  0.00  0.00     0.000 O
ATOM      7   O  SGN B   1      63.962   2.138  21.2510  0.00  0.00     0.000 O
ATOM      9  HD  SGN B   1      64.336   1.927  20.4980  0.00  0.00     0.000 HD
ATOM      9   O  SGN B   1      62.029   0.099  20.5720  0.00  0.00     0.000 O
ATOM     11  HD  SGN B   1      62.403  -0.112  19.8200  0.00  0.00     0.000 HD
ENDROOT
BRANCH 2 13
ATOM     11   N  SGN B   1      67.056   0.929  21.2010  0.00  0.00     0.000 N
ATOM     13  HD  SGN B   1      66.841   0.426  21.8720  0.00  0.00     0.000 HD
ATOM     13   S  SGN B   1      68.013   1.185  22.4690  0.00  0.00     0.000 S
ATOM     14   O  SGN B   1      67.356   0.807  23.6580  0.00  0.00     0.000 OA
ATOM     15   O  SGN B   1      69.300   0.647  22.1780  0.00  0.00     0.000 OA
ATOM     16   O  SGN B   1      68.127   2.737  22.3530  0.00  0.00     0.000 OA
ENDBRANCH 2 13
BRANCH 5 17
ATOM     17   C  SGN B   1      63.207  -2.394  19.3890  0.00  0.00     0.000 C
ATOM     18   O  SGN B   1      64.229  -2.969  18.5510  0.00  0.00     0.000 O
ATOM     19   S  SGN B   1      63.957  -2.915  16.9760  0.00  0.00     0.000 S
ATOM     20   O  SGN B   1      64.986  -3.746  16.3890  0.00  0.00     0.000 OA
ATOM     21   O  SGN B   1      62.625  -3.455  16.8310  0.00  0.00     0.000 OA
ATOM     22   O  SGN B   1      64.067  -1.518  16.6210  0.00  0.00     0.000 OA
ENDBRANCH 5 17
BRANCH 1 23
ATOM     23  O4  IDS B   2      66.137  -2.046  22.4270  0.00  0.00     0.000 O
BRANCH 23 27
ATOM     24  C1  IDS B   2      62.645  -3.600  24.0450  0.00  0.00     0.000 C
ATOM     25  C2  IDS B   2      63.241  -2.384  24.7880  0.00  0.00     0.000 C
ATOM     26  C3  IDS B   2      64.332  -1.717  23.9560  0.00  0.00     0.000 C
ATOM     27  C4  IDS B   2      65.434  -2.674  23.5190  0.00  0.00     0.000 C
ATOM     28  C5  IDS B   2      64.830  -4.052  23.1800  0.00  0.00     0.000 C
ATOM     29  O5  IDS B   2      63.442  -3.944  22.9040  0.00  0.00     0.000 O
ATOM     30   O  IDS B   2      64.940  -0.684  24.7220  0.00  0.00     0.000 O
ATOM     32  HD  IDS B   2      65.517  -0.979  25.2970  0.00  0.00     0.000 HD
BRANCH 25 32
ATOM     32   O  IDS B   2      62.216  -1.355  25.0920  0.00  0.00     0.000 O
ATOM     33   S  IDS B   2      61.841  -0.929  26.6410  0.00  0.00     0.000 S
ATOM     34   O  IDS B   2      60.663  -0.081  26.5540  0.00  0.00     0.000 OA
ATOM     35   O  IDS B   2      61.576  -2.129  27.4220  0.00  0.00     0.000 OA
ATOM     36   O  IDS B   2      62.984  -0.194  27.1310  0.00  0.00     0.000 OA
ENDBRANCH 25 32
BRANCH 28 37
ATOM     37   C  IDS B   2      65.488  -4.868  22.0480  0.00  0.00     0.000 C
ATOM     38   O  IDS B   2      66.624  -5.192  22.3050  0.00  0.00     0.000 OA
ATOM     39   O  IDS B   2      64.949  -5.251  20.9820  0.00  0.00     0.000 OA
ENDBRANCH 28 37
BRANCH 24 40
ATOM     40  O4  SUS B   3      61.710  -4.365  24.6470  0.00  0.00     0.000 O
BRANCH 40 44
ATOM     41  C1  SUS B   3      58.472  -6.472  23.0270  0.00  0.00     0.000 C
ATOM     42  C2  SUS B   3      59.886  -6.998  22.7080  0.00  0.00     0.000 C
ATOM     43  C3  SUS B   3      60.873  -6.438  23.7300  0.00  0.00     0.000 C
ATOM     44  C4  SUS B   3      60.765  -4.922  23.7390  0.00  0.00     0.000 C
ATOM     45  C5  SUS B   3      59.361  -4.532  24.1540  0.00  0.00     0.000 C
ATOM     46  O5  SUS B   3      58.442  -5.047  23.1700  0.00  0.00     0.000 O
BRANCH 42 49
ATOM     47   N  SUS B   3      60.781  -8.001  22.1060  0.00  0.00     0.000 N
ATOM     49  HD  SUS B   3      61.478  -7.698  21.6910  0.00  0.00     0.000 HD
ATOM     49   S  SUS B   3      60.011  -9.002  21.1200  0.00  0.00     0.000 S
ATOM     50   O  SUS B   3      59.366  -8.271  20.1020  0.00  0.00     0.000 OA
ATOM     51   O  SUS B   3      61.272  -9.713  20.5660  0.00  0.00     0.000 OA
ATOM     52   O  SUS B   3      59.229  -9.895  21.8780  0.00  0.00     0.000 OA
ENDBRANCH 42 49
BRANCH 43 53
ATOM     53   O  SUS B   3      62.231  -6.843  23.3190  0.00  0.00     0.000 O
ATOM     54   S  SUS B   3      63.107  -7.729  24.3910  0.00  0.00     0.000 S
ATOM     55   O  SUS B   3      62.511  -9.056  24.4510  0.00  0.00     0.000 OA
ATOM     56   O  SUS B   3      64.452  -7.714  23.8440  0.00  0.00     0.000 OA
ATOM     57   O  SUS B   3      63.001  -7.041  25.6820  0.00  0.00     0.000 OA
ENDBRANCH 43 53
BRANCH 45 58
ATOM     58   C  SUS B   3      59.204  -3.033  24.2830  0.00  0.00     0.000 C
ATOM     59   S  SUS B   3      58.748  -0.911  22.9140  0.00  0.00     0.000 S
ATOM     60   O  SUS B   3      58.760  -2.491  23.0280  0.00  0.00     0.000 O
ATOM     61   O  SUS B   3      60.133  -0.537  22.6980  0.00  0.00     0.000 OA
ATOM     62   O  SUS B   3      57.935  -0.734  21.7410  0.00  0.00     0.000 OA
ATOM     63   O  SUS B   3      58.175  -0.446  24.1270  0.00  0.00     0.000 OA
ENDBRANCH 45 58
BRANCH 41 64
ATOM     64  O4  IDS B   4      57.845  -7.151  24.0420  0.00  0.00     0.000 O
BRANCH 64 68
ATOM     65  C1  IDS B   4      55.322  -8.960  25.9510  0.00  0.00     0.000 C
ATOM     66  C2  IDS B   4      56.197  -9.700  24.9310  0.00  0.00     0.000 C
ATOM     67  C3  IDS B   4      56.325  -9.000  23.5890  0.00  0.00     0.000 C
ATOM     68  C4  IDS B   4      56.479  -7.496  23.7200  0.00  0.00     0.000 C
ATOM     69  C5  IDS B   4      55.463  -7.002  24.7590  0.00  0.00     0.000 C
ATOM     70  O5  IDS B   4      55.747  -7.610  26.0210  0.00  0.00     0.000 O
ATOM     71   O  IDS B   4      55.161  -9.298  22.8470  0.00  0.00     0.000 O
ATOM     73  HD  IDS B   4      55.740  -9.408  23.4800  0.00  0.00     0.000 HD
BRANCH 66 73
ATOM     73   O  IDS B   4      57.565  -9.790  25.4580  0.00  0.00     0.000 O
ATOM     74   S  IDS B   4      58.134 -11.254  25.8460  0.00  0.00     0.000 S
ATOM     75   O  IDS B   4      57.206 -11.813  26.8060  0.00  0.00     0.000 OA
ATOM     76   O  IDS B   4      59.426 -10.933  26.3980  0.00  0.00     0.000 OA
ATOM     77   O  IDS B   4      58.184 -11.989  24.6050  0.00  0.00     0.000 OA
ENDBRANCH 66 73
BRANCH 69 78
ATOM     78   C  IDS B   4      55.339  -5.487  24.8470  0.00  0.00     0.000 C
ATOM     79   O  IDS B   4      55.461  -4.946  25.9460  0.00  0.00     0.000 OA
ATOM     80   O  IDS B   4      55.225  -4.836  23.7920  0.00  0.00     0.000 OA
ENDBRANCH 69 78
BRANCH 65 81
ATOM     81  O4  SGN B   5      54.009  -9.175  25.6620  0.00  0.00     0.000 O
BRANCH 81 85
ATOM     82  C1  SGN B   5      50.209  -8.431  27.2900  0.00  0.00     0.000 C
ATOM     83  C2  SGN B   5      50.580  -7.672  26.0060  0.00  0.00     0.000 C
ATOM     84  C3  SGN B   5      51.750  -8.381  25.3110  0.00  0.00     0.000 C
ATOM     85  C4  SGN B   5      52.908  -8.508  26.2840  0.00  0.00     0.000 C
ATOM     86  C5  SGN B   5      52.428  -9.295  27.5010  0.00  0.00     0.000 C
ATOM     87  O5  SGN B   5      51.346  -8.574  28.1200  0.00  0.00     0.000 O
ATOM     88   O  SGN B   5      52.133  -7.659  24.1610  0.00  0.00     0.000 O
ATOM     90  HD  SGN B   5      51.653  -8.380  24.1640  0.00  0.00     0.000 HD
BRANCH 83 92
ATOM     90   N  SGN B   5      49.291  -7.041  26.3500  0.00  0.00     0.000 N
ATOM     92  HD  SGN B   5      49.320  -6.684  27.1380  0.00  0.00     0.000 HD
ATOM     92   S  SGN B   5      48.565  -6.158  25.2340  0.00  0.00     0.000 S
ATOM     93   O  SGN B   5      47.370  -5.693  25.8710  0.00  0.00     0.000 OA
ATOM     94   O  SGN B   5      49.541  -5.227  24.7830  0.00  0.00     0.000 OA
ATOM     95   O  SGN B   5      48.299  -7.119  24.0960  0.00  0.00     0.000 OA
ENDBRANCH 83 92
BRANCH 86 96
ATOM     96   C  SGN B   5      53.490  -9.512  28.5590  0.00  0.00     0.000 C
ATOM     97   O  SGN B   5      53.911  -8.262  29.1110  0.00  0.00     0.000 O
ATOM     98   S  SGN B   5      53.905  -8.160  30.7120  0.00  0.00     0.000 S
ATOM     99   O  SGN B   5      54.557  -6.894  30.9520  0.00  0.00     0.000 OA
ATOM    100   O  SGN B   5      52.554  -8.220  31.1380  0.00  0.00     0.000 OA
ATOM    101   O  SGN B   5      54.675  -9.282  31.1420  0.00  0.00     0.000 OA
ENDBRANCH 86 96
BRANCH 82 102
ATOM    102  O4  IDS B   6      49.650  -9.648  27.0370  0.00  0.00     0.000 O
BRANCH 102 106
ATOM    103  C1  IDS B   6      47.193 -12.333  27.1350  0.00  0.00     0.000 C
ATOM    104  C2  IDS B   6      46.869 -10.996  26.4510  0.00  0.00     0.000 C
ATOM    105  C3  IDS B   6      47.227  -9.760  27.2540  0.00  0.00     0.000 C
ATOM    106  C4  IDS B   6      48.562  -9.889  27.9650  0.00  0.00     0.000 C
ATOM    107  C5  IDS B   6      48.681 -11.281  28.5930  0.00  0.00     0.000 C
ATOM    108  O5  IDS B   6      48.521 -12.318  27.6240  0.00  0.00     0.000 O
ATOM    109   O  IDS B   6      46.182  -9.519  28.1820  0.00  0.00     0.000 O
ATOM    111  HD  IDS B   6      45.803 -10.292  28.2740  0.00  0.00     0.000 HD
BRANCH 104 111
ATOM    111   O  IDS B   6      47.649 -10.892  25.2080  0.00  0.00     0.000 O
ATOM    112   S  IDS B   6      46.850 -10.755  23.8280  0.00  0.00     0.000 S
ATOM    113   O  IDS B   6      46.015 -11.945  23.7680  0.00  0.00     0.000 OA
ATOM    114   O  IDS B   6      46.111  -9.488  23.8420  0.00  0.00     0.000 OA
ATOM    115   O  IDS B   6      47.968 -10.776  22.9080  0.00  0.00     0.000 OA
ENDBRANCH 104 111
BRANCH 107 116
ATOM    116   C  IDS B   6      50.038 -11.413  29.2730  0.00  0.00     0.000 C
ATOM    117   O  IDS B   6      50.224 -10.731  30.2480  0.00  0.00     0.000 OA
ATOM    118   O  IDS B   6      50.894 -12.168  28.8410  0.00  0.00     0.000 OA
ENDBRANCH 107 116
BRANCH 103 119
ATOM    119  O4  SGN B   7      46.138 -12.534  27.9650  0.00  0.00     0.000 O
BRANCH 119 123
ATOM    120  C1  SGN B   7      44.230 -15.855  29.6450  0.00  0.00     0.000 C
ATOM    121  C2  SGN B   7      45.400 -15.233  30.4290  0.00  0.00     0.000 C
ATOM    122  C3  SGN B   7      45.714 -13.827  29.9020  0.00  0.00     0.000 C
ATOM    123  C4  SGN B   7      45.938 -13.880  28.3990  0.00  0.00     0.000 C
ATOM    124  C5  SGN B   7      44.722 -14.521  27.7110  0.00  0.00     0.000 C
ATOM    125  O5  SGN B   7      44.465 -15.842  28.2370  0.00  0.00     0.000 O
ATOM    126   O  SGN B   7      46.866 -13.319  30.5840  0.00  0.00     0.000 O
ATOM    128  HD  SGN B   7      46.253 -13.929  30.5280  0.00  0.00     0.000 HD
BRANCH 121 130
ATOM    128   N  SGN B   7      45.623 -16.403  31.2820  0.00  0.00     0.000 N
ATOM    130  HD  SGN B   7      46.420 -16.121  31.4720  0.00  0.00     0.000 HD
ATOM    130   S  SGN B   7      45.648 -16.302  32.8890  0.00  0.00     0.000 S
ATOM    131   O  SGN B   7      44.461 -15.597  33.2360  0.00  0.00     0.000 OA
ATOM    132   O  SGN B   7      45.891 -17.597  33.4140  0.00  0.00     0.000 OA
ATOM    133   O  SGN B   7      46.993 -15.529  33.1020  0.00  0.00     0.000 OA
ENDBRANCH 121 130
BRANCH 124 134
ATOM    134   C  SGN B   7      44.897 -14.724  26.2350  0.00  0.00     0.000 C
ATOM    135   O  SGN B   7      45.808 -15.817  26.0280  0.00  0.00     0.000 O
ATOM    136   S  SGN B   7      46.007 -16.290  24.5430  0.00  0.00     0.000 S
ATOM    137   O  SGN B   7      47.028 -17.310  24.5750  0.00  0.00     0.000 OA
ATOM    138   O  SGN B   7      46.413 -15.107  23.8200  0.00  0.00     0.000 OA
ATOM    139   O  SGN B   7      44.685 -16.786  24.1930  0.00  0.00     0.000 OA
ENDBRANCH 124 134
BRANCH 120 140
ATOM    140  O4  IDS B   8      42.946 -15.479  29.6450  0.00  0.00     0.000 O
BRANCH 140 144
ATOM    141  C1  IDS B   8      40.240 -13.113  29.8420  0.00  0.00     0.000 C
ATOM    142  C2  IDS B   8      41.531 -12.925  30.6900  0.00  0.00     0.000 C
ATOM    143  C3  IDS B   8      41.951 -14.202  31.4410  0.00  0.00     0.000 C
ATOM    144  C4  IDS B   8      41.844 -15.446  30.5610  0.00  0.00     0.000 C
ATOM    145  C5  IDS B   8      40.517 -15.436  29.7880  0.00  0.00     0.000 C
ATOM    146  O5  IDS B   8      40.372 -14.254  29.0040  0.00  0.00     0.000 O
BRANCH 142 147
ATOM    147   O  IDS B   8      42.659 -12.548  29.7990  0.00  0.00     0.000 O
ATOM    148   S  IDS B   8      43.114 -10.999  29.6350  0.00  0.00     0.000 S
ATOM    149   O  IDS B   8      42.042 -10.172  30.1410  0.00  0.00     0.000 OA
ATOM    150   O  IDS B   8      44.335 -10.871  30.4080  0.00  0.00     0.000 OA
ATOM    151   O  IDS B   8      43.318 -10.809  28.2120  0.00  0.00     0.000 OA
ENDBRANCH 142 147
BRANCH 145 152
ATOM    152   C  IDS B   8      40.396 -16.596  28.8210  0.00  0.00     0.000 C
ATOM    153   O  IDS B   8      40.427 -16.383  27.6140  0.00  0.00     0.000 OA
ATOM    154   O  IDS B   8      40.290 -17.730  29.2520  0.00  0.00     0.000 OA
ENDBRANCH 145 152
ENDBRANCH 140 144
ENDBRANCH 120 140
ENDBRANCH 119 123
ENDBRANCH 103 119
ENDBRANCH 102 106
ENDBRANCH 82 102
ENDBRANCH 81 85
ENDBRANCH 65 81
ENDBRANCH 64 68
ENDBRANCH 41 64
ENDBRANCH 40 44
ENDBRANCH 24 40
ENDBRANCH 23 27
ENDBRANCH 1 23
TORSDOF 31
ENDMDL
MODEL 83
REMARK VINA RESULT:      -5.1     41.055     47.807
ROOT
ATOM      1  C1  SGN B   1      -2.598   2.747  29.2780  0.00  0.00     0.000 C
ATOM      2  C2  SGN B   1      -2.902   1.278  29.6160  0.00  0.00     0.000 C
ATOM      3  C3  SGN B   1      -1.877   0.348  28.9570  0.00  0.00     0.000 C
ATOM      4  C4  SGN B   1      -1.836   0.591  27.4520  0.00  0.00     0.000 C
ATOM      5  C5  SGN B   1      -1.674   2.087  27.1930  0.00  0.00     0.000 C
ATOM      6  O5  SGN B   1      -2.725   2.809  27.8640  0.00  0.00     0.000 O
ATOM      7   O  SGN B   1      -2.187  -1.013  29.2350  0.00  0.00     0.000 O
ATOM      9  HD  SGN B   1      -2.894  -0.755  28.8070  0.00  0.00     0.000 HD
ATOM      9   O  SGN B   1      -0.750  -0.123  26.8900  0.00  0.00     0.000 O
ATOM     11  HD  SGN B   1      -1.457   0.135  26.4620  0.00  0.00     0.000 HD
ENDROOT
BRANCH 2 13
ATOM     11   N  SGN B   1      -4.095   1.525  30.4470  0.00  0.00     0.000 N
ATOM     13  HD  SGN B   1      -3.324   1.841  30.6800  0.00  0.00     0.000 HD
ATOM     13   S  SGN B   1      -4.003   1.754  32.0370  0.00  0.00     0.000 S
ATOM     14   O  SGN B   1      -2.655   1.731  32.4530  0.00  0.00     0.000 OA
ATOM     15   O  SGN B   1      -4.823   2.867  32.3790  0.00  0.00     0.000 OA
ATOM     16   O  SGN B   1      -4.759   0.467  32.4910  0.00  0.00     0.000 OA
ENDBRANCH 2 13
BRANCH 5 17
ATOM     17   C  SGN B   1      -1.730   2.466  25.7330  0.00  0.00     0.000 C
ATOM     18   O  SGN B   1      -2.363   3.750  25.5590  0.00  0.00     0.000 O
ATOM     19   S  SGN B   1      -3.448   3.844  24.3880  0.00  0.00     0.000 S
ATOM     20   O  SGN B   1      -3.749   5.254  24.2680  0.00  0.00     0.000 OA
ATOM     21   O  SGN B   1      -2.770   3.297  23.2350  0.00  0.00     0.000 OA
ATOM     22   O  SGN B   1      -4.566   3.049  24.8450  0.00  0.00     0.000 OA
ENDBRANCH 5 17
BRANCH 1 23
ATOM     23  O4  IDS B   2      -1.884   3.810  29.7470  0.00  0.00     0.000 O
BRANCH 23 27
ATOM     24  C1  IDS B   2       0.467   6.436  31.9400  0.00  0.00     0.000 C
ATOM     25  C2  IDS B   2       0.662   4.938  32.2620  0.00  0.00     0.000 C
ATOM     26  C3  IDS B   2      -0.015   4.061  31.2120  0.00  0.00     0.000 C
ATOM     27  C4  IDS B   2      -1.490   4.382  31.0120  0.00  0.00     0.000 C
ATOM     28  C5  IDS B   2      -1.718   5.903  31.1230  0.00  0.00     0.000 C
ATOM     29  O5  IDS B   2      -0.510   6.615  30.9060  0.00  0.00     0.000 O
ATOM     30   O  IDS B   2       0.078   2.698  31.6100  0.00  0.00     0.000 O
ATOM     32  HD  IDS B   2      -0.503   2.477  32.2120  0.00  0.00     0.000 HD
BRANCH 25 32
ATOM     32   O  IDS B   2       2.094   4.555  32.3100  0.00  0.00     0.000 O
ATOM     33   S  IDS B   2       2.817   4.054  33.7070  0.00  0.00     0.000 S
ATOM     34   O  IDS B   2       4.242   3.988  33.4240  0.00  0.00     0.000 OA
ATOM     35   O  IDS B   2       2.529   5.007  34.7700  0.00  0.00     0.000 OA
ATOM     36   O  IDS B   2       2.272   2.744  33.9790  0.00  0.00     0.000 OA
ENDBRANCH 25 32
BRANCH 28 37
ATOM     37   C  IDS B   2      -2.818   6.533  30.2430  0.00  0.00     0.000 C
ATOM     38   O  IDS B   2      -3.931   6.327  30.6670  0.00  0.00     0.000 OA
ATOM     39   O  IDS B   2      -2.652   7.249  29.2260  0.00  0.00     0.000 OA
ENDBRANCH 28 37
BRANCH 24 40
ATOM     40  O4  SUS B   3       0.936   7.373  32.7900  0.00  0.00     0.000 O
BRANCH 40 44
ATOM     41  C1  SUS B   3       2.724  11.040  31.8410  0.00  0.00     0.000 C
ATOM     42  C2  SUS B   3       1.260  11.074  32.3220  0.00  0.00     0.000 C
ATOM     43  C3  SUS B   3       0.943   9.775  33.0600  0.00  0.00     0.000 C
ATOM     44  C4  SUS B   3       1.268   8.601  32.1500  0.00  0.00     0.000 C
ATOM     45  C5  SUS B   3       2.747   8.628  31.8240  0.00  0.00     0.000 C
ATOM     46  O5  SUS B   3       3.028   9.848  31.1090  0.00  0.00     0.000 O
BRANCH 42 49
ATOM     47   N  SUS B   3       0.974  12.276  31.5200  0.00  0.00     0.000 N
ATOM     49  HD  SUS B   3       1.655  12.673  31.1620  0.00  0.00     0.000 HD
ATOM     49   S  SUS B   3       0.127  13.370  32.3270  0.00  0.00     0.000 S
ATOM     50   O  SUS B   3       0.814  13.737  33.5020  0.00  0.00     0.000 OA
ATOM     51   O  SUS B   3       0.225  14.493  31.2630  0.00  0.00     0.000 OA
ATOM     52   O  SUS B   3      -1.203  12.926  32.4610  0.00  0.00     0.000 OA
ENDBRANCH 42 49
BRANCH 43 53
ATOM     53   O  SUS B   3      -0.496   9.775  33.3840  0.00  0.00     0.000 O
ATOM     54   S  SUS B   3      -0.908   9.925  34.9690  0.00  0.00     0.000 S
ATOM     55   O  SUS B   3      -0.610  11.293  35.3700  0.00  0.00     0.000 OA
ATOM     56   O  SUS B   3      -2.323   9.601  34.9970  0.00  0.00     0.000 OA
ATOM     57   O  SUS B   3      -0.081   8.964  35.7050  0.00  0.00     0.000 OA
ENDBRANCH 43 53
BRANCH 45 58
ATOM     58   C  SUS B   3       3.168   7.430  31.0000  0.00  0.00     0.000 C
ATOM     59   S  SUS B   3       5.234   6.237  30.0570  0.00  0.00     0.000 S
ATOM     60   O  SUS B   3       4.599   7.305  31.0380  0.00  0.00     0.000 O
ATOM     61   O  SUS B   3       5.225   6.868  28.7510  0.00  0.00     0.000 OA
ATOM     62   O  SUS B   3       6.557   6.120  30.6080  0.00  0.00     0.000 OA
ATOM     63   O  SUS B   3       4.421   5.079  30.1780  0.00  0.00     0.000 OA
ENDBRANCH 45 58
BRANCH 41 64
ATOM     64  O4  IDS B   4       3.636  11.346  32.8210  0.00  0.00     0.000 O
BRANCH 64 68
ATOM     65  C1  IDS B   4       6.749  12.801  34.0330  0.00  0.00     0.000 C
ATOM     66  C2  IDS B   4       6.012  13.433  32.8450  0.00  0.00     0.000 C
ATOM     67  C3  IDS B   4       5.553  12.439  31.7920  0.00  0.00     0.000 C
ATOM     68  C4  IDS B   4       5.002  11.158  32.3890  0.00  0.00     0.000 C
ATOM     69  C5  IDS B   4       5.944  10.714  33.5160  0.00  0.00     0.000 C
ATOM     70  O5  IDS B   4       5.976  11.723  34.5280  0.00  0.00     0.000 O
ATOM     71   O  IDS B   4       6.669  12.145  30.9780  0.00  0.00     0.000 O
ATOM     73  HD  IDS B   4       6.213  12.605  31.5530  0.00  0.00     0.000 HD
BRANCH 66 73
ATOM     73   O  IDS B   4       4.786  14.076  33.3370  0.00  0.00     0.000 O
ATOM     74   S  IDS B   4       4.584  15.653  33.0370  0.00  0.00     0.000 S
ATOM     75   O  IDS B   4       5.741  16.326  33.5880  0.00  0.00     0.000 OA
ATOM     76   O  IDS B   4       3.355  15.933  33.7350  0.00  0.00     0.000 OA
ATOM     77   O  IDS B   4       4.490  15.763  31.6000  0.00  0.00     0.000 OA
ENDBRANCH 66 73
BRANCH 69 78
ATOM     78   C  IDS B   4       5.650   9.327  34.0720  0.00  0.00     0.000 C
ATOM     79   O  IDS B   4       4.935   9.228  35.0680  0.00  0.00     0.000 OA
ATOM     80   O  IDS B   4       6.055   8.334  33.4390  0.00  0.00     0.000 OA
ENDBRANCH 69 78
BRANCH 65 81
ATOM     81  O4  SGN B   5       8.032  12.522  33.6740  0.00  0.00     0.000 O
BRANCH 81 85
ATOM     82  C1  SGN B   5      11.766  11.584  35.3520  0.00  0.00     0.000 C
ATOM     83  C2  SGN B   5      10.970  10.427  34.7300  0.00  0.00     0.000 C
ATOM     84  C3  SGN B   5       9.902  10.990  33.7820  0.00  0.00     0.000 C
ATOM     85  C4  SGN B   5       9.030  11.976  34.5390  0.00  0.00     0.000 C
ATOM     86  C5  SGN B   5       9.924  13.085  35.0870  0.00  0.00     0.000 C
ATOM     87  O5  SGN B   5      10.890  12.500  35.9810  0.00  0.00     0.000 O
ATOM     88   O  SGN B   5       9.129   9.936  33.2500  0.00  0.00     0.000 O
ATOM     90  HD  SGN B   5       9.766  10.351  32.8350  0.00  0.00     0.000 HD
BRANCH 83 92
ATOM     90   N  SGN B   5      12.040   9.669  35.4080  0.00  0.00     0.000 N
ATOM     92  HD  SGN B   5      11.988   9.761  36.2680  0.00  0.00     0.000 HD
ATOM     92   S  SGN B   5      12.345   8.184  34.9030  0.00  0.00     0.000 S
ATOM     93   O  SGN B   5      13.406   7.732  35.7510  0.00  0.00     0.000 OA
ATOM     94   O  SGN B   5      11.092   7.510  34.9080  0.00  0.00     0.000 OA
ATOM     95   O  SGN B   5      12.764   8.348  33.4580  0.00  0.00     0.000 OA
ENDBRANCH 83 92
BRANCH 86 96
ATOM     96   C  SGN B   5       9.183  14.155  35.8610  0.00  0.00     0.000 C
ATOM     97   O  SGN B   5       9.963  15.350  35.9390  0.00  0.00     0.000 O
ATOM     98   S  SGN B   5       9.223  16.706  35.5080  0.00  0.00     0.000 S
ATOM     99   O  SGN B   5      10.176  17.722  35.8850  0.00  0.00     0.000 OA
ATOM    100   O  SGN B   5       8.962  16.625  34.1160  0.00  0.00     0.000 OA
ATOM    101   O  SGN B   5       8.033  16.727  36.2960  0.00  0.00     0.000 OA
ENDBRANCH 86 96
BRANCH 82 102
ATOM    102  O4  IDS B   6      12.553  12.228  34.4430  0.00  0.00     0.000 O
BRANCH 102 106
ATOM    103  C1  IDS B   6      15.949  13.485  34.0700  0.00  0.00     0.000 C
ATOM    104  C2  IDS B   6      15.590  12.520  35.2100  0.00  0.00     0.000 C
ATOM    105  C3  IDS B   6      14.330  12.873  35.9780  0.00  0.00     0.000 C
ATOM    106  C4  IDS B   6      13.209  13.356  35.0750  0.00  0.00     0.000 C
ATOM    107  C5  IDS B   6      13.770  14.318  34.0240  0.00  0.00     0.000 C
ATOM    108  O5  IDS B   6      14.815  13.719  33.2570  0.00  0.00     0.000 O
ATOM    109   O  IDS B   6      14.662  13.860  36.9410  0.00  0.00     0.000 O
ATOM    111  HD  IDS B   6      15.379  14.227  36.6240  0.00  0.00     0.000 HD
BRANCH 104 111
ATOM    111   O  IDS B   6      15.340  11.185  34.6470  0.00  0.00     0.000 O
ATOM    112   S  IDS B   6      16.517  10.103  34.7230  0.00  0.00     0.000 S
ATOM    113   O  IDS B   6      17.627  10.720  34.0130  0.00  0.00     0.000 OA
ATOM    114   O  IDS B   6      16.783   9.804  36.1340  0.00  0.00     0.000 OA
ATOM    115   O  IDS B   6      15.887   9.020  33.9990  0.00  0.00     0.000 OA
ENDBRANCH 104 111
BRANCH 107 116
ATOM    116   C  IDS B   6      12.645  14.769  33.1010  0.00  0.00     0.000 C
ATOM    117   O  IDS B   6      11.970  15.693  33.4800  0.00  0.00     0.000 OA
ATOM    118   O  IDS B   6      12.436  14.211  32.0350  0.00  0.00     0.000 OA
ENDBRANCH 107 116
BRANCH 103 119
ATOM    119  O4  SGN B   7      16.588  14.504  34.7010  0.00  0.00     0.000 O
BRANCH 119 123
ATOM    120  C1  SGN B   7      19.328  17.449  33.5560  0.00  0.00     0.000 C
ATOM    121  C2  SGN B   7      18.101  17.226  32.6530  0.00  0.00     0.000 C
ATOM    122  C3  SGN B   7      17.021  16.431  33.3980  0.00  0.00     0.000 C
ATOM    123  C4  SGN B   7      17.618  15.148  33.9510  0.00  0.00     0.000 C
ATOM    124  C5  SGN B   7      18.836  15.476  34.8310  0.00  0.00     0.000 C
ATOM    125  O5  SGN B   7      19.826  16.223  34.0890  0.00  0.00     0.000 O
ATOM    126   O  SGN B   7      15.940  16.158  32.4990  0.00  0.00     0.000 O
ATOM    128  HD  SGN B   7      16.677  16.585  32.6550  0.00  0.00     0.000 HD
BRANCH 121 130
ATOM    128   N  SGN B   7      18.750  18.181  31.7500  0.00  0.00     0.000 N
ATOM    130  HD  SGN B   7      18.587  17.664  31.0750  0.00  0.00     0.000 HD
ATOM    130   S  SGN B   7      17.914  19.101  30.7270  0.00  0.00     0.000 S
ATOM    131   O  SGN B   7      16.897  19.708  31.5170  0.00  0.00     0.000 OA
ATOM    132   O  SGN B   7      18.829  19.902  29.9970  0.00  0.00     0.000 OA
ATOM    133   O  SGN B   7      17.433  18.018  29.7030  0.00  0.00     0.000 OA
ENDBRANCH 121 130
BRANCH 124 134
ATOM    134   C  SGN B   7      19.566  14.264  35.3320  0.00  0.00     0.000 C
ATOM    135   O  SGN B   7      19.326  14.136  36.7430  0.00  0.00     0.000 O
ATOM    136   S  SGN B   7      19.881  12.838  37.4330  0.00  0.00     0.000 S
ATOM    137   O  SGN B   7      19.614  12.982  38.8440  0.00  0.00     0.000 OA
ATOM    138   O  SGN B   7      21.292  12.820  37.1240  0.00  0.00     0.000 OA
ATOM    139   O  SGN B   7      19.109  11.787  36.7880  0.00  0.00     0.000 OA
ENDBRANCH 124 134
BRANCH 120 140
ATOM    140  O4  IDS B   8      19.414  18.205  34.6570  0.00  0.00     0.000 O
BRANCH 140 144
ATOM    141  C1  IDS B   8      18.535  19.649  37.8350  0.00  0.00     0.000 C
ATOM    142  C2  IDS B   8      17.450  19.370  36.7560  0.00  0.00     0.000 C
ATOM    143  C3  IDS B   8      17.836  19.896  35.3620  0.00  0.00     0.000 C
ATOM    144  C4  IDS B   8      19.291  19.587  35.0150  0.00  0.00     0.000 C
ATOM    145  C5  IDS B   8      20.200  19.905  36.2110  0.00  0.00     0.000 C
ATOM    146  O5  IDS B   8      19.802  19.192  37.3800  0.00  0.00     0.000 O
BRANCH 142 147
ATOM    147   O  IDS B   8      17.242  17.903  36.6300  0.00  0.00     0.000 O
ATOM    148   S  IDS B   8      15.945  17.183  37.2860  0.00  0.00     0.000 S
ATOM    149   O  IDS B   8      15.370  18.102  38.2430  0.00  0.00     0.000 OA
ATOM    150   O  IDS B   8      15.055  16.902  36.1740  0.00  0.00     0.000 OA
ATOM    151   O  IDS B   8      16.455  15.985  37.9240  0.00  0.00     0.000 OA
ENDBRANCH 142 147
BRANCH 145 152
ATOM    152   C  IDS B   8      21.646  19.525  35.9630  0.00  0.00     0.000 C
ATOM    153   O  IDS B   8      22.382  20.305  35.3710  0.00  0.00     0.000 OA
ATOM    154   O  IDS B   8      22.066  18.458  36.3720  0.00  0.00     0.000 OA
ENDBRANCH 145 152
ENDBRANCH 140 144
ENDBRANCH 120 140
ENDBRANCH 119 123
ENDBRANCH 103 119
ENDBRANCH 102 106
ENDBRANCH 82 102
ENDBRANCH 81 85
ENDBRANCH 65 81
ENDBRANCH 64 68
ENDBRANCH 41 64
ENDBRANCH 40 44
ENDBRANCH 24 40
ENDBRANCH 23 27
ENDBRANCH 1 23
TORSDOF 31
ENDMDL
MODEL 84
REMARK VINA RESULT:      -5.1     17.611     21.976
ROOT
ATOM      1  C1  SGN B   1      63.448   6.858  22.8100  0.00  0.00     0.000 C
ATOM      2  C2  SGN B   1      62.607   7.759  23.7290  0.00  0.00     0.000 C
ATOM      3  C3  SGN B   1      61.158   7.834  23.2360  0.00  0.00     0.000 C
ATOM      4  C4  SGN B   1      61.118   8.303  21.7850  0.00  0.00     0.000 C
ATOM      5  C5  SGN B   1      62.083   7.454  20.9600  0.00  0.00     0.000 C
ATOM      6  O5  SGN B   1      63.397   7.510  21.5480  0.00  0.00     0.000 O
ATOM      7   O  SGN B   1      60.393   8.704  24.0620  0.00  0.00     0.000 O
ATOM      9  HD  SGN B   1      60.997   9.242  23.7530  0.00  0.00     0.000 HD
ATOM      9   O  SGN B   1      59.801   8.172  21.2840  0.00  0.00     0.000 O
ATOM     11  HD  SGN B   1      60.405   8.709  20.9740  0.00  0.00     0.000 HD
ENDROOT
BRANCH 2 13
ATOM     11   N  SGN B   1      63.654   8.142  24.6950  0.00  0.00     0.000 N
ATOM     13  HD  SGN B   1      63.451   7.309  24.5730  0.00  0.00     0.000 HD
ATOM     13   S  SGN B   1      63.995   7.251  25.9900  0.00  0.00     0.000 S
ATOM     14   O  SGN B   1      63.199   6.087  26.0020  0.00  0.00     0.000 OA
ATOM     15   O  SGN B   1      65.411   7.133  26.0950  0.00  0.00     0.000 OA
ATOM     16   O  SGN B   1      63.536   8.264  27.0840  0.00  0.00     0.000 OA
ENDBRANCH 2 13
BRANCH 5 17
ATOM     17   C  SGN B   1      62.214   7.895  19.5240  0.00  0.00     0.000 C
ATOM     18   O  SGN B   1      62.258   9.333  19.4290  0.00  0.00     0.000 O
ATOM     19   S  SGN B   1      61.347   9.989  18.2900  0.00  0.00     0.000 S
ATOM     20   O  SGN B   1      61.743  11.381  18.2480  0.00  0.00     0.000 OA
ATOM     21   O  SGN B   1      61.690   9.253  17.0960  0.00  0.00     0.000 OA
ATOM     22   O  SGN B   1      59.985   9.787  18.7340  0.00  0.00     0.000 OA
ENDBRANCH 5 17
BRANCH 1 23
ATOM     23  O4  IDS B   2      63.819   5.553  22.6670  0.00  0.00     0.000 O
BRANCH 23 27
ATOM     24  C1  IDS B   2      62.703   1.558  22.5330  0.00  0.00     0.000 C
ATOM     25  C2  IDS B   2      61.838   2.462  23.4390  0.00  0.00     0.000 C
ATOM     26  C3  IDS B   2      62.140   3.937  23.1860  0.00  0.00     0.000 C
ATOM     27  C4  IDS B   2      63.616   4.287  23.3270  0.00  0.00     0.000 C
ATOM     28  C5  IDS B   2      64.485   3.136  22.7810  0.00  0.00     0.000 C
ATOM     29  O5  IDS B   2      63.740   2.314  21.8950  0.00  0.00     0.000 O
ATOM     30   O  IDS B   2      61.419   4.730  24.1220  0.00  0.00     0.000 O
ATOM     32  HD  IDS B   2      61.790   4.757  24.9040  0.00  0.00     0.000 HD
BRANCH 25 32
ATOM     32   O  IDS B   2      60.386   2.258  23.2140  0.00  0.00     0.000 O
ATOM     33   S  IDS B   2      59.367   1.819  24.4360  0.00  0.00     0.000 S
ATOM     34   O  IDS B   2      58.096   1.497  23.8080  0.00  0.00     0.000 OA
ATOM     35   O  IDS B   2      59.920   0.670  25.1380  0.00  0.00     0.000 OA
ATOM     36   O  IDS B   2      59.255   2.982  25.2860  0.00  0.00     0.000 OA
ENDBRANCH 25 32
BRANCH 28 37
ATOM     37   C  IDS B   2      65.818   3.502  22.0980  0.00  0.00     0.000 C
ATOM     38   O  IDS B   2      65.820   3.257  20.9140  0.00  0.00     0.000 OA
ATOM     39   O  IDS B   2      66.811   4.058  22.6280  0.00  0.00     0.000 OA
ENDBRANCH 28 37
BRANCH 24 40
ATOM     40  O4  SUS B   3      62.629   0.216  22.6560  0.00  0.00     0.000 O
BRANCH 40 44
ATOM     41  C1  SUS B   3      62.778  -2.787  19.7400  0.00  0.00     0.000 C
ATOM     42  C2  SUS B   3      64.052  -1.946  19.9510  0.00  0.00     0.000 C
ATOM     43  C3  SUS B   3      63.988  -1.269  21.3180  0.00  0.00     0.000 C
ATOM     44  C4  SUS B   3      62.697  -0.470  21.4110  0.00  0.00     0.000 C
ATOM     45  C5  SUS B   3      61.523  -1.418  21.2800  0.00  0.00     0.000 C
ATOM     46  O5  SUS B   3      61.584  -2.034  19.9780  0.00  0.00     0.000 O
BRANCH 42 49
ATOM     47   N  SUS B   3      65.195  -2.840  19.6980  0.00  0.00     0.000 N
ATOM     49  HD  SUS B   3      65.764  -2.934  20.3440  0.00  0.00     0.000 HD
ATOM     49   S  SUS B   3      66.007  -2.446  18.3740  0.00  0.00     0.000 S
ATOM     50   O  SUS B   3      66.459  -1.114  18.4680  0.00  0.00     0.000 OA
ATOM     51   O  SUS B   3      67.181  -3.437  18.5810  0.00  0.00     0.000 OA
ATOM     52   O  SUS B   3      65.251  -2.800  17.2390  0.00  0.00     0.000 OA
ENDBRANCH 42 49
BRANCH 43 53
ATOM     53   O  SUS B   3      65.148  -0.364  21.4330  0.00  0.00     0.000 O
ATOM     54   S  SUS B   3      66.319  -0.779  22.5090  0.00  0.00     0.000 S
ATOM     55   O  SUS B   3      67.019  -1.935  21.9670  0.00  0.00     0.000 OA
ATOM     56   O  SUS B   3      67.144   0.412  22.6070  0.00  0.00     0.000 OA
ATOM     57   O  SUS B   3      65.633  -1.111  23.7610  0.00  0.00     0.000 OA
ENDBRANCH 43 53
BRANCH 45 58
ATOM     58   C  SUS B   3      60.199  -0.710  21.4630  0.00  0.00     0.000 C
ATOM     59   S  SUS B   3      58.339   0.489  20.1630  0.00  0.00     0.000 S
ATOM     60   O  SUS B   3      59.622  -0.439  20.1740  0.00  0.00     0.000 O
ATOM     61   O  SUS B   3      58.845   1.838  20.3290  0.00  0.00     0.000 OA
ATOM     62   O  SUS B   3      57.841   0.242  18.8370  0.00  0.00     0.000 OA
ATOM     63   O  SUS B   3      57.517   0.014  21.2200  0.00  0.00     0.000 OA
ENDBRANCH 45 58
BRANCH 41 64
ATOM     64  O4  IDS B   4      62.808  -4.006  20.3720  0.00  0.00     0.000 O
BRANCH 64 68
ATOM     65  C1  IDS B   4      62.250  -7.570  19.8600  0.00  0.00     0.000 C
ATOM     66  C2  IDS B   4      62.345  -6.623  18.6580  0.00  0.00     0.000 C
ATOM     67  C3  IDS B   4      61.528  -5.349  18.7960  0.00  0.00     0.000 C
ATOM     68  C4  IDS B   4      61.588  -4.758  20.1920  0.00  0.00     0.000 C
ATOM     69  C5  IDS B   4      61.420  -5.901  21.2020  0.00  0.00     0.000 C
ATOM     70  O5  IDS B   4      62.494  -6.831  21.0430  0.00  0.00     0.000 O
ATOM     71   O  IDS B   4      60.192  -5.671  18.4700  0.00  0.00     0.000 O
ATOM     73  HD  IDS B   4      61.049  -5.794  18.4900  0.00  0.00     0.000 HD
BRANCH 66 73
ATOM     73   O  IDS B   4      63.739  -6.180  18.5130  0.00  0.00     0.000 O
ATOM     74   S  IDS B   4      64.507  -6.529  17.1330  0.00  0.00     0.000 S
ATOM     75   O  IDS B   4      64.435  -7.966  16.9770  0.00  0.00     0.000 OA
ATOM     76   O  IDS B   4      65.834  -6.033  17.3980  0.00  0.00     0.000 OA
ATOM     77   O  IDS B   4      63.797  -5.806  16.1040  0.00  0.00     0.000 OA
ENDBRANCH 66 73
BRANCH 69 78
ATOM     78   C  IDS B   4      61.238  -5.446  22.6430  0.00  0.00     0.000 C
ATOM     79   O  IDS B   4      61.973  -5.918  23.5090  0.00  0.00     0.000 OA
ATOM     80   O  IDS B   4      60.425  -4.534  22.8820  0.00  0.00     0.000 OA
ENDBRANCH 69 78
BRANCH 65 81
ATOM     81  O4  SGN B   5      61.079  -8.262  19.8000  0.00  0.00     0.000 O
BRANCH 81 85
ATOM     82  C1  SGN B   5      59.318 -11.650  21.5500  0.00  0.00     0.000 C
ATOM     83  C2  SGN B   5      58.650 -10.295  21.8260  0.00  0.00     0.000 C
ATOM     84  C3  SGN B   5      59.109  -9.272  20.7770  0.00  0.00     0.000 C
ATOM     85  C4  SGN B   5      60.626  -9.202  20.7770  0.00  0.00     0.000 C
ATOM     86  C5  SGN B   5      61.171 -10.594  20.4700  0.00  0.00     0.000 C
ATOM     87  O5  SGN B   5      60.724 -11.502  21.4950  0.00  0.00     0.000 O
ATOM     88   O  SGN B   5      58.544  -8.011  21.0580  0.00  0.00     0.000 O
ATOM     90  HD  SGN B   5      58.266  -8.561  20.4510  0.00  0.00     0.000 HD
BRANCH 83 92
ATOM     90   N  SGN B   5      57.783 -11.228  22.5730  0.00  0.00     0.000 N
ATOM     92  HD  SGN B   5      58.255 -11.783  23.0410  0.00  0.00     0.000 HD
ATOM     92   S  SGN B   5      56.504 -10.629  23.3210  0.00  0.00     0.000 S
ATOM     93   O  SGN B   5      55.893 -11.766  23.9420  0.00  0.00     0.000 OA
ATOM     94   O  SGN B   5      56.991  -9.556  24.1190  0.00  0.00     0.000 OA
ATOM     95   O  SGN B   5      55.661 -10.026  22.2190  0.00  0.00     0.000 OA
ENDBRANCH 83 92
BRANCH 86 96
ATOM     96   C  SGN B   5      62.683 -10.673  20.4250  0.00  0.00     0.000 C
ATOM     97   O  SGN B   5      63.220 -10.774  21.7460  0.00  0.00     0.000 O
ATOM     98   S  SGN B   5      64.267 -11.963  21.9940  0.00  0.00     0.000 S
ATOM     99   O  SGN B   5      64.765 -11.677  23.3180  0.00  0.00     0.000 OA
ATOM    100   O  SGN B   5      63.557 -13.186  21.8790  0.00  0.00     0.000 OA
ATOM    101   O  SGN B   5      65.247 -11.791  20.9720  0.00  0.00     0.000 OA
ENDBRANCH 86 96
BRANCH 82 102
ATOM    102  O4  IDS B   6      58.858 -12.238  20.4090  0.00  0.00     0.000 O
BRANCH 102 106
ATOM    103  C1  IDS B   6      57.310 -14.966  18.5590  0.00  0.00     0.000 C
ATOM    104  C2  IDS B   6      56.808 -14.582  19.9600  0.00  0.00     0.000 C
ATOM    105  C3  IDS B   6      57.894 -14.395  21.0030  0.00  0.00     0.000 C
ATOM    106  C4  IDS B   6      59.110 -13.666  20.4580  0.00  0.00     0.000 C
ATOM    107  C5  IDS B   6      59.456 -14.206  19.0680  0.00  0.00     0.000 C
ATOM    108  O5  IDS B   6      58.355 -14.098  18.1640  0.00  0.00     0.000 O
ATOM    109   O  IDS B   6      58.253 -15.673  21.5000  0.00  0.00     0.000 O
ATOM    111  HD  IDS B   6      58.016 -16.216  20.8690  0.00  0.00     0.000 HD
BRANCH 104 111
ATOM    111   O  IDS B   6      56.115 -13.287  19.8840  0.00  0.00     0.000 O
ATOM    112   S  IDS B   6      54.551 -13.248  20.2220  0.00  0.00     0.000 S
ATOM    113   O  IDS B   6      53.948 -14.169  19.2720  0.00  0.00     0.000 OA
ATOM    114   O  IDS B   6      54.372 -13.617  21.6310  0.00  0.00     0.000 OA
ATOM    115   O  IDS B   6      54.285 -11.854  19.9400  0.00  0.00     0.000 OA
ENDBRANCH 104 111
BRANCH 107 116
ATOM    116   C  IDS B   6      60.655 -13.444  18.5160  0.00  0.00     0.000 C
ATOM    117   O  IDS B   6      61.733 -13.723  18.9750  0.00  0.00     0.000 OA
ATOM    118   O  IDS B   6      60.521 -12.587  17.6570  0.00  0.00     0.000 OA
ENDBRANCH 107 116
BRANCH 103 119
ATOM    119  O4  SGN B   7      57.498 -16.308  18.6420  0.00  0.00     0.000 O
BRANCH 119 123
ATOM    120  C1  SGN B   7      58.447 -19.327  15.9080  0.00  0.00     0.000 C
ATOM    121  C2  SGN B   7      59.593 -18.750  16.7600  0.00  0.00     0.000 C
ATOM    122  C3  SGN B   7      59.034 -17.973  17.9590  0.00  0.00     0.000 C
ATOM    123  C4  SGN B   7      58.040 -16.930  17.4760  0.00  0.00     0.000 C
ATOM    124  C5  SGN B   7      56.944 -17.602  16.6340  0.00  0.00     0.000 C
ATOM    125  O5  SGN B   7      57.515 -18.320  15.5170  0.00  0.00     0.000 O
ATOM    126   O  SGN B   7      60.121 -17.370  18.6700  0.00  0.00     0.000 O
ATOM    128  HD  SGN B   7      59.860 -17.922  18.0560  0.00  0.00     0.000 HD
BRANCH 121 130
ATOM    128   N  SGN B   7      60.442 -19.623  15.9460  0.00  0.00     0.000 N
ATOM    130  HD  SGN B   7      60.984 -18.965  15.7920  0.00  0.00     0.000 HD
ATOM    130   S  SGN B   7      61.876 -20.149  16.4580  0.00  0.00     0.000 S
ATOM    131   O  SGN B   7      61.635 -20.683  17.7550  0.00  0.00     0.000 OA
ATOM    132   O  SGN B   7      62.443 -20.960  15.4420  0.00  0.00     0.000 OA
ATOM    133   O  SGN B   7      62.698 -18.817  16.4060  0.00  0.00     0.000 OA
ENDBRANCH 121 130
BRANCH 124 134
ATOM    134   C  SGN B   7      55.977 -16.637  16.0150  0.00  0.00     0.000 C
ATOM    135   O  SGN B   7      56.615 -16.005  14.8920  0.00  0.00     0.000 O
ATOM    136   S  SGN B   7      55.714 -15.067  14.0110  0.00  0.00     0.000 S
ATOM    137   O  SGN B   7      56.587 -14.475  13.0250  0.00  0.00     0.000 OA
ATOM    138   O  SGN B   7      55.163 -14.099  14.9310  0.00  0.00     0.000 OA
ATOM    139   O  SGN B   7      54.741 -15.997  13.4590  0.00  0.00     0.000 OA
ENDBRANCH 124 134
BRANCH 120 140
ATOM    140  O4  IDS B   8      57.583 -20.294  16.2370  0.00  0.00     0.000 O
BRANCH 140 144
ATOM    141  C1  IDS B   8      55.368 -22.131  18.4010  0.00  0.00     0.000 C
ATOM    142  C2  IDS B   8      56.677 -21.494  18.9500  0.00  0.00     0.000 C
ATOM    143  C3  IDS B   8      57.912 -21.815  18.0890  0.00  0.00     0.000 C
ATOM    144  C4  IDS B   8      57.619 -21.681  16.5960  0.00  0.00     0.000 C
ATOM    145  C5  IDS B   8      56.278 -22.349  16.2570  0.00  0.00     0.000 C
ATOM    146  O5  IDS B   8      55.209 -21.804  17.0260  0.00  0.00     0.000 O
BRANCH 142 147
ATOM    147   O  IDS B   8      56.533 -20.014  18.9800  0.00  0.00     0.000 O
ATOM    148   S  IDS B   8      56.090 -19.244  20.3370  0.00  0.00     0.000 S
ATOM    149   O  IDS B   8      55.530 -20.228  21.2360  0.00  0.00     0.000 OA
ATOM    150   O  IDS B   8      57.304 -18.639  20.8530  0.00  0.00     0.000 OA
ATOM    151   O  IDS B   8      55.101 -18.270  19.9170  0.00  0.00     0.000 OA
ENDBRANCH 142 147
BRANCH 145 152
ATOM    152   C  IDS B   8      55.884 -22.163  14.8050  0.00  0.00     0.000 C
ATOM    153   O  IDS B   8      56.624 -22.578  13.9200  0.00  0.00     0.000 OA
ATOM    154   O  IDS B   8      54.828 -21.622  14.5330  0.00  0.00     0.000 OA
ENDBRANCH 145 152
ENDBRANCH 140 144
ENDBRANCH 120 140
ENDBRANCH 119 123
ENDBRANCH 103 119
ENDBRANCH 102 106
ENDBRANCH 82 102
ENDBRANCH 81 85
ENDBRANCH 65 81
ENDBRANCH 64 68
ENDBRANCH 41 64
ENDBRANCH 40 44
ENDBRANCH 24 40
ENDBRANCH 23 27
ENDBRANCH 1 23
TORSDOF 31
ENDMDL
MODEL 85
REMARK VINA RESULT:      -5.1     16.263     19.850
ROOT
ATOM      1  C1  SGN B   1      59.922   8.785  19.9580  0.00  0.00     0.000 C
ATOM      2  C2  SGN B   1      58.965   9.880  20.4560  0.00  0.00     0.000 C
ATOM      3  C3  SGN B   1      57.775  10.036  19.5020  0.00  0.00     0.000 C
ATOM      4  C4  SGN B   1      58.269  10.311  18.0860  0.00  0.00     0.000 C
ATOM      5  C5  SGN B   1      59.319   9.267  17.7120  0.00  0.00     0.000 C
ATOM      6  O5  SGN B   1      60.369   9.267  18.6980  0.00  0.00     0.000 O
ATOM      7   O  SGN B   1      56.915  11.081  19.9420  0.00  0.00     0.000 O
ATOM      9  HD  SGN B   1      57.655  11.508  19.8050  0.00  0.00     0.000 HD
ATOM      9   O  SGN B   1      57.177  10.249  17.1870  0.00  0.00     0.000 O
ATOM     11  HD  SGN B   1      57.917  10.676  17.0490  0.00  0.00     0.000 HD
ENDROOT
BRANCH 2 13
ATOM     11   N  SGN B   1      59.744  10.227  21.6600  0.00  0.00     0.000 N
ATOM     13  HD  SGN B   1      59.394   9.439  21.5740  0.00  0.00     0.000 HD
ATOM     13   S  SGN B   1      59.470   9.538  23.0880  0.00  0.00     0.000 S
ATOM     14   O  SGN B   1      58.453   8.568  22.9720  0.00  0.00     0.000 OA
ATOM     15   O  SGN B   1      60.723   9.174  23.6600  0.00  0.00     0.000 OA
ATOM     16   O  SGN B   1      58.965  10.801  23.8520  0.00  0.00     0.000 OA
ENDBRANCH 2 13
BRANCH 5 17
ATOM     17   C  SGN B   1      59.964   9.499  16.3680  0.00  0.00     0.000 C
ATOM     18   O  SGN B   1      59.988  10.904  16.0440  0.00  0.00     0.000 O
ATOM     19   S  SGN B   1      59.547  11.288  14.5560  0.00  0.00     0.000 S
ATOM     20   O  SGN B   1      59.878  12.690  14.4160  0.00  0.00     0.000 OA
ATOM     21   O  SGN B   1      60.341  10.419  13.7180  0.00  0.00     0.000 OA
ATOM     22   O  SGN B   1      58.126  11.020  14.5020  0.00  0.00     0.000 OA
ENDBRANCH 5 17
BRANCH 1 23
ATOM     23  O4  IDS B   2      60.134   7.443  20.0670  0.00  0.00     0.000 O
BRANCH 23 27
ATOM     24  C1  IDS B   2      60.034   3.429  21.1200  0.00  0.00     0.000 C
ATOM     25  C2  IDS B   2      58.802   4.260  21.5420  0.00  0.00     0.000 C
ATOM     26  C3  IDS B   2      58.804   5.624  20.8570  0.00  0.00     0.000 C
ATOM     27  C4  IDS B   2      60.087   6.413  21.0770  0.00  0.00     0.000 C
ATOM     28  C5  IDS B   2      61.299   5.460  21.0730  0.00  0.00     0.000 C
ATOM     29  O5  IDS B   2      60.984   4.241  20.4170  0.00  0.00     0.000 O
ATOM     30   O  IDS B   2      57.727   6.404  21.3640  0.00  0.00     0.000 O
ATOM     32  HD  IDS B   2      57.896   6.758  22.1360  0.00  0.00     0.000 HD
BRANCH 25 32
ATOM     32   O  IDS B   2      57.526   3.587  21.1980  0.00  0.00     0.000 O
ATOM     33   S  IDS B   2      56.402   3.210  22.3460  0.00  0.00     0.000 S
ATOM     34   O  IDS B   2      55.413   2.374  21.6850  0.00  0.00     0.000 OA
ATOM     35   O  IDS B   2      57.049   2.502  23.4430  0.00  0.00     0.000 OA
ATOM     36   O  IDS B   2      55.833   4.470  22.7640  0.00  0.00     0.000 OA
ENDBRANCH 25 32
BRANCH 28 37
ATOM     37   C  IDS B   2      62.630   5.989  20.5000  0.00  0.00     0.000 C
ATOM     38   O  IDS B   2      62.500   6.501  19.4130  0.00  0.00     0.000 OA
ATOM     39   O  IDS B   2      63.750   5.987  21.0660  0.00  0.00     0.000 OA
ENDBRANCH 28 37
BRANCH 24 40
ATOM     40  O4  SUS B   3      60.248   2.216  21.6720  0.00  0.00     0.000 O
BRANCH 40 44
ATOM     41  C1  SUS B   3      62.086  -1.193  20.0760  0.00  0.00     0.000 C
ATOM     42  C2  SUS B   3      63.009  -0.068  20.5870  0.00  0.00     0.000 C
ATOM     43  C3  SUS B   3      62.225   0.832  21.5390  0.00  0.00     0.000 C
ATOM     44  C4  SUS B   3      60.977   1.332  20.8280  0.00  0.00     0.000 C
ATOM     45  C5  SUS B   3      60.113   0.143  20.4590  0.00  0.00     0.000 C
ATOM     46  O5  SUS B   3      60.857  -0.686  19.5440  0.00  0.00     0.000 O
BRANCH 42 49
ATOM     47   N  SUS B   3      64.052  -0.404  19.6030  0.00  0.00     0.000 N
ATOM     49  HD  SUS B   3      63.941  -1.139  19.1570  0.00  0.00     0.000 HD
ATOM     49   S  SUS B   3      65.520  -0.427  20.2430  0.00  0.00     0.000 S
ATOM     50   O  SUS B   3      65.564  -1.346  21.3110  0.00  0.00     0.000 OA
ATOM     51   O  SUS B   3      66.249  -1.000  19.0000  0.00  0.00     0.000 OA
ATOM     52   O  SUS B   3      65.939   0.893  20.5000  0.00  0.00     0.000 OA
ENDBRANCH 42 49
BRANCH 43 53
ATOM     53   O  SUS B   3      63.088   1.973  21.9010  0.00  0.00     0.000 O
ATOM     54   S  SUS B   3      63.615   2.052  23.4560  0.00  0.00     0.000 S
ATOM     55   O  SUS B   3      64.596   0.991  23.6380  0.00  0.00     0.000 OA
ATOM     56   O  SUS B   3      64.169   3.389  23.5720  0.00  0.00     0.000 OA
ATOM     57   O  SUS B   3      62.438   1.838  24.3040  0.00  0.00     0.000 OA
ENDBRANCH 43 53
BRANCH 45 58
ATOM     58   C  SUS B   3      58.802   0.567  19.8350  0.00  0.00     0.000 C
ATOM     59   S  SUS B   3      56.852  -0.304  18.4120  0.00  0.00     0.000 S
ATOM     60   O  SUS B   3      58.136  -0.586  19.2950  0.00  0.00     0.000 O
ATOM     61   O  SUS B   3      57.364   0.125  17.1250  0.00  0.00     0.000 OA
ATOM     62   O  SUS B   3      56.264  -1.616  18.3680  0.00  0.00     0.000 OA
ATOM     63   O  SUS B   3      56.107   0.672  19.1260  0.00  0.00     0.000 OA
ENDBRANCH 45 58
BRANCH 41 64
ATOM     64  O4  IDS B   4      61.929  -2.228  20.9650  0.00  0.00     0.000 O
BRANCH 64 68
ATOM     65  C1  IDS B   4      62.069  -5.863  21.1570  0.00  0.00     0.000 C
ATOM     66  C2  IDS B   4      62.584  -5.135  19.9080  0.00  0.00     0.000 C
ATOM     67  C3  IDS B   4      61.652  -4.057  19.3820  0.00  0.00     0.000 C
ATOM     68  C4  IDS B   4      61.013  -3.238  20.4880  0.00  0.00     0.000 C
ATOM     69  C5  IDS B   4      60.542  -4.202  21.5850  0.00  0.00     0.000 C
ATOM     70  O5  IDS B   4      61.672  -4.900  22.1150  0.00  0.00     0.000 O
ATOM     71   O  IDS B   4      60.649  -4.702  18.6250  0.00  0.00     0.000 O
ATOM     73  HD  IDS B   4      61.415  -4.637  19.0250  0.00  0.00     0.000 HD
BRANCH 66 73
ATOM     73   O  IDS B   4      63.834  -4.441  20.2470  0.00  0.00     0.000 O
ATOM     74   S  IDS B   4      65.186  -4.900  19.4860  0.00  0.00     0.000 S
ATOM     75   O  IDS B   4      65.335  -6.318  19.7340  0.00  0.00     0.000 OA
ATOM     76   O  IDS B   4      66.182  -4.083  20.1330  0.00  0.00     0.000 OA
ATOM     77   O  IDS B   4      64.971  -4.583  18.0940  0.00  0.00     0.000 OA
ENDBRANCH 66 73
BRANCH 69 78
ATOM     78   C  IDS B   4      59.684  -3.557  22.6640  0.00  0.00     0.000 C
ATOM     79   O  IDS B   4      58.463  -3.694  22.6080  0.00  0.00     0.000 OA
ATOM     80   O  IDS B   4      60.250  -3.003  23.6240  0.00  0.00     0.000 OA
ENDBRANCH 69 78
BRANCH 65 81
ATOM     81  O4  SGN B   5      61.136  -6.786  20.7910  0.00  0.00     0.000 O
BRANCH 81 85
ATOM     82  C1  SGN B   5      60.072 -10.801  21.4110  0.00  0.00     0.000 C
ATOM     83  C2  SGN B   5      59.275  -9.740  22.1850  0.00  0.00     0.000 C
ATOM     84  C3  SGN B   5      59.457  -8.371  21.5150  0.00  0.00     0.000 C
ATOM     85  C4  SGN B   5      60.939  -8.053  21.4210  0.00  0.00     0.000 C
ATOM     86  C5  SGN B   5      61.616  -9.159  20.6160  0.00  0.00     0.000 C
ATOM     87  O5  SGN B   5      61.428 -10.412  21.3010  0.00  0.00     0.000 O
ATOM     88   O  SGN B   5      58.774  -7.381  22.2530  0.00  0.00     0.000 O
ATOM     90  HD  SGN B   5      58.494  -7.742  21.5180  0.00  0.00     0.000 HD
BRANCH 83 92
ATOM     90   N  SGN B   5      58.641 -10.995  22.6350  0.00  0.00     0.000 N
ATOM     92  HD  SGN B   5      59.238 -11.585  22.8480  0.00  0.00     0.000 HD
ATOM     92   S  SGN B   5      57.402 -10.893  23.6380  0.00  0.00     0.000 S
ATOM     93   O  SGN B   5      57.030 -12.255  23.8810  0.00  0.00     0.000 OA
ATOM     94   O  SGN B   5      57.842 -10.072  24.7130  0.00  0.00     0.000 OA
ATOM     95   O  SGN B   5      56.352 -10.115  22.8760  0.00  0.00     0.000 OA
ENDBRANCH 83 92
BRANCH 86 96
ATOM     96   C  SGN B   5      63.107  -8.967  20.4290  0.00  0.00     0.000 C
ATOM     97   O  SGN B   5      63.767  -8.892  21.6950  0.00  0.00     0.000 O
ATOM     98   S  SGN B   5      65.033  -9.857  21.8900  0.00  0.00     0.000 S
ATOM     99   O  SGN B   5      65.583  -9.410  23.1470  0.00  0.00     0.000 OA
ATOM    100   O  SGN B   5      64.554 -11.193  21.8950  0.00  0.00     0.000 OA
ATOM    101   O  SGN B   5      65.872  -9.571  20.7720  0.00  0.00     0.000 OA
ENDBRANCH 86 96
BRANCH 82 102
ATOM    102  O4  IDS B   6      59.549 -11.054  20.1780  0.00  0.00     0.000 O
BRANCH 102 106
ATOM    103  C1  IDS B   6      58.394 -13.513  17.7540  0.00  0.00     0.000 C
ATOM    104  C2  IDS B   6      58.358 -13.817  19.2600  0.00  0.00     0.000 C
ATOM    105  C3  IDS B   6      59.630 -13.482  20.0140  0.00  0.00     0.000 C
ATOM    106  C4  IDS B   6      60.248 -12.169  19.5680  0.00  0.00     0.000 C
ATOM    107  C5  IDS B   6      60.204 -12.069  18.0410  0.00  0.00     0.000 C
ATOM    108  O5  IDS B   6      58.874 -12.200  17.5360  0.00  0.00     0.000 O
ATOM    109   O  IDS B   6      60.542 -14.553  19.8380  0.00  0.00     0.000 O
ATOM    111  HD  IDS B   6      60.276 -14.936  19.1080  0.00  0.00     0.000 HD
BRANCH 104 111
ATOM    111   O  IDS B   6      57.307 -13.001  19.8880  0.00  0.00     0.000 O
ATOM    112   S  IDS B   6      56.026 -13.752  20.4850  0.00  0.00     0.000 S
ATOM    113   O  IDS B   6      55.460 -14.467  19.3520  0.00  0.00     0.000 OA
ATOM    114   O  IDS B   6      56.464 -14.608  21.5930  0.00  0.00     0.000 OA
ATOM    115   O  IDS B   6      55.252 -12.601  20.8990  0.00  0.00     0.000 OA
ENDBRANCH 104 111
BRANCH 107 116
ATOM    116   C  IDS B   6      60.793 -10.733  17.6060  0.00  0.00     0.000 C
ATOM    117   O  IDS B   6      60.025  -9.811  17.5010  0.00  0.00     0.000 OA
ATOM    118   O  IDS B   6      61.984 -10.611  17.3680  0.00  0.00     0.000 OA
ENDBRANCH 107 116
BRANCH 103 119
ATOM    119  O4  SGN B   7      59.024 -14.593  17.2240  0.00  0.00     0.000 O
BRANCH 119 123
ATOM    120  C1  SGN B   7      59.671 -15.980  13.3320  0.00  0.00     0.000 C
ATOM    121  C2  SGN B   7      60.843 -15.279  14.0440  0.00  0.00     0.000 C
ATOM    122  C3  SGN B   7      60.586 -15.201  15.5540  0.00  0.00     0.000 C
ATOM    123  C4  SGN B   7      59.235 -14.555  15.8120  0.00  0.00     0.000 C
ATOM    124  C5  SGN B   7      58.137 -15.321  15.0560  0.00  0.00     0.000 C
ATOM    125  O5  SGN B   7      58.419 -15.369  13.6390  0.00  0.00     0.000 O
ATOM    126   O  SGN B   7      61.646 -14.458  16.1690  0.00  0.00     0.000 O
ATOM    128  HD  SGN B   7      61.338 -14.853  15.4620  0.00  0.00     0.000 HD
BRANCH 121 130
ATOM    128   N  SGN B   7      61.700 -16.024  13.1180  0.00  0.00     0.000 N
ATOM    130  HD  SGN B   7      61.518 -15.461  12.4850  0.00  0.00     0.000 HD
ATOM    130   S  SGN B   7      63.135 -15.471  12.6400  0.00  0.00     0.000 S
ATOM    131   O  SGN B   7      63.814 -15.116  13.8390  0.00  0.00     0.000 OA
ATOM    132   O  SGN B   7      63.703 -16.416  11.7480  0.00  0.00     0.000 OA
ATOM    133   O  SGN B   7      62.688 -14.282  11.7250  0.00  0.00     0.000 OA
ENDBRANCH 121 130
BRANCH 124 134
ATOM    134   C  SGN B   7      56.779 -14.691  15.1550  0.00  0.00     0.000 C
ATOM    135   O  SGN B   7      55.835 -15.527  14.4660  0.00  0.00     0.000 O
ATOM    136   S  SGN B   7      54.322 -15.119  14.5840  0.00  0.00     0.000 S
ATOM    137   O  SGN B   7      53.589 -16.030  13.7370  0.00  0.00     0.000 OA
ATOM    138   O  SGN B   7      54.263 -13.750  14.1250  0.00  0.00     0.000 OA
ATOM    139   O  SGN B   7      54.061 -15.291  16.0040  0.00  0.00     0.000 OA
ENDBRANCH 124 134
BRANCH 120 140
ATOM    140  O4  IDS B   8      59.304 -17.263  13.4200  0.00  0.00     0.000 O
BRANCH 140 144
ATOM    141  C1  IDS B   8      59.110 -20.685  12.3170  0.00  0.00     0.000 C
ATOM    142  C2  IDS B   8      59.083 -19.513  11.2950  0.00  0.00     0.000 C
ATOM    143  C3  IDS B   8      58.081 -18.406  11.6730  0.00  0.00     0.000 C
ATOM    144  C4  IDS B   8      58.142 -18.061  13.1600  0.00  0.00     0.000 C
ATOM    145  C5  IDS B   8      58.187 -19.347  14.0000  0.00  0.00     0.000 C
ATOM    146  O5  IDS B   8      59.286 -20.178  13.6340  0.00  0.00     0.000 O
BRANCH 142 147
ATOM    147   O  IDS B   8      60.428 -18.884  11.2260  0.00  0.00     0.000 O
ATOM    148   S  IDS B   8      60.944 -18.159   9.8700  0.00  0.00     0.000 S
ATOM    149   O  IDS B   8      60.090 -18.595   8.7880  0.00  0.00     0.000 OA
ATOM    150   O  IDS B   8      60.840 -16.735  10.1290  0.00  0.00     0.000 OA
ATOM    151   O  IDS B   8      62.312 -18.607   9.6940  0.00  0.00     0.000 OA
ENDBRANCH 142 147
BRANCH 145 152
ATOM    152   C  IDS B   8      58.348 -19.071  15.4810  0.00  0.00     0.000 C
ATOM    153   O  IDS B   8      59.415 -19.322  16.0300  0.00  0.00     0.000 OA
ATOM    154   O  IDS B   8      57.423 -18.584  16.1070  0.00  0.00     0.000 OA
ENDBRANCH 145 152
ENDBRANCH 140 144
ENDBRANCH 120 140
ENDBRANCH 119 123
ENDBRANCH 103 119
ENDBRANCH 102 106
ENDBRANCH 82 102
ENDBRANCH 81 85
ENDBRANCH 65 81
ENDBRANCH 64 68
ENDBRANCH 41 64
ENDBRANCH 40 44
ENDBRANCH 24 40
ENDBRANCH 23 27
ENDBRANCH 1 23
TORSDOF 31
ENDMDL
MODEL 86
REMARK VINA RESULT:      -5.1     17.079     27.176
ROOT
ATOM      1  C1  SGN B   1      63.038  -8.375  16.6570  0.00  0.00     0.000 C
ATOM      2  C2  SGN B   1      64.419  -8.868  16.1940  0.00  0.00     0.000 C
ATOM      3  C3  SGN B   1      65.537  -8.094  16.9020  0.00  0.00     0.000 C
ATOM      4  C4  SGN B   1      65.362  -6.595  16.6790  0.00  0.00     0.000 C
ATOM      5  C5  SGN B   1      63.927  -6.204  17.0250  0.00  0.00     0.000 C
ATOM      6  O5  SGN B   1      63.010  -7.011  16.2610  0.00  0.00     0.000 O
ATOM      7   O  SGN B   1      66.812  -8.521  16.4380  0.00  0.00     0.000 O
ATOM      9  HD  SGN B   1      66.453  -8.219  15.7110  0.00  0.00     0.000 HD
ATOM      9   O  SGN B   1      66.272  -5.888  17.5010  0.00  0.00     0.000 O
ATOM     11  HD  SGN B   1      65.913  -5.586  16.7730  0.00  0.00     0.000 HD
ENDROOT
BRANCH 2 13
ATOM     11   N  SGN B   1      63.888  -9.880  15.2610  0.00  0.00     0.000 N
ATOM     13  HD  SGN B   1      63.761  -9.958  16.1140  0.00  0.00     0.000 HD
ATOM     13   S  SGN B   1      63.670 -11.415  15.6910  0.00  0.00     0.000 S
ATOM     14   O  SGN B   1      64.007 -11.591  17.0500  0.00  0.00     0.000 OA
ATOM     15   O  SGN B   1      62.391 -11.835  15.2270  0.00  0.00     0.000 OA
ATOM     16   O  SGN B   1      64.736 -12.062  14.7540  0.00  0.00     0.000 OA
ENDBRANCH 2 13
BRANCH 5 17
ATOM     17   C  SGN B   1      63.599  -4.759  16.7400  0.00  0.00     0.000 C
ATOM     18   O  SGN B   1      64.089  -3.903  17.7910  0.00  0.00     0.000 O
ATOM     19   S  SGN B   1      63.076  -2.781  18.3120  0.00  0.00     0.000 S
ATOM     20   O  SGN B   1      63.870  -1.928  19.1710  0.00  0.00     0.000 OA
ATOM     21   O  SGN B   1      62.624  -2.127  17.1060  0.00  0.00     0.000 OA
ATOM     22   O  SGN B   1      62.038  -3.505  19.0130  0.00  0.00     0.000 OA
ENDBRANCH 5 17
BRANCH 1 23
ATOM     23  O4  IDS B   2      62.098  -8.622  17.6120  0.00  0.00     0.000 O
BRANCH 23 27
ATOM     24  C1  IDS B   2      59.981  -8.782  21.1800  0.00  0.00     0.000 C
ATOM     25  C2  IDS B   2      61.219  -7.857  21.1790  0.00  0.00     0.000 C
ATOM     26  C3  IDS B   2      61.739  -7.642  19.7600  0.00  0.00     0.000 C
ATOM     27  C4  IDS B   2      62.035  -8.939  19.0190  0.00  0.00     0.000 C
ATOM     28  C5  IDS B   2      60.985 -10.007  19.3860  0.00  0.00     0.000 C
ATOM     29  O5  IDS B   2      59.807  -9.405  19.9000  0.00  0.00     0.000 O
ATOM     30   O  IDS B   2      62.946  -6.892  19.8130  0.00  0.00     0.000 O
ATOM     32  HD  IDS B   2      63.636  -7.370  20.0250  0.00  0.00     0.000 HD
BRANCH 25 32
ATOM     32   O  IDS B   2      60.922  -6.522  21.7550  0.00  0.00     0.000 O
ATOM     33   S  IDS B   2      61.682  -5.970  23.1120  0.00  0.00     0.000 S
ATOM     34   O  IDS B   2      60.987  -4.753  23.4980  0.00  0.00     0.000 OA
ATOM     35   O  IDS B   2      61.604  -6.982  24.1560  0.00  0.00     0.000 OA
ATOM     36   O  IDS B   2      63.043  -5.695  22.7120  0.00  0.00     0.000 OA
ENDBRANCH 25 32
BRANCH 28 37
ATOM     37   C  IDS B   2      60.576 -11.020  18.2960  0.00  0.00     0.000 C
ATOM     38   O  IDS B   2      61.213 -12.045  18.3480  0.00  0.00     0.000 OA
ATOM     39   O  IDS B   2      59.650 -10.894  17.4580  0.00  0.00     0.000 OA
ENDBRANCH 28 37
BRANCH 24 40
ATOM     40  O4  SUS B   3      59.415  -9.147  22.3490  0.00  0.00     0.000 O
BRANCH 40 44
ATOM     41  C1  SUS B   3      55.477 -10.279  23.2200  0.00  0.00     0.000 C
ATOM     42  C2  SUS B   3      56.301 -11.225  22.3240  0.00  0.00     0.000 C
ATOM     43  C3  SUS B   3      57.787 -10.926  22.5080  0.00  0.00     0.000 C
ATOM     44  C4  SUS B   3      58.029  -9.450  22.2350  0.00  0.00     0.000 C
ATOM     45  C5  SUS B   3      57.239  -8.630  23.2350  0.00  0.00     0.000 C
ATOM     46  O5  SUS B   3      55.838  -8.905  23.0360  0.00  0.00     0.000 O
BRANCH 42 49
ATOM     47   N  SUS B   3      55.986 -11.996  21.1090  0.00  0.00     0.000 N
ATOM     49  HD  SUS B   3      55.633 -11.555  20.4520  0.00  0.00     0.000 HD
ATOM     49   S  SUS B   3      55.063 -13.270  21.4070  0.00  0.00     0.000 S
ATOM     50   O  SUS B   3      53.867 -12.861  22.0310  0.00  0.00     0.000 OA
ATOM     51   O  SUS B   3      54.804 -13.654  19.9280  0.00  0.00     0.000 OA
ATOM     52   O  SUS B   3      55.829 -14.262  22.0520  0.00  0.00     0.000 OA
ENDBRANCH 42 49
BRANCH 43 53
ATOM     53   O  SUS B   3      58.539 -11.745  21.5390  0.00  0.00     0.000 O
ATOM     54   S  SUS B   3      59.622 -12.822  22.1480  0.00  0.00     0.000 S
ATOM     55   O  SUS B   3      58.864 -13.896  22.7740  0.00  0.00     0.000 OA
ATOM     56   O  SUS B   3      60.388 -13.245  20.9890  0.00  0.00     0.000 OA
ATOM     57   O  SUS B   3      60.422 -12.092  23.1350  0.00  0.00     0.000 OA
ENDBRANCH 43 53
BRANCH 45 58
ATOM     58   C  SUS B   3      57.507  -7.148  23.0910  0.00  0.00     0.000 C
ATOM     59   S  SUS B   3      56.950  -5.115  21.6280  0.00  0.00     0.000 S
ATOM     60   O  SUS B   3      56.656  -6.608  22.0660  0.00  0.00     0.000 O
ATOM     61   O  SUS B   3      58.109  -5.196  20.7590  0.00  0.00     0.000 OA
ATOM     62   O  SUS B   3      55.741  -4.803  20.9130  0.00  0.00     0.000 OA
ATOM     63   O  SUS B   3      57.144  -4.395  22.8360  0.00  0.00     0.000 OA
ENDBRANCH 45 58
BRANCH 41 64
ATOM     64  O4  IDS B   4      55.419 -10.673  24.5350  0.00  0.00     0.000 O
BRANCH 64 68
ATOM     65  C1  IDS B   4      53.835 -12.226  27.4250  0.00  0.00     0.000 C
ATOM     66  C2  IDS B   4      53.593 -12.786  26.0180  0.00  0.00     0.000 C
ATOM     67  C3  IDS B   4      53.271 -11.733  24.9700  0.00  0.00     0.000 C
ATOM     68  C4  IDS B   4      54.111 -10.479  25.1170  0.00  0.00     0.000 C
ATOM     69  C5  IDS B   4      54.154 -10.105  26.6050  0.00  0.00     0.000 C
ATOM     70  O5  IDS B   4      54.770 -11.166  27.3390  0.00  0.00     0.000 O
ATOM     71   O  IDS B   4      51.903 -11.410  25.1060  0.00  0.00     0.000 O
ATOM     73  HD  IDS B   4      52.612 -11.894  25.2170  0.00  0.00     0.000 HD
BRANCH 66 73
ATOM     73   O  IDS B   4      54.823 -13.440  25.5500  0.00  0.00     0.000 O
ATOM     74   S  IDS B   4      54.837 -15.055  25.4650  0.00  0.00     0.000 S
ATOM     75   O  IDS B   4      54.502 -15.538  26.7880  0.00  0.00     0.000 OA
ATOM     76   O  IDS B   4      56.198 -15.319  25.0720  0.00  0.00     0.000 OA
ATOM     77   O  IDS B   4      53.853 -15.397  24.4660  0.00  0.00     0.000 OA
ENDBRANCH 66 73
BRANCH 69 78
ATOM     78   C  IDS B   4      54.776  -8.745  26.8940  0.00  0.00     0.000 C
ATOM     79   O  IDS B   4      55.296  -8.555  27.9930  0.00  0.00     0.000 OA
ATOM     80   O  IDS B   4      54.832  -7.908  25.9750  0.00  0.00     0.000 OA
ENDBRANCH 69 78
BRANCH 65 81
ATOM     81  O4  SGN B   5      52.639 -11.943  28.0120  0.00  0.00     0.000 O
BRANCH 81 85
ATOM     82  C1  SGN B   5      50.558 -12.024  31.6590  0.00  0.00     0.000 C
ATOM     83  C2  SGN B   5      51.618 -10.926  31.4850  0.00  0.00     0.000 C
ATOM     84  C3  SGN B   5      51.930 -10.746  29.9930  0.00  0.00     0.000 C
ATOM     85  C4  SGN B   5      52.352 -12.082  29.4050  0.00  0.00     0.000 C
ATOM     86  C5  SGN B   5      51.216 -13.079  29.6170  0.00  0.00     0.000 C
ATOM     87  O5  SGN B   5      50.982 -13.219  31.0320  0.00  0.00     0.000 O
ATOM     88   O  SGN B   5      52.944  -9.779  29.8280  0.00  0.00     0.000 O
ATOM     90  HD  SGN B   5      52.098  -9.646  29.7020  0.00  0.00     0.000 HD
BRANCH 83 92
ATOM     90   N  SGN B   5      50.883 -10.329  32.6180  0.00  0.00     0.000 N
ATOM     92  HD  SGN B   5      50.367 -10.913  32.9950  0.00  0.00     0.000 HD
ATOM     92   S  SGN B   5      51.692  -9.388  33.6250  0.00  0.00     0.000 S
ATOM     93   O  SGN B   5      50.717  -8.984  34.5930  0.00  0.00     0.000 OA
ATOM     94   O  SGN B   5      52.829 -10.143  34.0290  0.00  0.00     0.000 OA
ATOM     95   O  SGN B   5      52.191  -8.245  32.7680  0.00  0.00     0.000 OA
ENDBRANCH 83 92
BRANCH 86 96
ATOM     96   C  SGN B   5      51.493 -14.463  29.0670  0.00  0.00     0.000 C
ATOM     97   O  SGN B   5      51.694 -15.396  30.1310  0.00  0.00     0.000 O
ATOM     98   S  SGN B   5      50.830 -16.745  30.0600  0.00  0.00     0.000 S
ATOM     99   O  SGN B   5      51.395 -17.540  31.1240  0.00  0.00     0.000 OA
ATOM    100   O  SGN B   5      49.469 -16.389  30.2460  0.00  0.00     0.000 OA
ATOM    101   O  SGN B   5      51.096 -17.269  28.7600  0.00  0.00     0.000 OA
ENDBRANCH 86 96
BRANCH 82 102
ATOM    102  O4  IDS B   6      49.334 -11.650  31.1900  0.00  0.00     0.000 O
BRANCH 102 106
ATOM    103  C1  IDS B   6      45.738 -11.449  31.7320  0.00  0.00     0.000 C
ATOM    104  C2  IDS B   6      46.712 -11.468  32.9200  0.00  0.00     0.000 C
ATOM    105  C3  IDS B   6      47.789 -12.534  32.8530  0.00  0.00     0.000 C
ATOM    106  C4  IDS B   6      48.366 -12.697  31.4580  0.00  0.00     0.000 C
ATOM    107  C5  IDS B   6      47.236 -12.671  30.4240  0.00  0.00     0.000 C
ATOM    108  O5  IDS B   6      46.459 -11.476  30.5140  0.00  0.00     0.000 O
ATOM    109   O  IDS B   6      47.231 -13.754  33.3130  0.00  0.00     0.000 O
ATOM    111  HD  IDS B   6      46.379 -13.652  33.1930  0.00  0.00     0.000 HD
BRANCH 104 111
ATOM    111   O  IDS B   6      47.436 -10.188  32.9670  0.00  0.00     0.000 O
ATOM    112   S  IDS B   6      47.132  -9.196  34.1860  0.00  0.00     0.000 S
ATOM    113   O  IDS B   6      45.704  -8.934  34.0980  0.00  0.00     0.000 OA
ATOM    114   O  IDS B   6      47.560  -9.845  35.4310  0.00  0.00     0.000 OA
ATOM    115   O  IDS B   6      47.960  -8.078  33.7890  0.00  0.00     0.000 OA
ENDBRANCH 104 111
BRANCH 107 116
ATOM    116   C  IDS B   6      47.828 -12.799  29.0260  0.00  0.00     0.000 C
ATOM    117   O  IDS B   6      47.989 -13.916  28.6060  0.00  0.00     0.000 OA
ATOM    118   O  IDS B   6      48.132 -11.813  28.3730  0.00  0.00     0.000 OA
ENDBRANCH 107 116
BRANCH 103 119
ATOM    119  O4  SGN B   7      44.837 -12.416  32.0400  0.00  0.00     0.000 O
BRANCH 119 123
ATOM    120  C1  SGN B   7      40.836 -13.142  31.0620  0.00  0.00     0.000 C
ATOM    121  C2  SGN B   7      41.915 -13.892  30.2570  0.00  0.00     0.000 C
ATOM    122  C3  SGN B   7      43.265 -13.834  30.9830  0.00  0.00     0.000 C
ATOM    123  C4  SGN B   7      43.620 -12.390  31.2920  0.00  0.00     0.000 C
ATOM    124  C5  SGN B   7      42.482 -11.730  32.0890  0.00  0.00     0.000 C
ATOM    125  O5  SGN B   7      41.232 -11.806  31.3680  0.00  0.00     0.000 O
ATOM    126   O  SGN B   7      44.262 -14.453  30.1620  0.00  0.00     0.000 O
ATOM    128  HD  SGN B   7      43.423 -14.292  30.3050  0.00  0.00     0.000 HD
BRANCH 121 130
ATOM    128   N  SGN B   7      41.143 -14.237  29.0600  0.00  0.00     0.000 N
ATOM    130  HD  SGN B   7      41.866 -14.498  28.6610  0.00  0.00     0.000 HD
ATOM    130   S  SGN B   7      40.847 -15.763  28.6390  0.00  0.00     0.000 S
ATOM    131   O  SGN B   7      40.331 -16.379  29.8130  0.00  0.00     0.000 OA
ATOM    132   O  SGN B   7      40.089 -15.756  27.4400  0.00  0.00     0.000 OA
ATOM    133   O  SGN B   7      42.280 -16.216  28.1980  0.00  0.00     0.000 OA
ENDBRANCH 121 130
BRANCH 124 134
ATOM    134   C  SGN B   7      42.689 -10.266  32.3440  0.00  0.00     0.000 C
ATOM    135   O  SGN B   7      42.387  -9.544  31.1370  0.00  0.00     0.000 O
ATOM    136   S  SGN B   7      42.395  -7.977  31.2390  0.00  0.00     0.000 S
ATOM    137   O  SGN B   7      42.172  -7.482  29.9020  0.00  0.00     0.000 OA
ATOM    138   O  SGN B   7      43.701  -7.637  31.7570  0.00  0.00     0.000 OA
ATOM    139   O  SGN B   7      41.297  -7.718  32.1570  0.00  0.00     0.000 OA
ENDBRANCH 124 134
BRANCH 120 140
ATOM    140  O4  IDS B   8      40.308 -13.480  32.2430  0.00  0.00     0.000 O
BRANCH 140 144
ATOM    141  C1  IDS B   8      37.256 -14.848  33.5750  0.00  0.00     0.000 C
ATOM    142  C2  IDS B   8      37.236 -13.895  32.3450  0.00  0.00     0.000 C
ATOM    143  C3  IDS B   8      38.070 -12.618  32.5580  0.00  0.00     0.000 C
ATOM    144  C4  IDS B   8      39.417 -12.917  33.2140  0.00  0.00     0.000 C
ATOM    145  C5  IDS B   8      39.230 -13.891  34.3870  0.00  0.00     0.000 C
ATOM    146  O5  IDS B   8      38.598 -15.099  33.9730  0.00  0.00     0.000 O
BRANCH 142 147
ATOM    147   O  IDS B   8      37.801 -14.598  31.1640  0.00  0.00     0.000 O
ATOM    148   S  IDS B   8      37.223 -14.325  29.6730  0.00  0.00     0.000 S
ATOM    149   O  IDS B   8      35.941 -13.673  29.8120  0.00  0.00     0.000 OA
ATOM    150   O  IDS B   8      38.212 -13.486  29.0230  0.00  0.00     0.000 OA
ATOM    151   O  IDS B   8      37.101 -15.636  29.0650  0.00  0.00     0.000 OA
ENDBRANCH 142 147
BRANCH 145 152
ATOM    152   C  IDS B   8      40.545 -14.303  35.0180  0.00  0.00     0.000 C
ATOM    153   O  IDS B   8      40.739 -15.481  35.2950  0.00  0.00     0.000 OA
ATOM    154   O  IDS B   8      41.403 -13.464  35.2240  0.00  0.00     0.000 OA
ENDBRANCH 145 152
ENDBRANCH 140 144
ENDBRANCH 120 140
ENDBRANCH 119 123
ENDBRANCH 103 119
ENDBRANCH 102 106
ENDBRANCH 82 102
ENDBRANCH 81 85
ENDBRANCH 65 81
ENDBRANCH 64 68
ENDBRANCH 41 64
ENDBRANCH 40 44
ENDBRANCH 24 40
ENDBRANCH 23 27
ENDBRANCH 1 23
TORSDOF 31
ENDMDL
MODEL 87
REMARK VINA RESULT:      -5.1     12.967     25.251
ROOT
ATOM      1  C1  SGN B   1      59.174  -2.791  21.9100  0.00  0.00     0.000 C
ATOM      2  C2  SGN B   1      60.463  -3.199  22.6430  0.00  0.00     0.000 C
ATOM      3  C3  SGN B   1      60.244  -4.484  23.4500  0.00  0.00     0.000 C
ATOM      4  C4  SGN B   1      59.072  -4.310  24.4090  0.00  0.00     0.000 C
ATOM      5  C5  SGN B   1      57.871  -3.769  23.6370  0.00  0.00     0.000 C
ATOM      6  O5  SGN B   1      58.243  -2.555  22.9570  0.00  0.00     0.000 O
ATOM      7   O  SGN B   1      61.425  -4.834  24.1620  0.00  0.00     0.000 O
ATOM      9  HD  SGN B   1      61.239  -4.058  24.5000  0.00  0.00     0.000 HD
ATOM      9   O  SGN B   1      58.754  -5.559  24.9950  0.00  0.00     0.000 O
ATOM     11  HD  SGN B   1      58.568  -4.784  25.3330  0.00  0.00     0.000 HD
ENDROOT
BRANCH 2 13
ATOM     11   N  SGN B   1      61.499  -2.213  22.2840  0.00  0.00     0.000 N
ATOM     13  HD  SGN B   1      60.973  -2.539  21.6780  0.00  0.00     0.000 HD
ATOM     13   S  SGN B   1      62.175  -2.168  20.8250  0.00  0.00     0.000 S
ATOM     14   O  SGN B   1      61.593  -3.146  19.9910  0.00  0.00     0.000 OA
ATOM     15   O  SGN B   1      62.218  -0.813  20.3900  0.00  0.00     0.000 OA
ATOM     16   O  SGN B   1      63.626  -2.565  21.2390  0.00  0.00     0.000 OA
ENDBRANCH 2 13
BRANCH 5 17
ATOM     17   C  SGN B   1      56.677  -3.451  24.5030  0.00  0.00     0.000 C
ATOM     18   O  SGN B   1      57.082  -2.775  25.7100  0.00  0.00     0.000 O
ATOM     19   S  SGN B   1      56.413  -3.298  27.0650  0.00  0.00     0.000 S
ATOM     20   O  SGN B   1      56.791  -2.327  28.0700  0.00  0.00     0.000 OA
ATOM     21   O  SGN B   1      54.998  -3.312  26.7780  0.00  0.00     0.000 OA
ATOM     22   O  SGN B   1      56.982  -4.610  27.2850  0.00  0.00     0.000 OA
ENDBRANCH 5 17
BRANCH 1 23
ATOM     23  O4  IDS B   2      58.531  -2.986  20.7230  0.00  0.00     0.000 O
BRANCH 23 27
ATOM     24  C1  IDS B   2      55.212  -0.498  20.5510  0.00  0.00     0.000 C
ATOM     25  C2  IDS B   2      54.916  -2.012  20.4690  0.00  0.00     0.000 C
ATOM     26  C3  IDS B   2      56.150  -2.831  20.8370  0.00  0.00     0.000 C
ATOM     27  C4  IDS B   2      57.382  -2.478  20.0140  0.00  0.00     0.000 C
ATOM     28  C5  IDS B   2      57.419  -0.959  19.7460  0.00  0.00     0.000 C
ATOM     29  O5  IDS B   2      56.619  -0.259  20.6870  0.00  0.00     0.000 O
ATOM     30   O  IDS B   2      55.876  -4.211  20.6290  0.00  0.00     0.000 O
ATOM     32  HD  IDS B   2      55.930  -4.449  19.7980  0.00  0.00     0.000 HD
BRANCH 25 32
ATOM     32   O  IDS B   2      53.819  -2.420  21.3810  0.00  0.00     0.000 O
ATOM     33   S  IDS B   2      52.393  -3.025  20.8130  0.00  0.00     0.000 S
ATOM     34   O  IDS B   2      51.498  -3.095  21.9570  0.00  0.00     0.000 OA
ATOM     35   O  IDS B   2      51.869  -2.141  19.7810  0.00  0.00     0.000 OA
ATOM     36   O  IDS B   2      52.702  -4.341  20.3050  0.00  0.00     0.000 OA
ENDBRANCH 25 32
BRANCH 28 37
ATOM     37   C  IDS B   2      58.799  -0.273  19.6760  0.00  0.00     0.000 C
ATOM     38   O  IDS B   2      59.414  -0.563  18.6760  0.00  0.00     0.000 OA
ATOM     39   O  IDS B   2      59.272   0.557  20.4890  0.00  0.00     0.000 OA
ENDBRANCH 28 37
BRANCH 24 40
ATOM     40  O4  SUS B   3      54.264   0.393  20.1960  0.00  0.00     0.000 O
BRANCH 40 44
ATOM     41  C1  SUS B   3      53.331   4.108  21.8920  0.00  0.00     0.000 C
ATOM     42  C2  SUS B   3      54.387   4.091  20.7680  0.00  0.00     0.000 C
ATOM     43  C3  SUS B   3      54.247   2.799  19.9670  0.00  0.00     0.000 C
ATOM     44  C4  SUS B   3      54.339   1.617  20.9190  0.00  0.00     0.000 C
ATOM     45  C5  SUS B   3      53.200   1.699  21.9140  0.00  0.00     0.000 C
ATOM     46  O5  SUS B   3      53.356   2.912  22.6780  0.00  0.00     0.000 O
BRANCH 42 49
ATOM     47   N  SUS B   3      55.637   4.866  20.8460  0.00  0.00     0.000 N
ATOM     49  HD  SUS B   3      55.999   4.939  21.6290  0.00  0.00     0.000 HD
ATOM     49   S  SUS B   3      55.492   6.336  20.2260  0.00  0.00     0.000 S
ATOM     50   O  SUS B   3      54.460   7.035  20.8840  0.00  0.00     0.000 OA
ATOM     51   O  SUS B   3      56.880   6.859  20.6770  0.00  0.00     0.000 OA
ATOM     52   O  SUS B   3      55.427   6.246  18.8210  0.00  0.00     0.000 OA
ENDBRANCH 42 49
BRANCH 43 53
ATOM     53   O  SUS B   3      55.355   2.746  18.9930  0.00  0.00     0.000 O
ATOM     54   S  SUS B   3      54.951   2.605  17.4060  0.00  0.00     0.000 S
ATOM     55   O  SUS B   3      54.375   3.875  16.9870  0.00  0.00     0.000 OA
ATOM     56   O  SUS B   3      56.207   2.287  16.7500  0.00  0.00     0.000 OA
ATOM     57   O  SUS B   3      53.966   1.523  17.3220  0.00  0.00     0.000 OA
ENDBRANCH 43 53
BRANCH 45 58
ATOM     58   C  SUS B   3      53.165   0.500  22.8360  0.00  0.00     0.000 C
ATOM     59   S  SUS B   3      53.102  -0.156  25.3160  0.00  0.00     0.000 S
ATOM     60   O  SUS B   3      52.951   0.944  24.1860  0.00  0.00     0.000 O
ATOM     61   O  SUS B   3      54.531  -0.324  25.4930  0.00  0.00     0.000 OA
ATOM     62   O  SUS B   3      52.479   0.514  26.4260  0.00  0.00     0.000 OA
ATOM     63   O  SUS B   3      52.411  -1.297  24.8300  0.00  0.00     0.000 OA
ENDBRANCH 45 58
BRANCH 41 64
ATOM     64  O4  IDS B   4      52.078   4.477  21.4680  0.00  0.00     0.000 O
BRANCH 64 68
ATOM     65  C1  IDS B   4      48.653   5.720  21.4970  0.00  0.00     0.000 C
ATOM     66  C2  IDS B   4      49.803   6.633  21.0530  0.00  0.00     0.000 C
ATOM     67  C3  IDS B   4      51.014   6.609  21.9700  0.00  0.00     0.000 C
ATOM     68  C4  IDS B   4      51.346   5.216  22.4710  0.00  0.00     0.000 C
ATOM     69  C5  IDS B   4      50.038   4.537  22.8970  0.00  0.00     0.000 C
ATOM     70  O5  IDS B   4      49.173   4.429  21.7640  0.00  0.00     0.000 O
ATOM     71   O  IDS B   4      50.729   7.455  23.0640  0.00  0.00     0.000 O
ATOM     73  HD  IDS B   4      50.622   7.138  22.2660  0.00  0.00     0.000 HD
BRANCH 66 73
ATOM     73   O  IDS B   4      50.292   6.176  19.7450  0.00  0.00     0.000 O
ATOM     74   S  IDS B   4      50.095   7.159  18.4760  0.00  0.00     0.000 S
ATOM     75   O  IDS B   4      48.679   7.442  18.3920  0.00  0.00     0.000 OA
ATOM     76   O  IDS B   4      50.597   6.349  17.3940  0.00  0.00     0.000 OA
ATOM     77   O  IDS B   4      50.895   8.325  18.7640  0.00  0.00     0.000 OA
ENDBRANCH 66 73
BRANCH 69 78
ATOM     78   C  IDS B   4      50.224   3.215  23.6280  0.00  0.00     0.000 C
ATOM     79   O  IDS B   4      50.632   3.233  24.7880  0.00  0.00     0.000 OA
ATOM     80   O  IDS B   4      49.857   2.166  23.0660  0.00  0.00     0.000 OA
ENDBRANCH 69 78
BRANCH 65 81
ATOM     81  O4  SGN B   5      47.960   6.321  22.5040  0.00  0.00     0.000 O
BRANCH 81 85
ATOM     82  C1  SGN B   5      44.115   6.645  24.1620  0.00  0.00     0.000 C
ATOM     83  C2  SGN B   5      45.043   5.575  24.7570  0.00  0.00     0.000 C
ATOM     84  C3  SGN B   5      46.498   5.894  24.3840  0.00  0.00     0.000 C
ATOM     85  C4  SGN B   5      46.614   6.014  22.8750  0.00  0.00     0.000 C
ATOM     86  C5  SGN B   5      45.668   7.117  22.4080  0.00  0.00     0.000 C
ATOM     87  O5  SGN B   5      44.321   6.754  22.7670  0.00  0.00     0.000 O
ATOM     88   O  SGN B   5      47.351   4.885  24.8780  0.00  0.00     0.000 O
ATOM     90  HD  SGN B   5      47.236   5.664  25.2370  0.00  0.00     0.000 HD
BRANCH 83 92
ATOM     90   N  SGN B   5      43.798   5.355  25.5170  0.00  0.00     0.000 N
ATOM     92  HD  SGN B   5      43.120   5.271  24.9850  0.00  0.00     0.000 HD
ATOM     92   S  SGN B   5      43.834   4.322  26.7360  0.00  0.00     0.000 S
ATOM     93   O  SGN B   5      42.498   4.332  27.2490  0.00  0.00     0.000 OA
ATOM     94   O  SGN B   5      44.387   3.122  26.2080  0.00  0.00     0.000 OA
ATOM     95   O  SGN B   5      44.848   4.900  27.7000  0.00  0.00     0.000 OA
ENDBRANCH 83 92
BRANCH 86 96
ATOM     96   C  SGN B   5      45.687   7.358  20.9120  0.00  0.00     0.000 C
ATOM     97   O  SGN B   5      44.568   6.724  20.2870  0.00  0.00     0.000 O
ATOM     98   S  SGN B   5      43.690   7.644  19.3110  0.00  0.00     0.000 S
ATOM     99   O  SGN B   5      42.795   6.693  18.6970  0.00  0.00     0.000 OA
ATOM    100   O  SGN B   5      43.051   8.627  20.1110  0.00  0.00     0.000 OA
ATOM    101   O  SGN B   5      44.637   8.199  18.3990  0.00  0.00     0.000 OA
ENDBRANCH 86 96
BRANCH 82 102
ATOM    102  O4  IDS B   6      44.265   7.860  24.7610  0.00  0.00     0.000 O
BRANCH 102 106
ATOM    103  C1  IDS B   6      42.632  10.685  26.3760  0.00  0.00     0.000 C
ATOM    104  C2  IDS B   6      41.967   9.300  26.3550  0.00  0.00     0.000 C
ATOM    105  C3  IDS B   6      41.961   8.611  25.0040  0.00  0.00     0.000 C
ATOM    106  C4  IDS B   6      43.269   8.784  24.2520  0.00  0.00     0.000 C
ATOM    107  C5  IDS B   6      43.752  10.231  24.3800  0.00  0.00     0.000 C
ATOM    108  O5  IDS B   6      43.897  10.625  25.7460  0.00  0.00     0.000 O
ATOM    109   O  IDS B   6      40.875   9.125  24.2500  0.00  0.00     0.000 O
ATOM    111  HD  IDS B   6      40.719   9.897  24.6100  0.00  0.00     0.000 HD
BRANCH 104 111
ATOM    111   O  IDS B   6      42.709   8.398  27.2480  0.00  0.00     0.000 O
ATOM    112   S  IDS B   6      41.919   7.729  28.4690  0.00  0.00     0.000 S
ATOM    113   O  IDS B   6      41.415   8.856  29.2400  0.00  0.00     0.000 OA
ATOM    114   O  IDS B   6      40.881   6.848  27.9240  0.00  0.00     0.000 OA
ATOM    115   O  IDS B   6      43.015   7.028  29.1020  0.00  0.00     0.000 OA
ENDBRANCH 104 111
BRANCH 107 116
ATOM    116   C  IDS B   6      45.082  10.385  23.6540  0.00  0.00     0.000 C
ATOM    117   O  IDS B   6      46.076  10.373  24.3340  0.00  0.00     0.000 OA
ATOM    118   O  IDS B   6      45.132  10.524  22.4420  0.00  0.00     0.000 OA
ENDBRANCH 107 116
BRANCH 103 119
ATOM    119  O4  SGN B   7      41.657  11.517  25.9270  0.00  0.00     0.000 O
BRANCH 119 123
ATOM    120  C1  SGN B   7      40.734  15.154  27.7740  0.00  0.00     0.000 C
ATOM    121  C2  SGN B   7      40.573  15.069  26.2440  0.00  0.00     0.000 C
ATOM    122  C3  SGN B   7      40.554  13.606  25.7850  0.00  0.00     0.000 C
ATOM    123  C4  SGN B   7      41.783  12.885  26.3150  0.00  0.00     0.000 C
ATOM    124  C5  SGN B   7      41.856  13.033  27.8440  0.00  0.00     0.000 C
ATOM    125  O5  SGN B   7      41.873  14.426  28.2300  0.00  0.00     0.000 O
ATOM    126   O  SGN B   7      40.503  13.567  24.3540  0.00  0.00     0.000 O
ATOM    128  HD  SGN B   7      40.449  14.036  25.0800  0.00  0.00     0.000 HD
BRANCH 121 130
ATOM    128   N  SGN B   7      40.661  16.456  25.7800  0.00  0.00     0.000 N
ATOM    130  HD  SGN B   7      40.573  16.195  24.9590  0.00  0.00     0.000 HD
ATOM    130   S  SGN B   7      39.380  17.263  25.2330  0.00  0.00     0.000 S
ATOM    131   O  SGN B   7      38.377  17.087  26.2270  0.00  0.00     0.000 OA
ATOM    132   O  SGN B   7      39.798  18.566  24.8590  0.00  0.00     0.000 OA
ATOM    133   O  SGN B   7      39.139  16.520  23.8750  0.00  0.00     0.000 OA
ENDBRANCH 121 130
BRANCH 124 134
ATOM    134   C  SGN B   7      43.099  12.452  28.4510  0.00  0.00     0.000 C
ATOM    135   O  SGN B   7      42.864  12.232  29.8520  0.00  0.00     0.000 O
ATOM    136   S  SGN B   7      43.996  11.483  30.6430  0.00  0.00     0.000 S
ATOM    137   O  SGN B   7      43.587  11.473  32.0270  0.00  0.00     0.000 OA
ATOM    138   O  SGN B   7      45.194  12.259  30.4140  0.00  0.00     0.000 OA
ATOM    139   O  SGN B   7      44.000  10.171  30.0170  0.00  0.00     0.000 OA
ENDBRANCH 124 134
BRANCH 120 140
ATOM    140  O4  IDS B   8      39.859  14.784  28.7150  0.00  0.00     0.000 O
BRANCH 140 144
ATOM    141  C1  IDS B   8      37.241  12.873  30.2830  0.00  0.00     0.000 C
ATOM    142  C2  IDS B   8      37.211  13.168  28.7560  0.00  0.00     0.000 C
ATOM    143  C3  IDS B   8      37.461  14.651  28.4230  0.00  0.00     0.000 C
ATOM    144  C4  IDS B   8      38.607  15.237  29.2460  0.00  0.00     0.000 C
ATOM    145  C5  IDS B   8      38.474  14.814  30.7170  0.00  0.00     0.000 C
ATOM    146  O5  IDS B   8      38.433  13.395  30.8550  0.00  0.00     0.000 O
BRANCH 142 147
ATOM    147   O  IDS B   8      38.272  12.380  28.0770  0.00  0.00     0.000 O
ATOM    148   S  IDS B   8      37.911  11.039  27.2390  0.00  0.00     0.000 S
ATOM    149   O  IDS B   8      36.581  10.626  27.6250  0.00  0.00     0.000 OA
ATOM    150   O  IDS B   8      37.997  11.421  25.8420  0.00  0.00     0.000 OA
ATOM    151   O  IDS B   8      38.914  10.065  27.6250  0.00  0.00     0.000 OA
ENDBRANCH 142 147
BRANCH 145 152
ATOM    152   C  IDS B   8      39.637  15.283  31.5670  0.00  0.00     0.000 C
ATOM    153   O  IDS B   8      40.422  14.460  32.0240  0.00  0.00     0.000 OA
ATOM    154   O  IDS B   8      39.792  16.474  31.7690  0.00  0.00     0.000 OA
ENDBRANCH 145 152
ENDBRANCH 140 144
ENDBRANCH 120 140
ENDBRANCH 119 123
ENDBRANCH 103 119
ENDBRANCH 102 106
ENDBRANCH 82 102
ENDBRANCH 81 85
ENDBRANCH 65 81
ENDBRANCH 64 68
ENDBRANCH 41 64
ENDBRANCH 40 44
ENDBRANCH 24 40
ENDBRANCH 23 27
ENDBRANCH 1 23
TORSDOF 31
ENDMDL
MODEL 88
REMARK VINA RESULT:      -5.0     16.050     20.511
ROOT
ATOM      1  C1  SGN B   1      59.871  10.252  18.4790  0.00  0.00     0.000 C
ATOM      2  C2  SGN B   1      58.973  11.497  18.5630  0.00  0.00     0.000 C
ATOM      3  C3  SGN B   1      57.828  11.410  17.5480  0.00  0.00     0.000 C
ATOM      4  C4  SGN B   1      58.385  11.202  16.1430  0.00  0.00     0.000 C
ATOM      5  C5  SGN B   1      59.375  10.040  16.1660  0.00  0.00     0.000 C
ATOM      6  O5  SGN B   1      60.391  10.292  17.1560  0.00  0.00     0.000 O
ATOM      7   O  SGN B   1      57.025  12.584  17.5980  0.00  0.00     0.000 O
ATOM      9  HD  SGN B   1      57.797  12.907  17.3740  0.00  0.00     0.000 HD
ATOM      9   O  SGN B   1      57.321  10.921  15.2520  0.00  0.00     0.000 O
ATOM     11  HD  SGN B   1      58.092  11.244  15.0280  0.00  0.00     0.000 HD
ENDROOT
BRANCH 2 13
ATOM     11   N  SGN B   1      59.721  12.176  19.6380  0.00  0.00     0.000 N
ATOM     13  HD  SGN B   1      59.344  11.409  19.7810  0.00  0.00     0.000 HD
ATOM     13   S  SGN B   1      59.368  11.966  21.1940  0.00  0.00     0.000 S
ATOM     14   O  SGN B   1      58.319  11.034  21.3330  0.00  0.00     0.000 OA
ATOM     15   O  SGN B   1      60.584  11.763  21.9080  0.00  0.00     0.000 OA
ATOM     16   O  SGN B   1      58.886  13.416  21.5110  0.00  0.00     0.000 OA
ENDBRANCH 2 13
BRANCH 5 17
ATOM     17   C  SGN B   1      60.078   9.807  14.8510  0.00  0.00     0.000 C
ATOM     18   O  SGN B   1      61.458   9.447  15.0620  0.00  0.00     0.000 O
ATOM     19   S  SGN B   1      62.526  10.185  14.1280  0.00  0.00     0.000 S
ATOM     20   O  SGN B   1      63.774   9.492  14.3660  0.00  0.00     0.000 OA
ATOM     21   O  SGN B   1      62.009  10.005  12.7910  0.00  0.00     0.000 OA
ATOM     22   O  SGN B   1      62.532  11.560  14.5770  0.00  0.00     0.000 OA
ENDBRANCH 5 17
BRANCH 1 23
ATOM     23  O4  IDS B   2      59.990   9.001  19.0080  0.00  0.00     0.000 O
BRANCH 23 27
ATOM     24  C1  IDS B   2      58.731   5.403  20.6510  0.00  0.00     0.000 C
ATOM     25  C2  IDS B   2      57.667   6.521  20.5990  0.00  0.00     0.000 C
ATOM     26  C3  IDS B   2      58.134   7.679  19.7210  0.00  0.00     0.000 C
ATOM     27  C4  IDS B   2      59.488   8.243  20.1290  0.00  0.00     0.000 C
ATOM     28  C5  IDS B   2      60.416   7.102  20.5940  0.00  0.00     0.000 C
ATOM     29  O5  IDS B   2      59.972   5.851  20.0910  0.00  0.00     0.000 O
ATOM     30   O  IDS B   2      57.186   8.737  19.7980  0.00  0.00     0.000 O
ATOM     32  HD  IDS B   2      57.264   9.213  20.5180  0.00  0.00     0.000 HD
BRANCH 25 32
ATOM     32   O  IDS B   2      56.373   6.040  20.0560  0.00  0.00     0.000 O
ATOM     33   S  IDS B   2      54.975   6.128  20.9280  0.00  0.00     0.000 S
ATOM     34   O  IDS B   2      53.983   5.371  20.1800  0.00  0.00     0.000 OA
ATOM     35   O  IDS B   2      55.192   5.559  22.2500  0.00  0.00     0.000 OA
ATOM     36   O  IDS B   2      54.636   7.531  20.9800  0.00  0.00     0.000 OA
ENDBRANCH 25 32
BRANCH 28 37
ATOM     37   C  IDS B   2      61.924   7.236  20.3020  0.00  0.00     0.000 C
ATOM     38   O  IDS B   2      62.360   6.309  19.6590  0.00  0.00     0.000 OA
ATOM     39   O  IDS B   2      62.670   8.200  20.6040  0.00  0.00     0.000 OA
ENDBRANCH 28 37
BRANCH 24 40
ATOM     40  O4  SUS B   3      58.532   4.321  21.4330  0.00  0.00     0.000 O
BRANCH 40 44
ATOM     41  C1  SUS B   3      59.679   0.329  20.8850  0.00  0.00     0.000 C
ATOM     42  C2  SUS B   3      60.801   1.358  21.1260  0.00  0.00     0.000 C
ATOM     43  C3  SUS B   3      60.207   2.610  21.7670  0.00  0.00     0.000 C
ATOM     44  C4  SUS B   3      59.076   3.123  20.8890  0.00  0.00     0.000 C
ATOM     45  C5  SUS B   3      58.000   2.061  20.8050  0.00  0.00     0.000 C
ATOM     46  O5  SUS B   3      58.568   0.893  20.1780  0.00  0.00     0.000 O
BRANCH 42 49
ATOM     47   N  SUS B   3      61.689   0.379  20.4760  0.00  0.00     0.000 N
ATOM     49  HD  SUS B   3      61.438  -0.449  20.5040  0.00  0.00     0.000 HD
ATOM     49   S  SUS B   3      63.197   0.461  21.0120  0.00  0.00     0.000 S
ATOM     50   O  SUS B   3      63.220   0.268  22.4080  0.00  0.00     0.000 OA
ATOM     51   O  SUS B   3      63.717  -0.801  20.2770  0.00  0.00     0.000 OA
ATOM     52   O  SUS B   3      63.811   1.623  20.5030  0.00  0.00     0.000 OA
ENDBRANCH 42 49
BRANCH 43 53
ATOM     53   O  SUS B   3      61.273   3.626  21.8560  0.00  0.00     0.000 O
ATOM     54   S  SUS B   3      61.693   4.143  23.3590  0.00  0.00     0.000 S
ATOM     55   O  SUS B   3      62.400   3.051  24.0140  0.00  0.00     0.000 OA
ATOM     56   O  SUS B   3      62.520   5.310  23.1120  0.00  0.00     0.000 OA
ATOM     57   O  SUS B   3      60.442   4.458  24.0540  0.00  0.00     0.000 OA
ENDBRANCH 43 53
BRANCH 45 58
ATOM     58   C  SUS B   3      56.793   2.537  20.0270  0.00  0.00     0.000 C
ATOM     59   S  SUS B   3      55.363   2.002  17.9640  0.00  0.00     0.000 S
ATOM     60   O  SUS B   3      56.466   1.570  19.0150  0.00  0.00     0.000 O
ATOM     61   O  SUS B   3      56.047   2.885  17.0380  0.00  0.00     0.000 OA
ATOM     62   O  SUS B   3      55.038   0.729  17.3790  0.00  0.00     0.000 OA
ATOM     63   O  SUS B   3      54.327   2.603  18.7260  0.00  0.00     0.000 OA
ENDBRANCH 45 58
BRANCH 41 64
ATOM     64  O4  IDS B   4      59.329  -0.381  22.0070  0.00  0.00     0.000 O
BRANCH 64 68
ATOM     65  C1  IDS B   4      58.911  -3.262  24.1980  0.00  0.00     0.000 C
ATOM     66  C2  IDS B   4      60.258  -3.003  23.5120  0.00  0.00     0.000 C
ATOM     67  C3  IDS B   4      60.155  -2.672  22.0320  0.00  0.00     0.000 C
ATOM     68  C4  IDS B   4      58.989  -1.754  21.7130  0.00  0.00     0.000 C
ATOM     69  C5  IDS B   4      57.761  -2.258  22.4830  0.00  0.00     0.000 C
ATOM     70  O5  IDS B   4      58.028  -2.199  23.8860  0.00  0.00     0.000 O
ATOM     71   O  IDS B   4      60.005  -3.893  21.3380  0.00  0.00     0.000 O
ATOM     73  HD  IDS B   4      60.210  -3.391  22.0140  0.00  0.00     0.000 HD
BRANCH 66 73
ATOM     73   O  IDS B   4      60.888  -1.829  24.1320  0.00  0.00     0.000 O
ATOM     74   S  IDS B   4      62.188  -2.071  25.0640  0.00  0.00     0.000 S
ATOM     75   O  IDS B   4      61.788  -3.008  26.0920  0.00  0.00     0.000 OA
ATOM     76   O  IDS B   4      62.453  -0.741  25.5530  0.00  0.00     0.000 OA
ATOM     77   O  IDS B   4      63.204  -2.591  24.1800  0.00  0.00     0.000 OA
ENDBRANCH 66 73
BRANCH 69 78
ATOM     78   C  IDS B   4      56.455  -1.576  22.1000  0.00  0.00     0.000 C
ATOM     79   O  IDS B   4      55.574  -1.465  22.9510  0.00  0.00     0.000 OA
ATOM     80   O  IDS B   4      56.361  -1.059  20.9710  0.00  0.00     0.000 OA
ENDBRANCH 69 78
BRANCH 65 81
ATOM     81  O4  SGN B   5      58.485  -4.521  23.9010  0.00  0.00     0.000 O
BRANCH 81 85
ATOM     82  C1  SGN B   5      56.121  -7.681  25.3350  0.00  0.00     0.000 C
ATOM     83  C2  SGN B   5      55.523  -6.269  25.4200  0.00  0.00     0.000 C
ATOM     84  C3  SGN B   5      56.277  -5.335  24.4630  0.00  0.00     0.000 C
ATOM     85  C4  SGN B   5      57.760  -5.376  24.7870  0.00  0.00     0.000 C
ATOM     86  C5  SGN B   5      58.241  -6.818  24.6470  0.00  0.00     0.000 C
ATOM     87  O5  SGN B   5      57.514  -7.640  25.5800  0.00  0.00     0.000 O
ATOM     88   O  SGN B   5      55.771  -4.023  24.5770  0.00  0.00     0.000 O
ATOM     90  HD  SGN B   5      55.584  -4.580  23.9410  0.00  0.00     0.000 HD
BRANCH 83 92
ATOM     90   N  SGN B   5      54.487  -7.073  26.0970  0.00  0.00     0.000 N
ATOM     92  HD  SGN B   5      54.827  -7.537  26.7440  0.00  0.00     0.000 HD
ATOM     92   S  SGN B   5      53.090  -6.372  26.4280  0.00  0.00     0.000 S
ATOM     93   O  SGN B   5      52.325  -7.395  27.0750  0.00  0.00     0.000 OA
ATOM     94   O  SGN B   5      53.414  -5.175  27.1260  0.00  0.00     0.000 OA
ATOM     95   O  SGN B   5      52.531  -5.972  25.0800  0.00  0.00     0.000 OA
ENDBRANCH 83 92
BRANCH 86 96
ATOM     96   C  SGN B   5      59.717  -7.010  24.9310  0.00  0.00     0.000 C
ATOM     97   O  SGN B   5      60.300  -7.899  23.9750  0.00  0.00     0.000 O
ATOM     98   S  SGN B   5      61.635  -7.382  23.2530  0.00  0.00     0.000 S
ATOM     99   O  SGN B   5      62.077  -8.550  22.5290  0.00  0.00     0.000 OA
ATOM    100   O  SGN B   5      61.278  -6.279  22.4360  0.00  0.00     0.000 OA
ATOM    101   O  SGN B   5      62.502  -7.021  24.3270  0.00  0.00     0.000 OA
ENDBRANCH 86 96
BRANCH 82 102
ATOM    102  O4  IDS B   6      55.866  -8.288  24.1420  0.00  0.00     0.000 O
BRANCH 102 106
ATOM    103  C1  IDS B   6      54.834 -11.332  22.4300  0.00  0.00     0.000 C
ATOM    104  C2  IDS B   6      54.436 -11.079  23.8930  0.00  0.00     0.000 C
ATOM    105  C3  IDS B   6      55.564 -10.615  24.7950  0.00  0.00     0.000 C
ATOM    106  C4  IDS B   6      56.475  -9.604  24.1210  0.00  0.00     0.000 C
ATOM    107  C5  IDS B   6      56.766 -10.047  22.6840  0.00  0.00     0.000 C
ATOM    108  O5  IDS B   6      55.566 -10.229  21.9300  0.00  0.00     0.000 O
ATOM    109   O  IDS B   6      56.296 -11.756  25.2090  0.00  0.00     0.000 O
ATOM    111  HD  IDS B   6      56.125 -12.346  24.5990  0.00  0.00     0.000 HD
BRANCH 104 111
ATOM    111   O  IDS B   6      53.434 -10.003  23.9380  0.00  0.00     0.000 O
ATOM    112   S  IDS B   6      52.051 -10.294  24.6900  0.00  0.00     0.000 S
ATOM    113   O  IDS B   6      51.489 -11.440  23.9930  0.00  0.00     0.000 OA
ATOM    114   O  IDS B   6      52.334 -10.520  26.1120  0.00  0.00     0.000 OA
ATOM    115   O  IDS B   6      51.370  -9.047  24.4160  0.00  0.00     0.000 OA
ENDBRANCH 104 111
BRANCH 107 116
ATOM    116   C  IDS B   6      57.650  -9.009  22.0060  0.00  0.00     0.000 C
ATOM    117   O  IDS B   6      58.744  -9.375  21.6560  0.00  0.00     0.000 OA
ATOM    118   O  IDS B   6      57.268  -7.862  21.8360  0.00  0.00     0.000 OA
ENDBRANCH 107 116
BRANCH 103 119
ATOM    119  O4  SGN B   7      55.366 -12.581  22.4530  0.00  0.00     0.000 O
BRANCH 119 123
ATOM    120  C1  SGN B   7      56.306 -15.535  19.6450  0.00  0.00     0.000 C
ATOM    121  C2  SGN B   7      57.150 -14.246  19.6350  0.00  0.00     0.000 C
ATOM    122  C3  SGN B   7      56.957 -13.467  20.9420  0.00  0.00     0.000 C
ATOM    123  C4  SGN B   7      55.476 -13.230  21.1860  0.00  0.00     0.000 C
ATOM    124  C5  SGN B   7      54.723 -14.571  21.1710  0.00  0.00     0.000 C
ATOM    125  O5  SGN B   7      54.932 -15.269  19.9230  0.00  0.00     0.000 O
ATOM    126   O  SGN B   7      57.676 -12.231  20.8580  0.00  0.00     0.000 O
ATOM    128  HD  SGN B   7      57.510 -13.010  20.5180  0.00  0.00     0.000 HD
BRANCH 121 130
ATOM    128   N  SGN B   7      57.688 -14.506  18.2970  0.00  0.00     0.000 N
ATOM    130  HD  SGN B   7      57.855 -13.663  18.1930  0.00  0.00     0.000 HD
ATOM    130   S  SGN B   7      59.265 -14.440  17.9780  0.00  0.00     0.000 S
ATOM    131   O  SGN B   7      59.881 -15.246  18.9760  0.00  0.00     0.000 OA
ATOM    132   O  SGN B   7      59.454 -14.731  16.6030  0.00  0.00     0.000 OA
ATOM    133   O  SGN B   7      59.510 -12.897  18.0930  0.00  0.00     0.000 OA
ENDBRANCH 121 130
BRANCH 124 134
ATOM    134   C  SGN B   7      53.234 -14.432  21.2880  0.00  0.00     0.000 C
ATOM    135   O  SGN B   7      52.769 -13.576  20.2310  0.00  0.00     0.000 O
ATOM    136   S  SGN B   7      51.212 -13.425  20.0860  0.00  0.00     0.000 S
ATOM    137   O  SGN B   7      50.994 -12.451  19.0440  0.00  0.00     0.000 OA
ATOM    138   O  SGN B   7      50.753 -12.979  21.3810  0.00  0.00     0.000 OA
ATOM    139   O  SGN B   7      50.799 -14.774  19.7320  0.00  0.00     0.000 OA
ENDBRANCH 124 134
BRANCH 120 140
ATOM    140  O4  IDS B   8      56.468 -16.619  20.4120  0.00  0.00     0.000 O
BRANCH 140 144
ATOM    141  C1  IDS B   8      57.869 -18.695  22.9980  0.00  0.00     0.000 C
ATOM    142  C2  IDS B   8      58.770 -17.741  22.1620  0.00  0.00     0.000 C
ATOM    143  C3  IDS B   8      58.531 -17.859  20.6460  0.00  0.00     0.000 C
ATOM    144  C4  IDS B   8      57.043 -17.926  20.3040  0.00  0.00     0.000 C
ATOM    145  C5  IDS B   8      56.325 -18.899  21.2520  0.00  0.00     0.000 C
ATOM    146  O5  IDS B   8      56.508 -18.535  22.6180  0.00  0.00     0.000 O
BRANCH 142 147
ATOM    147   O  IDS B   8      58.487 -16.332  22.5440  0.00  0.00     0.000 O
ATOM    148   S  IDS B   8      59.618 -15.416  23.2600  0.00  0.00     0.000 S
ATOM    149   O  IDS B   8      60.649 -16.301  23.7550  0.00  0.00     0.000 OA
ATOM    150   O  IDS B   8      60.099 -14.517  22.2270  0.00  0.00     0.000 OA
ATOM    151   O  IDS B   8      58.929 -14.731  24.3360  0.00  0.00     0.000 OA
ENDBRANCH 142 147
BRANCH 145 152
ATOM    152   C  IDS B   8      54.827 -18.934  21.0260  0.00  0.00     0.000 C
ATOM    153   O  IDS B   8      54.379 -19.488  20.0280  0.00  0.00     0.000 OA
ATOM    154   O  IDS B   8      54.083 -18.431  21.8480  0.00  0.00     0.000 OA
ENDBRANCH 145 152
ENDBRANCH 140 144
ENDBRANCH 120 140
ENDBRANCH 119 123
ENDBRANCH 103 119
ENDBRANCH 102 106
ENDBRANCH 82 102
ENDBRANCH 81 85
ENDBRANCH 65 81
ENDBRANCH 64 68
ENDBRANCH 41 64
ENDBRANCH 40 44
ENDBRANCH 24 40
ENDBRANCH 23 27
ENDBRANCH 1 23
TORSDOF 31
ENDMDL
MODEL 89
REMARK VINA RESULT:      -4.5      8.901     19.102
ROOT
ATOM      1  C1  SGN B   1      58.184   0.850  23.5950  0.00  0.00     0.000 C
ATOM      2  C2  SGN B   1      58.053  -0.068  24.8220  0.00  0.00     0.000 C
ATOM      3  C3  SGN B   1      56.580  -0.369  25.1190  0.00  0.00     0.000 C
ATOM      4  C4  SGN B   1      55.801   0.931  25.2920  0.00  0.00     0.000 C
ATOM      5  C5  SGN B   1      56.091   1.848  24.1070  0.00  0.00     0.000 C
ATOM      6  O5  SGN B   1      57.514   2.041  23.9830  0.00  0.00     0.000 O
ATOM      7   O  SGN B   1      56.460  -1.182  26.2800  0.00  0.00     0.000 O
ATOM      9  HD  SGN B   1      56.843  -0.474  26.5990  0.00  0.00     0.000 HD
ATOM      9   O  SGN B   1      54.416   0.644  25.3610  0.00  0.00     0.000 O
ATOM     11  HD  SGN B   1      54.800   1.352  25.6800  0.00  0.00     0.000 HD
ENDROOT
BRANCH 2 13
ATOM     11   N  SGN B   1      59.457  -0.291  25.2130  0.00  0.00     0.000 N
ATOM     13  HD  SGN B   1      59.200  -0.432  24.3980  0.00  0.00     0.000 HD
ATOM     13   S  SGN B   1      60.396  -1.366  24.4700  0.00  0.00     0.000 S
ATOM     14   O  SGN B   1      59.691  -1.976  23.4110  0.00  0.00     0.000 OA
ATOM     15   O  SGN B   1      61.659  -0.760  24.2140  0.00  0.00     0.000 OA
ATOM     16   O  SGN B   1      60.592  -2.353  25.6630  0.00  0.00     0.000 OA
ENDBRANCH 2 13
BRANCH 5 17
ATOM     17   C  SGN B   1      55.461   3.215  24.2190  0.00  0.00     0.000 C
ATOM     18   O  SGN B   1      54.027   3.112  24.3310  0.00  0.00     0.000 O
ATOM     19   S  SGN B   1      53.179   4.117  23.4210  0.00  0.00     0.000 S
ATOM     20   O  SGN B   1      51.814   3.981  23.8840  0.00  0.00     0.000 OA
ATOM     21   O  SGN B   1      53.756   5.413  23.6940  0.00  0.00     0.000 OA
ATOM     22   O  SGN B   1      53.379   3.658  22.0640  0.00  0.00     0.000 OA
ENDBRANCH 5 17
BRANCH 1 23
ATOM     23  O4  IDS B   2      58.309   0.784  22.2390  0.00  0.00     0.000 O
BRANCH 23 27
ATOM     24  C1  IDS B   2      54.661   0.303  20.3160  0.00  0.00     0.000 C
ATOM     25  C2  IDS B   2      55.428  -1.001  20.6280  0.00  0.00     0.000 C
ATOM     26  C3  IDS B   2      56.588  -0.737  21.5840  0.00  0.00     0.000 C
ATOM     27  C4  IDS B   2      57.542   0.345  21.0970  0.00  0.00     0.000 C
ATOM     28  C5  IDS B   2      56.752   1.465  20.3910  0.00  0.00     0.000 C
ATOM     29  O5  IDS B   2      55.387   1.448  20.7820  0.00  0.00     0.000 O
ATOM     30   O  IDS B   2      57.342  -1.933  21.7470  0.00  0.00     0.000 O
ATOM     32  HD  IDS B   2      57.881  -2.089  21.0880  0.00  0.00     0.000 HD
BRANCH 25 32
ATOM     32   O  IDS B   2      54.558  -2.028  21.2510  0.00  0.00     0.000 O
ATOM     33   S  IDS B   2      54.203  -3.448  20.4890  0.00  0.00     0.000 S
ATOM     34   O  IDS B   2      53.166  -4.086  21.2850  0.00  0.00     0.000 OA
ATOM     35   O  IDS B   2      53.740  -3.170  19.1370  0.00  0.00     0.000 OA
ATOM     36   O  IDS B   2      55.426  -4.216  20.5060  0.00  0.00     0.000 OA
ENDBRANCH 25 32
BRANCH 28 37
ATOM     37   C  IDS B   2      57.276   2.910  20.5230  0.00  0.00     0.000 C
ATOM     38   O  IDS B   2      56.406   3.699  20.8070  0.00  0.00     0.000 OA
ATOM     39   O  IDS B   2      58.468   3.293  20.4300  0.00  0.00     0.000 OA
ENDBRANCH 28 37
BRANCH 24 40
ATOM     40  O4  SUS B   3      53.641   0.289  19.4330  0.00  0.00     0.000 O
BRANCH 40 44
ATOM     41  C1  SUS B   3      50.228   2.706  19.1940  0.00  0.00     0.000 C
ATOM     42  C2  SUS B   3      51.575   3.348  18.8070  0.00  0.00     0.000 C
ATOM     43  C3  SUS B   3      52.584   2.247  18.4900  0.00  0.00     0.000 C
ATOM     44  C4  SUS B   3      52.669   1.300  19.6770  0.00  0.00     0.000 C
ATOM     45  C5  SUS B   3      51.310   0.667  19.8970  0.00  0.00     0.000 C
ATOM     46  O5  SUS B   3      50.372   1.715  20.2170  0.00  0.00     0.000 O
BRANCH 42 49
ATOM     47   N  SUS B   3      51.138   4.681  19.2580  0.00  0.00     0.000 N
ATOM     49  HD  SUS B   3      50.302   4.764  19.4660  0.00  0.00     0.000 HD
ATOM     49   S  SUS B   3      51.508   5.838  18.2130  0.00  0.00     0.000 S
ATOM     50   O  SUS B   3      50.935   5.551  16.9570  0.00  0.00     0.000 OA
ATOM     51   O  SUS B   3      50.729   6.975  18.9220  0.00  0.00     0.000 OA
ATOM     52   O  SUS B   3      52.895   6.082  18.2570  0.00  0.00     0.000 OA
ENDBRANCH 42 49
BRANCH 43 53
ATOM     53   O  SUS B   3      53.896   2.884  18.2610  0.00  0.00     0.000 O
ATOM     54   S  SUS B   3      54.708   2.460  16.8960  0.00  0.00     0.000 S
ATOM     55   O  SUS B   3      53.999   3.047  15.7680  0.00  0.00     0.000 OA
ATOM     56   O  SUS B   3      56.040   3.002  17.0970  0.00  0.00     0.000 OA
ATOM     57   O  SUS B   3      54.682   0.996  16.8360  0.00  0.00     0.000 OA
ENDBRANCH 43 53
BRANCH 45 58
ATOM     58   C  SUS B   3      51.339  -0.366  21.0020  0.00  0.00     0.000 C
ATOM     59   S  SUS B   3      51.611  -0.619  23.5410  0.00  0.00     0.000 S
ATOM     60   O  SUS B   3      51.362   0.300  22.2760  0.00  0.00     0.000 O
ATOM     61   O  SUS B   3      53.037  -0.884  23.5430  0.00  0.00     0.000 OA
ATOM     62   O  SUS B   3      51.209   0.268  24.6000  0.00  0.00     0.000 OA
ATOM     63   O  SUS B   3      50.782  -1.757  23.3540  0.00  0.00     0.000 OA
ENDBRANCH 45 58
BRANCH 41 64
ATOM     64  O4  IDS B   4      49.480   2.297  18.1170  0.00  0.00     0.000 O
BRANCH 64 68
ATOM     65  C1  IDS B   4      46.542   2.105  15.9720  0.00  0.00     0.000 C
ATOM     66  C2  IDS B   4      46.966   3.447  16.5820  0.00  0.00     0.000 C
ATOM     67  C3  IDS B   4      47.303   3.385  18.0620  0.00  0.00     0.000 C
ATOM     68  C4  IDS B   4      48.081   2.138  18.4380  0.00  0.00     0.000 C
ATOM     69  C5  IDS B   4      47.426   0.938  17.7410  0.00  0.00     0.000 C
ATOM     70  O5  IDS B   4      47.497   1.121  16.3250  0.00  0.00     0.000 O
ATOM     71   O  IDS B   4      46.082   3.419  18.7710  0.00  0.00     0.000 O
ATOM     73  HD  IDS B   4      46.595   3.526  18.0820  0.00  0.00     0.000 HD
BRANCH 66 73
ATOM     73   O  IDS B   4      48.198   3.899  15.9190  0.00  0.00     0.000 O
ATOM     74   S  IDS B   4      48.057   4.686  14.5120  0.00  0.00     0.000 S
ATOM     75   O  IDS B   4      47.321   3.810  13.6250  0.00  0.00     0.000 OA
ATOM     76   O  IDS B   4      49.436   4.874  14.1390  0.00  0.00     0.000 OA
ATOM     77   O  IDS B   4      47.353   5.907  14.8220  0.00  0.00     0.000 OA
ENDBRANCH 66 73
BRANCH 69 78
ATOM     78   C  IDS B   4      47.954  -0.417  18.1910  0.00  0.00     0.000 C
ATOM     79   O  IDS B   4      47.168  -1.223  18.6850  0.00  0.00     0.000 OA
ATOM     80   O  IDS B   4      49.141  -0.704  17.9470  0.00  0.00     0.000 OA
ENDBRANCH 69 78
BRANCH 65 81
ATOM     81  O4  SGN B   5      45.245   1.848  16.3010  0.00  0.00     0.000 O
BRANCH 81 85
ATOM     82  C1  SGN B   5      42.057  -0.630  15.1470  0.00  0.00     0.000 C
ATOM     83  C2  SGN B   5      42.721  -0.931  16.4990  0.00  0.00     0.000 C
ATOM     84  C3  SGN B   5      43.511   0.298  16.9690  0.00  0.00     0.000 C
ATOM     85  C4  SGN B   5      44.504   0.697  15.8910  0.00  0.00     0.000 C
ATOM     86  C5  SGN B   5      43.728   0.993  14.6100  0.00  0.00     0.000 C
ATOM     87  O5  SGN B   5      43.026  -0.200  14.2100  0.00  0.00     0.000 O
ATOM     88   O  SGN B   5      44.170   0.010  18.1820  0.00  0.00     0.000 O
ATOM     90  HD  SGN B   5      43.438   0.467  18.1040  0.00  0.00     0.000 HD
BRANCH 83 92
ATOM     90   N  SGN B   5      41.511  -1.770  16.6030  0.00  0.00     0.000 N
ATOM     92  HD  SGN B   5      41.214  -1.985  15.8180  0.00  0.00     0.000 HD
ATOM     92   S  SGN B   5      41.508  -2.955  17.6750  0.00  0.00     0.000 S
ATOM     93   O  SGN B   5      40.223  -3.568  17.5230  0.00  0.00     0.000 OA
ATOM     94   O  SGN B   5      42.690  -3.706  17.4240  0.00  0.00     0.000 OA
ATOM     95   O  SGN B   5      41.687  -2.266  19.0110  0.00  0.00     0.000 OA
ENDBRANCH 83 92
BRANCH 86 96
ATOM     96   C  SGN B   5      44.596   1.418  13.4430  0.00  0.00     0.000 C
ATOM     97   O  SGN B   5      45.628   0.457  13.2090  0.00  0.00     0.000 O
ATOM     98   S  SGN B   5      45.777  -0.066  11.7000  0.00  0.00     0.000 S
ATOM     99   O  SGN B   5      46.995  -0.837  11.7500  0.00  0.00     0.000 OA
ATOM    100   O  SGN B   5      44.613  -0.817  11.3940  0.00  0.00     0.000 OA
ATOM    101   O  SGN B   5      45.892   1.124  10.9220  0.00  0.00     0.000 OA
ENDBRANCH 86 96
BRANCH 82 102
ATOM    102  O4  IDS B   6      41.054   0.287  15.2490  0.00  0.00     0.000 O
BRANCH 102 106
ATOM    103  C1  IDS B   6      37.570   1.181  14.6840  0.00  0.00     0.000 C
ATOM    104  C2  IDS B   6      37.980  -0.284  14.9020  0.00  0.00     0.000 C
ATOM    105  C3  IDS B   6      39.176  -0.744  14.0910  0.00  0.00     0.000 C
ATOM    106  C4  IDS B   6      40.276   0.300  14.0240  0.00  0.00     0.000 C
ATOM    107  C5  IDS B   6      39.663   1.683  13.7840  0.00  0.00     0.000 C
ATOM    108  O5  IDS B   6      38.703   2.022  14.7860  0.00  0.00     0.000 O
ATOM    109   O  IDS B   6      38.723  -1.083  12.7900  0.00  0.00     0.000 O
ATOM    111  HD  IDS B   6      37.986  -0.638  12.7040  0.00  0.00     0.000 HD
BRANCH 104 111
ATOM    111   O  IDS B   6      38.370  -0.469  16.3080  0.00  0.00     0.000 O
ATOM    112   S  IDS B   6      37.405  -1.332  17.2500  0.00  0.00     0.000 S
ATOM    113   O  IDS B   6      36.127  -0.640  17.1960  0.00  0.00     0.000 OA
ATOM    114   O  IDS B   6      37.378  -2.710  16.7480  0.00  0.00     0.000 OA
ATOM    115   O  IDS B   6      38.105  -1.175  18.5070  0.00  0.00     0.000 OA
ENDBRANCH 104 111
BRANCH 107 116
ATOM    116   C  IDS B   6      40.771   2.727  13.7550  0.00  0.00     0.000 C
ATOM    117   O  IDS B   6      40.900   3.408  14.7400  0.00  0.00     0.000 OA
ATOM    118   O  IDS B   6      41.485   2.870  12.7740  0.00  0.00     0.000 OA
ENDBRANCH 107 116
BRANCH 103 119
ATOM    119  O4  SGN B   7      36.820   1.139  13.5530  0.00  0.00     0.000 O
BRANCH 119 123
ATOM    120  C1  SGN B   7      32.954   2.270  12.4280  0.00  0.00     0.000 C
ATOM    121  C2  SGN B   7      34.001   3.386  12.6040  0.00  0.00     0.000 C
ATOM    122  C3  SGN B   7      35.417   2.798  12.6130  0.00  0.00     0.000 C
ATOM    123  C4  SGN B   7      35.510   1.697  13.6570  0.00  0.00     0.000 C
ATOM    124  C5  SGN B   7      34.423   0.640  13.4000  0.00  0.00     0.000 C
ATOM    125  O5  SGN B   7      33.107   1.238  13.4010  0.00  0.00     0.000 O
ATOM    126   O  SGN B   7      36.356   3.847  12.8760  0.00  0.00     0.000 O
ATOM    128  HD  SGN B   7      35.542   3.618  12.6870  0.00  0.00     0.000 HD
BRANCH 121 130
ATOM    128   N  SGN B   7      33.136   4.550  12.8140  0.00  0.00     0.000 N
ATOM    130  HD  SGN B   7      33.825   5.036  13.0090  0.00  0.00     0.000 HD
ATOM    130   S  SGN B   7      33.076   5.776  11.7720  0.00  0.00     0.000 S
ATOM    131   O  SGN B   7      32.873   5.173  10.4990  0.00  0.00     0.000 OA
ATOM    132   O  SGN B   7      32.157   6.737  12.2650  0.00  0.00     0.000 OA
ATOM    133   O  SGN B   7      34.485   6.417  12.0110  0.00  0.00     0.000 OA
ENDBRANCH 121 130
BRANCH 124 134
ATOM    134   C  SGN B   7      34.358  -0.431  14.4490  0.00  0.00     0.000 C
ATOM    135   O  SGN B   7      33.717  -1.587  13.8830  0.00  0.00     0.000 O
ATOM    136   S  SGN B   7      33.688  -2.878  14.7770  0.00  0.00     0.000 S
ATOM    137   O  SGN B   7      32.914  -3.857  14.0510  0.00  0.00     0.000 OA
ATOM    138   O  SGN B   7      33.063  -2.468  16.0140  0.00  0.00     0.000 OA
ATOM    139   O  SGN B   7      35.099  -3.209  14.8950  0.00  0.00     0.000 OA
ENDBRANCH 124 134
BRANCH 120 140
ATOM    140  O4  IDS B   8      32.734   1.509  11.3500  0.00  0.00     0.000 O
BRANCH 140 144
ATOM    141  C1  IDS B   8      32.417  -1.271   9.0850  0.00  0.00     0.000 C
ATOM    142  C2  IDS B   8      32.964   0.100   8.5960  0.00  0.00     0.000 C
ATOM    143  C3  IDS B   8      32.087   1.289   9.0300  0.00  0.00     0.000 C
ATOM    144  C4  IDS B   8      31.642   1.171  10.4860  0.00  0.00     0.000 C
ATOM    145  C5  IDS B   8      31.161  -0.258  10.7790  0.00  0.00     0.000 C
ATOM    146  O5  IDS B   8      32.167  -1.224  10.4840  0.00  0.00     0.000 O
BRANCH 142 147
ATOM    147   O  IDS B   8      34.320   0.324   9.1630  0.00  0.00     0.000 O
ATOM    148   S  IDS B   8      35.634  -0.329   8.4700  0.00  0.00     0.000 S
ATOM    149   O  IDS B   8      35.185  -1.372   7.5760  0.00  0.00     0.000 OA
ATOM    150   O  IDS B   8      36.288   0.764   7.7750  0.00  0.00     0.000 OA
ATOM    151   O  IDS B   8      36.421  -0.858   9.5680  0.00  0.00     0.000 OA
ENDBRANCH 142 147
BRANCH 145 152
ATOM    152   C  IDS B   8      30.798  -0.465  12.2360  0.00  0.00     0.000 C
ATOM    153   O  IDS B   8      31.098  -1.517  12.7900  0.00  0.00     0.000 OA
ATOM    154   O  IDS B   8      30.231   0.423  12.8470  0.00  0.00     0.000 OA
ENDBRANCH 145 152
ENDBRANCH 140 144
ENDBRANCH 120 140
ENDBRANCH 119 123
ENDBRANCH 103 119
ENDBRANCH 102 106
ENDBRANCH 82 102
ENDBRANCH 81 85
ENDBRANCH 65 81
ENDBRANCH 64 68
ENDBRANCH 41 64
ENDBRANCH 40 44
ENDBRANCH 24 40
ENDBRANCH 23 27
ENDBRANCH 1 23
TORSDOF 31
ENDMDL
MODEL 90
REMARK VINA RESULT:      -4.3     14.779     22.882
ROOT
ATOM      1  C1  SGN B   1      67.005  -1.369  21.3340  0.00  0.00     0.000 C
ATOM      2  C2  SGN B   1      66.139  -0.162  20.9370  0.00  0.00     0.000 C
ATOM      3  C3  SGN B   1      64.907  -0.614  20.1470  0.00  0.00     0.000 C
ATOM      4  C4  SGN B   1      65.332  -1.435  18.9330  0.00  0.00     0.000 C
ATOM      5  C5  SGN B   1      66.301  -2.526  19.3840  0.00  0.00     0.000 C
ATOM      6  O5  SGN B   1      67.405  -1.929  20.0910  0.00  0.00     0.000 O
ATOM      7   O  SGN B   1      64.132   0.509  19.7430  0.00  0.00     0.000 O
ATOM      9  HD  SGN B   1      64.885   0.662  19.3440  0.00  0.00     0.000 HD
ATOM      9   O  SGN B   1      64.189  -2.014  18.3330  0.00  0.00     0.000 O
ATOM     11  HD  SGN B   1      64.942  -1.860  17.9340  0.00  0.00     0.000 HD
ENDROOT
BRANCH 2 13
ATOM     11   N  SGN B   1      66.878   0.979  21.5120  0.00  0.00     0.000 N
ATOM     13  HD  SGN B   1      66.674   0.294  22.0020  0.00  0.00     0.000 HD
ATOM     13   S  SGN B   1      66.776   1.371  23.0700  0.00  0.00     0.000 S
ATOM     14   O  SGN B   1      65.949   0.452  23.7490  0.00  0.00     0.000 OA
ATOM     15   O  SGN B   1      68.091   1.623  23.5570  0.00  0.00     0.000 OA
ATOM     16   O  SGN B   1      66.073   2.753  22.9060  0.00  0.00     0.000 OA
ENDBRANCH 2 13
BRANCH 5 17
ATOM     17   C  SGN B   1      66.879  -3.339  18.2520  0.00  0.00     0.000 C
ATOM     18   O  SGN B   1      66.868  -2.589  17.0210  0.00  0.00     0.000 O
ATOM     19   S  SGN B   1      66.353  -3.373  15.7260  0.00  0.00     0.000 S
ATOM     20   O  SGN B   1      66.659  -2.500  14.6130  0.00  0.00     0.000 OA
ATOM     21   O  SGN B   1      67.118  -4.598  15.7280  0.00  0.00     0.000 OA
ATOM     22   O  SGN B   1      64.935  -3.565  15.9400  0.00  0.00     0.000 OA
ENDBRANCH 5 17
BRANCH 1 23
ATOM     23  O4  IDS B   2      67.150  -2.275  22.3430  0.00  0.00     0.000 O
BRANCH 23 27
ATOM     24  C1  IDS B   2      64.513  -5.466  22.0290  0.00  0.00     0.000 C
ATOM     25  C2  IDS B   2      64.034  -4.288  22.9070  0.00  0.00     0.000 C
ATOM     26  C3  IDS B   2      64.927  -3.066  22.7150  0.00  0.00     0.000 C
ATOM     27  C4  IDS B   2      66.404  -3.349  22.9540  0.00  0.00     0.000 C
ATOM     28  C5  IDS B   2      66.763  -4.754  22.4270  0.00  0.00     0.000 C
ATOM     29  O5  IDS B   2      65.808  -5.198  21.4750  0.00  0.00     0.000 O
ATOM     30   O  IDS B   2      64.532  -2.049  23.6290  0.00  0.00     0.000 O
ATOM     32  HD  IDS B   2      64.829  -2.177  24.4320  0.00  0.00     0.000 HD
BRANCH 25 32
ATOM     32   O  IDS B   2      62.643  -3.881  22.5900  0.00  0.00     0.000 O
ATOM     33   S  IDS B   2      61.426  -3.998  23.6990  0.00  0.00     0.000 S
ATOM     34   O  IDS B   2      60.193  -3.731  22.9770  0.00  0.00     0.000 OA
ATOM     35   O  IDS B   2      61.426  -5.334  24.2780  0.00  0.00     0.000 OA
ATOM     36   O  IDS B   2      61.694  -2.972  24.6810  0.00  0.00     0.000 OA
ENDBRANCH 25 32
BRANCH 28 37
ATOM     37   C  IDS B   2      68.172  -4.964  21.8360  0.00  0.00     0.000 C
ATOM     38   O  IDS B   2      68.147  -5.278  20.6690  0.00  0.00     0.000 OA
ATOM     39   O  IDS B   2      69.270  -4.781  22.4160  0.00  0.00     0.000 OA
ENDBRANCH 28 37
BRANCH 24 40
ATOM     40  O4  SUS B   3      63.891  -6.660  22.1090  0.00  0.00     0.000 O
BRANCH 40 44
ATOM     41  C1  SUS B   3      63.079  -9.493  19.1310  0.00  0.00     0.000 C
ATOM     42  C2  SUS B   3      64.522  -9.431  19.6710  0.00  0.00     0.000 C
ATOM     43  C3  SUS B   3      64.523  -8.726  21.0250  0.00  0.00     0.000 C
ATOM     44  C4  SUS B   3      63.861  -7.366  20.8730  0.00  0.00     0.000 C
ATOM     45  C5  SUS B   3      62.427  -7.565  20.4280  0.00  0.00     0.000 C
ATOM     46  O5  SUS B   3      62.441  -8.211  19.1390  0.00  0.00     0.000 O
BRANCH 42 49
ATOM     47   N  SUS B   3      65.631 -10.371  19.9040  0.00  0.00     0.000 N
ATOM     49  HD  SUS B   3      66.297 -10.076  20.3730  0.00  0.00     0.000 HD
ATOM     49   S  SUS B   3      66.214 -10.989  18.5460  0.00  0.00     0.000 S
ATOM     50   O  SUS B   3      66.644  -9.952  17.6930  0.00  0.00     0.000 OA
ATOM     51   O  SUS B   3      67.429 -11.711  19.1830  0.00  0.00     0.000 OA
ATOM     52   O  SUS B   3      65.296 -11.923  18.0260  0.00  0.00     0.000 OA
ENDBRANCH 42 49
BRANCH 43 53
ATOM     53   O  SUS B   3      65.926  -8.557  21.4490  0.00  0.00     0.000 O
ATOM     54   S  SUS B   3      66.349  -9.181  22.9100  0.00  0.00     0.000 S
ATOM     55   O  SUS B   3      66.351 -10.632  22.7800  0.00  0.00     0.000 OA
ATOM     56   O  SUS B   3      67.661  -8.614  23.1690  0.00  0.00     0.000 OA
ATOM     57   O  SUS B   3      65.328  -8.735  23.8630  0.00  0.00     0.000 OA
ENDBRANCH 43 53
BRANCH 45 58
ATOM     58   C  SUS B   3      61.670  -6.258  20.3500  0.00  0.00     0.000 C
ATOM     59   S  SUS B   3      61.576  -4.037  19.0670  0.00  0.00     0.000 S
ATOM     60   O  SUS B   3      62.103  -5.525  19.1910  0.00  0.00     0.000 O
ATOM     61   O  SUS B   3      62.396  -3.267  19.9820  0.00  0.00     0.000 OA
ATOM     62   O  SUS B   3      61.873  -3.762  17.6870  0.00  0.00     0.000 OA
ATOM     63   O  SUS B   3      60.194  -4.095  19.3910  0.00  0.00     0.000 OA
ENDBRANCH 45 58
BRANCH 41 64
ATOM     64  O4  IDS B   4      62.325 -10.499  19.6830  0.00  0.00     0.000 O
BRANCH 64 68
ATOM     65  C1  IDS B   4      60.128 -13.402  19.5360  0.00  0.00     0.000 C
ATOM     66  C2  IDS B   4      61.193 -13.184  18.4530  0.00  0.00     0.000 C
ATOM     67  C3  IDS B   4      61.249 -11.768  17.9050  0.00  0.00     0.000 C
ATOM     68  C4  IDS B   4      61.080 -10.712  18.9810  0.00  0.00     0.000 C
ATOM     69  C5  IDS B   4      59.928 -11.143  19.8970  0.00  0.00     0.000 C
ATOM     70  O5  IDS B   4      60.260 -12.388  20.5160  0.00  0.00     0.000 O
ATOM     71   O  IDS B   4      60.215 -11.646  16.9500  0.00  0.00     0.000 O
ATOM     73  HD  IDS B   4      60.768 -12.073  17.4620  0.00  0.00     0.000 HD
BRANCH 66 73
ATOM     73   O  IDS B   4      62.518 -13.430  19.0370  0.00  0.00     0.000 O
ATOM     74   S  IDS B   4      63.208 -14.869  18.7710  0.00  0.00     0.000 S
ATOM     75   O  IDS B   4      62.274 -15.866  19.2490  0.00  0.00     0.000 OA
ATOM     76   O  IDS B   4      64.413 -14.770  19.5570  0.00  0.00     0.000 OA
ATOM     77   O  IDS B   4      63.432 -14.932  17.3460  0.00  0.00     0.000 OA
ENDBRANCH 66 73
BRANCH 69 78
ATOM     78   C  IDS B   4      59.488 -10.083  20.8980  0.00  0.00     0.000 C
ATOM     79   O  IDS B   4      59.253  -8.946  20.4900  0.00  0.00     0.000 OA
ATOM     80   O  IDS B   4      59.279 -10.426  22.0760  0.00  0.00     0.000 OA
ENDBRANCH 69 78
BRANCH 65 81
ATOM     81  O4  SGN B   5      58.906 -13.533  18.9490  0.00  0.00     0.000 O
BRANCH 81 85
ATOM     82  C1  SGN B   5      55.277 -15.641  19.1270  0.00  0.00     0.000 C
ATOM     83  C2  SGN B   5      55.514 -14.568  20.2000  0.00  0.00     0.000 C
ATOM     84  C3  SGN B   5      56.617 -13.608  19.7320  0.00  0.00     0.000 C
ATOM     85  C4  SGN B   5      57.866 -14.405  19.3980  0.00  0.00     0.000 C
ATOM     86  C5  SGN B   5      57.513 -15.416  18.3110  0.00  0.00     0.000 C
ATOM     87  O5  SGN B   5      56.491 -16.298  18.8130  0.00  0.00     0.000 O
ATOM     88   O  SGN B   5      56.880 -12.653  20.7370  0.00  0.00     0.000 O
ATOM     90  HD  SGN B   5      56.409 -12.515  20.0240  0.00  0.00     0.000 HD
BRANCH 83 92
ATOM     90   N  SGN B   5      54.160 -15.051  20.5350  0.00  0.00     0.000 N
ATOM     92  HD  SGN B   5      54.119 -15.914  20.4910  0.00  0.00     0.000 HD
ATOM     92   S  SGN B   5      53.421 -14.401  21.7940  0.00  0.00     0.000 S
ATOM     93   O  SGN B   5      52.160 -15.076  21.8520  0.00  0.00     0.000 OA
ATOM     94   O  SGN B   5      54.337 -14.509  22.8770  0.00  0.00     0.000 OA
ATOM     95   O  SGN B   5      53.297 -12.932  21.4520  0.00  0.00     0.000 OA
ENDBRANCH 83 92
BRANCH 86 96
ATOM     96   C  SGN B   5      58.675 -16.280  17.8660  0.00  0.00     0.000 C
ATOM     97   O  SGN B   5      59.299 -16.901  18.9920  0.00  0.00     0.000 O
ATOM     98   S  SGN B   5      59.516 -18.487  18.8940  0.00  0.00     0.000 S
ATOM     99   O  SGN B   5      60.327 -18.770  20.0530  0.00  0.00     0.000 OA
ATOM    100   O  SGN B   5      58.233 -19.094  18.9060  0.00  0.00     0.000 OA
ATOM    101   O  SGN B   5      60.207 -18.675  17.6600  0.00  0.00     0.000 OA
ENDBRANCH 86 96
BRANCH 82 102
ATOM    102  O4  IDS B   6      54.706 -15.135  17.9970  0.00  0.00     0.000 O
BRANCH 102 106
ATOM    103  C1  IDS B   6      51.949 -15.223  15.6200  0.00  0.00     0.000 C
ATOM    104  C2  IDS B   6      51.750 -15.686  17.0710  0.00  0.00     0.000 C
ATOM    105  C3  IDS B   6      52.820 -16.623  17.5990  0.00  0.00     0.000 C
ATOM    106  C4  IDS B   6      54.218 -16.220  17.1670  0.00  0.00     0.000 C
ATOM    107  C5  IDS B   6      54.206 -15.812  15.6900  0.00  0.00     0.000 C
ATOM    108  O5  IDS B   6      53.274 -14.760  15.4360  0.00  0.00     0.000 O
ATOM    109   O  IDS B   6      52.514 -17.935  17.1560  0.00  0.00     0.000 O
ATOM    111  HD  IDS B   6      52.019 -17.810  16.4570  0.00  0.00     0.000 HD
BRANCH 104 111
ATOM    111   O  IDS B   6      51.789 -14.514  17.9580  0.00  0.00     0.000 O
ATOM    112   S  IDS B   6      50.419 -14.037  18.6350  0.00  0.00     0.000 S
ATOM    113   O  IDS B   6      49.534 -13.758  17.5140  0.00  0.00     0.000 OA
ATOM    114   O  IDS B   6      49.951 -15.097  19.5350  0.00  0.00     0.000 OA
ATOM    115   O  IDS B   6      50.895 -12.852  19.3160  0.00  0.00     0.000 OA
ENDBRANCH 104 111
BRANCH 107 116
ATOM    116   C  IDS B   6      55.605 -15.375  15.2770  0.00  0.00     0.000 C
ATOM    117   O  IDS B   6      56.419 -16.248  15.1100  0.00  0.00     0.000 OA
ATOM    118   O  IDS B   6      55.885 -14.195  15.1320  0.00  0.00     0.000 OA
ENDBRANCH 107 116
BRANCH 103 119
ATOM    119  O4  SGN B   7      51.451 -16.249  14.8830  0.00  0.00     0.000 O
BRANCH 119 123
ATOM    120  C1  SGN B   7      49.543 -16.537  11.1730  0.00  0.00     0.000 C
ATOM    121  C2  SGN B   7      51.039 -16.900  11.2360  0.00  0.00     0.000 C
ATOM    122  C3  SGN B   7      51.475 -17.133  12.6880  0.00  0.00     0.000 C
ATOM    123  C4  SGN B   7      51.097 -15.930  13.5370  0.00  0.00     0.000 C
ATOM    124  C5  SGN B   7      49.592 -15.646  13.4010  0.00  0.00     0.000 C
ATOM    125  O5  SGN B   7      49.227 -15.432  12.0190  0.00  0.00     0.000 O
ATOM    126   O  SGN B   7      52.887 -17.370  12.7190  0.00  0.00     0.000 O
ATOM    128  HD  SGN B   7      52.165 -17.282  12.2470  0.00  0.00     0.000 HD
BRANCH 121 130
ATOM    128   N  SGN B   7      50.778 -17.310   9.8540  0.00  0.00     0.000 N
ATOM    130  HD  SGN B   7      51.240 -16.639   9.5600  0.00  0.00     0.000 HD
ATOM    130   S  SGN B   7      51.914 -17.974   8.9260  0.00  0.00     0.000 S
ATOM    131   O  SGN B   7      52.466 -19.027   9.7080  0.00  0.00     0.000 OA
ATOM    132   O  SGN B   7      51.348 -18.247   7.6540  0.00  0.00     0.000 OA
ATOM    133   O  SGN B   7      52.842 -16.735   8.6880  0.00  0.00     0.000 OA
ENDBRANCH 121 130
BRANCH 124 134
ATOM    134   C  SGN B   7      49.142 -14.404  14.1120  0.00  0.00     0.000 C
ATOM    135   O  SGN B   7      47.920 -13.947  13.5070  0.00  0.00     0.000 O
ATOM    136   S  SGN B   7      47.201 -12.740  14.2090  0.00  0.00     0.000 S
ATOM    137   O  SGN B   7      46.074 -12.398  13.3740  0.00  0.00     0.000 OA
ATOM    138   O  SGN B   7      48.195 -11.692  14.2720  0.00  0.00     0.000 OA
ATOM    139   O  SGN B   7      46.834 -13.301  15.4990  0.00  0.00     0.000 OA
ENDBRANCH 124 134
BRANCH 120 140
ATOM    140  O4  IDS B   8      48.494 -17.319  11.4490  0.00  0.00     0.000 O
BRANCH 140 144
ATOM    141  C1  IDS B   8      45.263 -18.896  11.6360  0.00  0.00     0.000 C
ATOM    142  C2  IDS B   8      46.102 -18.639  12.9200  0.00  0.00     0.000 C
ATOM    143  C3  IDS B   8      47.564 -19.106  12.7880  0.00  0.00     0.000 C
ATOM    144  C4  IDS B   8      48.171 -18.715  11.4420  0.00  0.00     0.000 C
ATOM    145  C5  IDS B   8      47.184 -19.022  10.3060  0.00  0.00     0.000 C
ATOM    146  O5  IDS B   8      45.935 -18.364  10.5010  0.00  0.00     0.000 O
BRANCH 142 147
ATOM    147   O  IDS B   8      46.131 -17.181  13.2100  0.00  0.00     0.000 O
ATOM    148   S  IDS B   8      45.168 -16.536  14.3450  0.00  0.00     0.000 S
ATOM    149   O  IDS B   8      44.132 -17.500  14.6410  0.00  0.00     0.000 OA
ATOM    150   O  IDS B   8      46.032 -16.273  15.4810  0.00  0.00     0.000 OA
ATOM    151   O  IDS B   8      44.630 -15.329  13.7480  0.00  0.00     0.000 OA
ENDBRANCH 142 147
BRANCH 145 152
ATOM    152   C  IDS B   8      47.690 -18.565   8.9530  0.00  0.00     0.000 C
ATOM    153   O  IDS B   8      47.250 -17.532   8.4610  0.00  0.00     0.000 OA
ATOM    154   O  IDS B   8      48.544 -19.216   8.3780  0.00  0.00     0.000 OA
ENDBRANCH 145 152
ENDBRANCH 140 144
ENDBRANCH 120 140
ENDBRANCH 119 123
ENDBRANCH 103 119
ENDBRANCH 102 106
ENDBRANCH 82 102
ENDBRANCH 81 85
ENDBRANCH 65 81
ENDBRANCH 64 68
ENDBRANCH 41 64
ENDBRANCH 40 44
ENDBRANCH 24 40
ENDBRANCH 23 27
ENDBRANCH 1 23
TORSDOF 31
ENDMDL
MODEL 91
REMARK VINA RESULT:      -3.9      9.604     15.890
ROOT
ATOM      1  C1  SGN B   1      38.357   0.971  14.8400  0.00  0.00     0.000 C
ATOM      2  C2  SGN B   1      37.326  -0.100  15.2300  0.00  0.00     0.000 C
ATOM      3  C3  SGN B   1      36.774  -0.802  13.9840  0.00  0.00     0.000 C
ATOM      4  C4  SGN B   1      36.193   0.224  13.0160  0.00  0.00     0.000 C
ATOM      5  C5  SGN B   1      37.219   1.331  12.7860  0.00  0.00     0.000 C
ATOM      6  O5  SGN B   1      37.614   1.893  14.0530  0.00  0.00     0.000 O
ATOM      7   O  SGN B   1      35.788  -1.761  14.3460  0.00  0.00     0.000 O
ATOM      9  HD  SGN B   1      35.434  -1.027  14.6370  0.00  0.00     0.000 HD
ATOM      9   O  SGN B   1      35.877  -0.411  11.7910  0.00  0.00     0.000 O
ATOM     11  HD  SGN B   1      35.522   0.323  12.0830  0.00  0.00     0.000 HD
ENDROOT
BRANCH 2 13
ATOM     11   N  SGN B   1      37.272  -0.056  16.7040  0.00  0.00     0.000 N
ATOM     13  HD  SGN B   1      38.033  -0.087  16.2920  0.00  0.00     0.000 HD
ATOM     13   S  SGN B   1      38.421  -0.704  17.6250  0.00  0.00     0.000 S
ATOM     14   O  SGN B   1      39.446  -1.239  16.8180  0.00  0.00     0.000 OA
ATOM     15   O  SGN B   1      38.752   0.225  18.6530  0.00  0.00     0.000 OA
ATOM     16   O  SGN B   1      37.568  -1.833  18.2820  0.00  0.00     0.000 OA
ENDBRANCH 2 13
BRANCH 5 17
ATOM     17   C  SGN B   1      36.717   2.465  11.9280  0.00  0.00     0.000 C
ATOM     18   O  SGN B   1      36.853   3.727  12.6120  0.00  0.00     0.000 O
ATOM     19   S  SGN B   1      35.588   4.704  12.5400  0.00  0.00     0.000 S
ATOM     20   O  SGN B   1      36.055   5.962  13.0830  0.00  0.00     0.000 OA
ATOM     21   O  SGN B   1      35.270   4.764  11.1320  0.00  0.00     0.000 OA
ATOM     22   O  SGN B   1      34.572   4.065  13.3460  0.00  0.00     0.000 OA
ENDBRANCH 5 17
BRANCH 1 23
ATOM     23  O4  IDS B   2      39.695   1.115  14.6210  0.00  0.00     0.000 O
BRANCH 23 27
ATOM     24  C1  IDS B   2      43.503   2.111  13.3030  0.00  0.00     0.000 C
ATOM     25  C2  IDS B   2      42.459   3.248  13.2460  0.00  0.00     0.000 C
ATOM     26  C3  IDS B   2      41.198   2.871  14.0180  0.00  0.00     0.000 C
ATOM     27  C4  IDS B   2      40.583   1.551  13.5700  0.00  0.00     0.000 C
ATOM     28  C5  IDS B   2      41.696   0.544  13.2170  0.00  0.00     0.000 C
ATOM     29  O5  IDS B   2      42.924   0.910  13.8290  0.00  0.00     0.000 O
ATOM     30   O  IDS B   2      40.217   3.885  13.8380  0.00  0.00     0.000 O
ATOM     32  HD  IDS B   2      39.804   3.830  13.0790  0.00  0.00     0.000 HD
BRANCH 25 32
ATOM     32   O  IDS B   2      42.975   4.514  13.8210  0.00  0.00     0.000 O
ATOM     33   S  IDS B   2      42.972   5.926  12.9660  0.00  0.00     0.000 S
ATOM     34   O  IDS B   2      43.745   6.876  13.7500  0.00  0.00     0.000 OA
ATOM     35   O  IDS B   2      43.573   5.701  11.6590  0.00  0.00     0.000 OA
ATOM     36   O  IDS B   2      41.586   6.323  12.8740  0.00  0.00     0.000 OA
ENDBRANCH 25 32
BRANCH 28 37
ATOM     37   C  IDS B   2      41.435  -0.948  13.5070  0.00  0.00     0.000 C
ATOM     38   O  IDS B   2      42.017  -1.342  14.4900  0.00  0.00     0.000 OA
ATOM     39   O  IDS B   2      40.666  -1.716  12.8790  0.00  0.00     0.000 OA
ENDBRANCH 28 37
BRANCH 24 40
ATOM     40  O4  SUS B   3      44.662   2.227  12.6220  0.00  0.00     0.000 O
BRANCH 40 44
ATOM     41  C1  SUS B   3      47.085   0.048  15.2540  0.00  0.00     0.000 C
ATOM     42  C2  SUS B   3      46.945   1.562  15.5140  0.00  0.00     0.000 C
ATOM     43  C3  SUS B   3      45.699   2.081  14.8000  0.00  0.00     0.000 C
ATOM     44  C4  SUS B   3      45.786   1.713  13.3270  0.00  0.00     0.000 C
ATOM     45  C5  SUS B   3      45.826   0.203  13.2010  0.00  0.00     0.000 C
ATOM     46  O5  SUS B   3      47.018  -0.272  13.8600  0.00  0.00     0.000 O
BRANCH 42 49
ATOM     47   N  SUS B   3      47.446   1.304  16.8750  0.00  0.00     0.000 N
ATOM     49  HD  SUS B   3      46.854   1.103  17.4740  0.00  0.00     0.000 HD
ATOM     49   S  SUS B   3      48.338   2.508  17.4420  0.00  0.00     0.000 S
ATOM     50   O  SUS B   3      47.593   3.705  17.4300  0.00  0.00     0.000 OA
ATOM     51   O  SUS B   3      48.475   1.964  18.8870  0.00  0.00     0.000 OA
ATOM     52   O  SUS B   3      49.588   2.510  16.7910  0.00  0.00     0.000 OA
ENDBRANCH 42 49
BRANCH 43 53
ATOM     53   O  SUS B   3      45.669   3.549  14.9490  0.00  0.00     0.000 O
ATOM     54   S  SUS B   3      46.761   4.414  14.0770  0.00  0.00     0.000 S
ATOM     55   O  SUS B   3      46.358   4.344  12.6790  0.00  0.00     0.000 OA
ATOM     56   O  SUS B   3      46.686   5.749  14.6430  0.00  0.00     0.000 OA
ATOM     57   O  SUS B   3      48.062   3.771  14.2860  0.00  0.00     0.000 OA
ENDBRANCH 43 53
BRANCH 45 58
ATOM     58   C  SUS B   3      45.812  -0.245  11.7560  0.00  0.00     0.000 C
ATOM     59   S  SUS B   3      46.612   0.426   9.4120  0.00  0.00     0.000 S
ATOM     60   O  SUS B   3      46.670   0.611  10.9840  0.00  0.00     0.000 O
ATOM     61   O  SUS B   3      45.397   1.101   8.9950  0.00  0.00     0.000 OA
ATOM     62   O  SUS B   3      47.802   1.128   9.0150  0.00  0.00     0.000 OA
ATOM     63   O  SUS B   3      46.632  -0.977   9.1940  0.00  0.00     0.000 OA
ENDBRANCH 45 58
BRANCH 41 64
ATOM     64  O4  IDS B   4      46.276  -0.727  16.0480  0.00  0.00     0.000 O
BRANCH 64 68
ATOM     65  C1  IDS B   4      45.126  -3.405  18.2340  0.00  0.00     0.000 C
ATOM     66  C2  IDS B   4      46.033  -2.297  18.7820  0.00  0.00     0.000 C
ATOM     67  C3  IDS B   4      47.233  -1.976  17.9060  0.00  0.00     0.000 C
ATOM     68  C4  IDS B   4      46.898  -1.975  16.4270  0.00  0.00     0.000 C
ATOM     69  C5  IDS B   4      46.029  -3.205  16.1320  0.00  0.00     0.000 C
ATOM     70  O5  IDS B   4      44.816  -3.114  16.8830  0.00  0.00     0.000 O
ATOM     71   O  IDS B   4      48.219  -2.953  18.1720  0.00  0.00     0.000 O
ATOM     73  HD  IDS B   4      47.501  -2.495  18.3310  0.00  0.00     0.000 HD
BRANCH 66 73
ATOM     73   O  IDS B   4      45.261  -1.049  18.8610  0.00  0.00     0.000 O
ATOM     74   S  IDS B   4      44.983  -0.421  20.3250  0.00  0.00     0.000 S
ATOM     75   O  IDS B   4      44.319  -1.452  21.0940  0.00  0.00     0.000 OA
ATOM     76   O  IDS B   4      44.143   0.707  20.0080  0.00  0.00     0.000 OA
ATOM     77   O  IDS B   4      46.282  -0.066  20.8460  0.00  0.00     0.000 OA
ENDBRANCH 66 73
BRANCH 69 78
ATOM     78   C  IDS B   4      45.791  -3.467  14.6510  0.00  0.00     0.000 C
ATOM     79   O  IDS B   4      44.834  -2.924  14.1010  0.00  0.00     0.000 OA
ATOM     80   O  IDS B   4      46.631  -4.136  14.0220  0.00  0.00     0.000 OA
ENDBRANCH 69 78
BRANCH 65 81
ATOM     81  O4  SGN B   5      45.690  -4.619  18.4860  0.00  0.00     0.000 O
BRANCH 81 85
ATOM     82  C1  SGN B   5      44.309  -8.268  20.0410  0.00  0.00     0.000 C
ATOM     83  C2  SGN B   5      45.140  -8.329  18.7500  0.00  0.00     0.000 C
ATOM     84  C3  SGN B   5      45.932  -7.025  18.5870  0.00  0.00     0.000 C
ATOM     85  C4  SGN B   5      44.973  -5.848  18.6250  0.00  0.00     0.000 C
ATOM     86  C5  SGN B   5      44.227  -5.880  19.9570  0.00  0.00     0.000 C
ATOM     87  O5  SGN B   5      43.490  -7.114  20.0430  0.00  0.00     0.000 O
ATOM     88   O  SGN B   5      46.653  -7.050  17.3750  0.00  0.00     0.000 O
ATOM     90  HD  SGN B   5      46.987  -7.195  18.1600  0.00  0.00     0.000 HD
BRANCH 83 92
ATOM     90   N  SGN B   5      44.659  -9.449  17.9180  0.00  0.00     0.000 N
ATOM     92  HD  SGN B   5      44.463  -9.181  17.1180  0.00  0.00     0.000 HD
ATOM     92   S  SGN B   5      45.454 -10.834  17.9910  0.00  0.00     0.000 S
ATOM     93   O  SGN B   5      44.755 -11.692  17.0820  0.00  0.00     0.000 OA
ATOM     94   O  SGN B   5      46.819 -10.508  17.7570  0.00  0.00     0.000 OA
ATOM     95   O  SGN B   5      45.335 -11.270  19.4350  0.00  0.00     0.000 OA
ENDBRANCH 83 92
BRANCH 86 96
ATOM     96   C  SGN B   5      43.237  -4.749  20.1410  0.00  0.00     0.000 C
ATOM     97   O  SGN B   5      42.456  -4.567  18.9580  0.00  0.00     0.000 O
ATOM     98   S  SGN B   5      40.866  -4.520  19.1610  0.00  0.00     0.000 S
ATOM     99   O  SGN B   5      40.390  -4.130  17.8560  0.00  0.00     0.000 OA
ATOM    100   O  SGN B   5      40.452  -5.810  19.5820  0.00  0.00     0.000 OA
ATOM    101   O  SGN B   5      40.666  -3.519  20.1580  0.00  0.00     0.000 OA
ENDBRANCH 86 96
BRANCH 82 102
ATOM    102  O4  IDS B   6      45.082  -8.303  21.1630  0.00  0.00     0.000 O
BRANCH 102 106
ATOM    103  C1  IDS B   6      45.962  -9.703  24.4070  0.00  0.00     0.000 C
ATOM    104  C2  IDS B   6      45.424 -10.603  23.2830  0.00  0.00     0.000 C
ATOM    105  C3  IDS B   6      44.191 -10.077  22.5740  0.00  0.00     0.000 C
ATOM    106  C4  IDS B   6      44.253  -8.581  22.3210  0.00  0.00     0.000 C
ATOM    107  C5  IDS B   6      44.795  -7.868  23.5630  0.00  0.00     0.000 C
ATOM    108  O5  IDS B   6      46.076  -8.370  23.9490  0.00  0.00     0.000 O
ATOM    109   O  IDS B   6      43.057 -10.408  23.3580  0.00  0.00     0.000 O
ATOM    111  HD  IDS B   6      43.378 -10.514  24.1550  0.00  0.00     0.000 HD
BRANCH 104 111
ATOM    111   O  IDS B   6      46.450 -10.727  22.2360  0.00  0.00     0.000 O
ATOM    112   S  IDS B   6      47.579 -11.848  22.4180  0.00  0.00     0.000 S
ATOM    113   O  IDS B   6      48.222 -11.518  23.6800  0.00  0.00     0.000 OA
ATOM    114   O  IDS B   6      46.934 -13.165  22.3840  0.00  0.00     0.000 OA
ATOM    115   O  IDS B   6      48.387 -11.557  21.2530  0.00  0.00     0.000 OA
ENDBRANCH 104 111
BRANCH 107 116
ATOM    116   C  IDS B   6      44.888  -6.373  23.2850  0.00  0.00     0.000 C
ATOM    117   O  IDS B   6      43.871  -5.736  23.4020  0.00  0.00     0.000 OA
ATOM    118   O  IDS B   6      45.941  -5.853  22.9520  0.00  0.00     0.000 OA
ENDBRANCH 107 116
BRANCH 103 119
ATOM    119  O4  SGN B   7      45.183 -10.020  25.4730  0.00  0.00     0.000 O
BRANCH 119 123
ATOM    120  C1  SGN B   7      45.160  -9.050  29.5410  0.00  0.00     0.000 C
ATOM    121  C2  SGN B   7      44.296  -8.191  28.5970  0.00  0.00     0.000 C
ATOM    122  C3  SGN B   7      44.096  -8.904  27.2540  0.00  0.00     0.000 C
ATOM    123  C4  SGN B   7      45.445  -9.290  26.6710  0.00  0.00     0.000 C
ATOM    124  C5  SGN B   7      46.231 -10.135  27.6870  0.00  0.00     0.000 C
ATOM    125  O5  SGN B   7      46.396  -9.426  28.9350  0.00  0.00     0.000 O
ATOM    126   O  SGN B   7      43.374  -8.038  26.3700  0.00  0.00     0.000 O
ATOM    128  HD  SGN B   7      43.659  -8.199  27.1720  0.00  0.00     0.000 HD
BRANCH 121 130
ATOM    128   N  SGN B   7      43.657  -7.785  29.8520  0.00  0.00     0.000 N
ATOM    130  HD  SGN B   7      44.209  -7.121  29.9260  0.00  0.00     0.000 HD
ATOM    130   S  SGN B   7      42.715  -6.483  29.9540  0.00  0.00     0.000 S
ATOM    131   O  SGN B   7      41.781  -6.615  28.8880  0.00  0.00     0.000 OA
ATOM    132   O  SGN B   7      42.263  -6.363  31.2930  0.00  0.00     0.000 OA
ATOM    133   O  SGN B   7      43.784  -5.349  29.7940  0.00  0.00     0.000 OA
ENDBRANCH 121 130
BRANCH 124 134
ATOM    134   C  SGN B   7      47.626 -10.470  27.2490  0.00  0.00     0.000 C
ATOM    135   O  SGN B   7      48.474  -9.341  27.5210  0.00  0.00     0.000 O
ATOM    136   S  SGN B   7      50.012  -9.546  27.2740  0.00  0.00     0.000 S
ATOM    137   O  SGN B   7      50.635  -8.266  27.5110  0.00  0.00     0.000 OA
ATOM    138   O  SGN B   7      50.120  -9.981  25.9000  0.00  0.00     0.000 OA
ATOM    139   O  SGN B   7      50.354 -10.562  28.2570  0.00  0.00     0.000 OA
ENDBRANCH 124 134
BRANCH 120 140
ATOM    140  O4  IDS B   8      44.844 -10.217  30.1130  0.00  0.00     0.000 O
BRANCH 140 144
ATOM    141  C1  IDS B   8      44.371 -13.635  31.1400  0.00  0.00     0.000 C
ATOM    142  C2  IDS B   8      43.860 -13.137  29.7580  0.00  0.00     0.000 C
ATOM    143  C3  IDS B   8      43.058 -11.825  29.8480  0.00  0.00     0.000 C
ATOM    144  C4  IDS B   8      43.722 -10.810  30.7770  0.00  0.00     0.000 C
ATOM    145  C5  IDS B   8      44.178 -11.498  32.0730  0.00  0.00     0.000 C
ATOM    146  O5  IDS B   8      45.060 -12.586  31.8090  0.00  0.00     0.000 O
BRANCH 142 147
ATOM    147   O  IDS B   8      45.019 -12.883  28.8620  0.00  0.00     0.000 O
ATOM    148   S  IDS B   8      45.345 -13.869  27.6170  0.00  0.00     0.000 S
ATOM    149   O  IDS B   8      44.614 -15.099  27.8280  0.00  0.00     0.000 OA
ATOM    150   O  IDS B   8      44.908 -13.154  26.4320  0.00  0.00     0.000 OA
ATOM    151   O  IDS B   8      46.779 -14.077  27.6600  0.00  0.00     0.000 OA
ENDBRANCH 142 147
BRANCH 145 152
ATOM    152   C  IDS B   8      44.934 -10.562  32.9940  0.00  0.00     0.000 C
ATOM    153   O  IDS B   8      46.073 -10.848  33.3440  0.00  0.00     0.000 OA
ATOM    154   O  IDS B   8      44.410  -9.525  33.3610  0.00  0.00     0.000 OA
ENDBRANCH 145 152
ENDBRANCH 140 144
ENDBRANCH 120 140
ENDBRANCH 119 123
ENDBRANCH 103 119
ENDBRANCH 102 106
ENDBRANCH 82 102
ENDBRANCH 81 85
ENDBRANCH 65 81
ENDBRANCH 64 68
ENDBRANCH 41 64
ENDBRANCH 40 44
ENDBRANCH 24 40
ENDBRANCH 23 27
ENDBRANCH 1 23
TORSDOF 31
ENDMDL
MODEL 92
REMARK VINA RESULT:      -3.8      8.350     19.829
ROOT
ATOM      1  C1  SGN B   1      59.296  -3.032  20.4910  0.00  0.00     0.000 C
ATOM      2  C2  SGN B   1      60.799  -2.838  20.2350  0.00  0.00     0.000 C
ATOM      3  C3  SGN B   1      61.313  -3.864  19.2190  0.00  0.00     0.000 C
ATOM      4  C4  SGN B   1      60.993  -5.278  19.6910  0.00  0.00     0.000 C
ATOM      5  C5  SGN B   1      59.514  -5.357  20.0620  0.00  0.00     0.000 C
ATOM      6  O5  SGN B   1      59.206  -4.342  21.0360  0.00  0.00     0.000 O
ATOM      7   O  SGN B   1      62.713  -3.710  19.0170  0.00  0.00     0.000 O
ATOM      9  HD  SGN B   1      62.677  -3.899  19.8620  0.00  0.00     0.000 HD
ATOM      9   O  SGN B   1      61.287  -6.198  18.6550  0.00  0.00     0.000 O
ATOM     11  HD  SGN B   1      61.250  -6.386  19.5000  0.00  0.00     0.000 HD
ENDROOT
BRANCH 2 13
ATOM     11   N  SGN B   1      60.895  -1.701  21.1700  0.00  0.00     0.000 N
ATOM     13  HD  SGN B   1      60.456  -1.624  20.4270  0.00  0.00     0.000 HD
ATOM     13   S  SGN B   1      60.831  -0.172  20.6740  0.00  0.00     0.000 S
ATOM     14   O  SGN B   1      60.624  -0.122  19.2790  0.00  0.00     0.000 OA
ATOM     15   O  SGN B   1      59.954   0.545  21.5370  0.00  0.00     0.000 OA
ATOM     16   O  SGN B   1      62.287   0.245  21.0470  0.00  0.00     0.000 OA
ENDBRANCH 2 13
BRANCH 5 17
ATOM     17   C  SGN B   1      59.098  -6.684  20.6490  0.00  0.00     0.000 C
ATOM     18   O  SGN B   1      57.789  -6.595  21.2460  0.00  0.00     0.000 O
ATOM     19   S  SGN B   1      57.629  -7.267  22.6880  0.00  0.00     0.000 S
ATOM     20   O  SGN B   1      56.206  -7.253  22.9520  0.00  0.00     0.000 OA
ATOM     21   O  SGN B   1      58.172  -8.595  22.5200  0.00  0.00     0.000 OA
ATOM     22   O  SGN B   1      58.394  -6.427  23.5830  0.00  0.00     0.000 OA
ENDBRANCH 5 17
BRANCH 1 23
ATOM     23  O4  IDS B   2      58.085  -2.620  20.0190  0.00  0.00     0.000 O
BRANCH 23 27
ATOM     24  C1  IDS B   2      54.347  -0.956  19.3160  0.00  0.00     0.000 C
ATOM     25  C2  IDS B   2      55.544   0.011  19.1800  0.00  0.00     0.000 C
ATOM     26  C3  IDS B   2      56.865  -0.754  19.1630  0.00  0.00     0.000 C
ATOM     27  C4  IDS B   2      57.050  -1.675  20.3620  0.00  0.00     0.000 C
ATOM     28  C5  IDS B   2      55.701  -2.317  20.7450  0.00  0.00     0.000 C
ATOM     29  O5  IDS B   2      54.791  -2.276  19.6560  0.00  0.00     0.000 O
ATOM     30   O  IDS B   2      57.944   0.173  19.1630  0.00  0.00     0.000 O
ATOM     32  HD  IDS B   2      58.110   0.503  19.9460  0.00  0.00     0.000 HD
BRANCH 25 32
ATOM     32   O  IDS B   2      55.477   0.817  17.9360  0.00  0.00     0.000 O
ATOM     33   S  IDS B   2      55.278   2.455  17.9680  0.00  0.00     0.000 S
ATOM     34   O  IDS B   2      55.033   2.860  16.5930  0.00  0.00     0.000 OA
ATOM     35   O  IDS B   2      54.153   2.789  18.8300  0.00  0.00     0.000 OA
ATOM     36   O  IDS B   2      56.526   2.989  18.4600  0.00  0.00     0.000 OA
ENDBRANCH 25 32
BRANCH 28 37
ATOM     37   C  IDS B   2      55.721  -3.753  21.3070  0.00  0.00     0.000 C
ATOM     38   O  IDS B   2      55.473  -4.587  20.4680  0.00  0.00     0.000 OA
ATOM     39   O  IDS B   2      56.020  -4.103  22.4750  0.00  0.00     0.000 OA
ENDBRANCH 28 37
BRANCH 24 40
ATOM     40  O4  SUS B   3      53.095  -0.465  19.4170  0.00  0.00     0.000 O
BRANCH 40 44
ATOM     41  C1  SUS B   3      49.428  -2.122  18.2520  0.00  0.00     0.000 C
ATOM     42  C2  SUS B   3      50.172  -2.806  19.4160  0.00  0.00     0.000 C
ATOM     43  C3  SUS B   3      51.189  -1.831  20.0050  0.00  0.00     0.000 C
ATOM     44  C4  SUS B   3      52.101  -1.339  18.8920  0.00  0.00     0.000 C
ATOM     45  C5  SUS B   3      51.266  -0.609  17.8610  0.00  0.00     0.000 C
ATOM     46  O5  SUS B   3      50.326  -1.546  17.2970  0.00  0.00     0.000 O
BRANCH 42 49
ATOM     47   N  SUS B   3      50.032  -4.262  19.2380  0.00  0.00     0.000 N
ATOM     49  HD  SUS B   3      49.763  -4.532  18.4600  0.00  0.00     0.000 HD
ATOM     49   S  SUS B   3      49.094  -4.932  20.3500  0.00  0.00     0.000 S
ATOM     50   O  SUS B   3      47.820  -4.328  20.3310  0.00  0.00     0.000 OA
ATOM     51   O  SUS B   3      49.038  -6.343  19.7100  0.00  0.00     0.000 OA
ATOM     52   O  SUS B   3      49.780  -4.970  21.5790  0.00  0.00     0.000 OA
ENDBRANCH 42 49
BRANCH 43 53
ATOM     53   O  SUS B   3      51.980  -2.555  21.0190  0.00  0.00     0.000 O
ATOM     54   S  SUS B   3      51.939  -1.975  22.5570  0.00  0.00     0.000 S
ATOM     55   O  SUS B   3      50.616  -2.257  23.0940  0.00  0.00     0.000 OA
ATOM     56   O  SUS B   3      53.009  -2.689  23.2300  0.00  0.00     0.000 OA
ATOM     57   O  SUS B   3      52.178  -0.532  22.4620  0.00  0.00     0.000 OA
ENDBRANCH 43 53
BRANCH 45 58
ATOM     58   C  SUS B   3      52.119  -0.002  16.7680  0.00  0.00     0.000 C
ATOM     59   S  SUS B   3      52.364   0.129  14.2170  0.00  0.00     0.000 S
ATOM     60   O  SUS B   3      51.503  -0.246  15.4920  0.00  0.00     0.000 O
ATOM     61   O  SUS B   3      53.320  -0.952  14.0740  0.00  0.00     0.000 OA
ATOM     62   O  SUS B   3      51.350   0.113  13.1960  0.00  0.00     0.000 OA
ATOM     63   O  SUS B   3      52.924   1.403  14.4980  0.00  0.00     0.000 OA
ENDBRANCH 45 58
BRANCH 41 64
ATOM     64  O4  IDS B   4      48.422  -1.280  18.6570  0.00  0.00     0.000 O
BRANCH 64 68
ATOM     65  C1  IDS B   4      45.076   0.129  18.9630  0.00  0.00     0.000 C
ATOM     66  C2  IDS B   4      45.317  -1.357  19.2530  0.00  0.00     0.000 C
ATOM     67  C3  IDS B   4      46.163  -2.071  18.2120  0.00  0.00     0.000 C
ATOM     68  C4  IDS B   4      47.325  -1.230  17.7190  0.00  0.00     0.000 C
ATOM     69  C5  IDS B   4      46.809   0.191  17.4570  0.00  0.00     0.000 C
ATOM     70  O5  IDS B   4      46.319   0.747  18.6800  0.00  0.00     0.000 O
ATOM     71   O  IDS B   4      45.313  -2.392  17.1300  0.00  0.00     0.000 O
ATOM     73  HD  IDS B   4      45.499  -2.165  17.9450  0.00  0.00     0.000 HD
BRANCH 66 73
ATOM     73   O  IDS B   4      46.064  -1.478  20.5130  0.00  0.00     0.000 O
ATOM     74   S  IDS B   4      45.263  -1.990  21.8230  0.00  0.00     0.000 S
ATOM     75   O  IDS B   4      44.150  -1.084  22.0030  0.00  0.00     0.000 OA
ATOM     76   O  IDS B   4      46.274  -1.889  22.8450  0.00  0.00     0.000 OA
ATOM     77   O  IDS B   4      44.856  -3.342  21.5210  0.00  0.00     0.000 OA
ENDBRANCH 66 73
BRANCH 69 78
ATOM     78   C  IDS B   4      47.803   1.102  16.7500  0.00  0.00     0.000 C
ATOM     79   O  IDS B   4      48.504   0.630  15.8560  0.00  0.00     0.000 OA
ATOM     80   O  IDS B   4      47.798   2.316  17.0240  0.00  0.00     0.000 OA
ENDBRANCH 69 78
BRANCH 65 81
ATOM     81  O4  SGN B   5      44.100   0.254  18.0210  0.00  0.00     0.000 O
BRANCH 81 85
ATOM     82  C1  SGN B   5      40.844   2.615  16.8130  0.00  0.00     0.000 C
ATOM     83  C2  SGN B   5      42.248   3.200  16.5980  0.00  0.00     0.000 C
ATOM     84  C3  SGN B   5      43.287   2.072  16.6450  0.00  0.00     0.000 C
ATOM     85  C4  SGN B   5      43.148   1.319  17.9570  0.00  0.00     0.000 C
ATOM     86  C5  SGN B   5      41.728   0.767  18.0450  0.00  0.00     0.000 C
ATOM     87  O5  SGN B   5      40.802   1.870  18.0150  0.00  0.00     0.000 O
ATOM     88   O  SGN B   5      44.584   2.609  16.5060  0.00  0.00     0.000 O
ATOM     90  HD  SGN B   5      44.134   2.214  15.8800  0.00  0.00     0.000 HD
BRANCH 83 92
ATOM     90   N  SGN B   5      41.661   4.555  16.6050  0.00  0.00     0.000 N
ATOM     92  HD  SGN B   5      41.673   4.894  17.4020  0.00  0.00     0.000 HD
ATOM     92   S  SGN B   5      42.079   5.561  15.4350  0.00  0.00     0.000 S
ATOM     93   O  SGN B   5      41.359   6.763  15.7280  0.00  0.00     0.000 OA
ATOM     94   O  SGN B   5      43.502   5.567  15.4210  0.00  0.00     0.000 OA
ATOM     95   O  SGN B   5      41.617   4.884  14.1630  0.00  0.00     0.000 OA
ENDBRANCH 83 92
BRANCH 86 96
ATOM     96   C  SGN B   5      41.446  -0.024  19.3060  0.00  0.00     0.000 C
ATOM     97   O  SGN B   5      41.299   0.852  20.4260  0.00  0.00     0.000 O
ATOM     98   S  SGN B   5      39.985   0.640  21.3200  0.00  0.00     0.000 S
ATOM     99   O  SGN B   5      40.226   1.505  22.4500  0.00  0.00     0.000 OA
ATOM    100   O  SGN B   5      38.866   1.000  20.5260  0.00  0.00     0.000 OA
ATOM    101   O  SGN B   5      40.005  -0.747  21.6560  0.00  0.00     0.000 OA
ENDBRANCH 86 96
BRANCH 82 102
ATOM    102  O4  IDS B   6      40.429   1.849  15.7640  0.00  0.00     0.000 O
BRANCH 102 106
ATOM    103  C1  IDS B   6      38.259   0.879  13.0060  0.00  0.00     0.000 C
ATOM    104  C2  IDS B   6      38.764   2.324  13.1380  0.00  0.00     0.000 C
ATOM    105  C3  IDS B   6      38.632   2.927  14.5230  0.00  0.00     0.000 C
ATOM    106  C4  IDS B   6      38.988   1.946  15.6260  0.00  0.00     0.000 C
ATOM    107  C5  IDS B   6      38.378   0.576  15.3170  0.00  0.00     0.000 C
ATOM    108  O5  IDS B   6      38.797   0.081  14.0440  0.00  0.00     0.000 O
ATOM    109   O  IDS B   6      37.302   3.396  14.6760  0.00  0.00     0.000 O
ATOM    111  HD  IDS B   6      36.851   2.932  14.1010  0.00  0.00     0.000 HD
BRANCH 104 111
ATOM    111   O  IDS B   6      40.203   2.359  12.8340  0.00  0.00     0.000 O
ATOM    112   S  IDS B   6      40.659   2.115  11.3190  0.00  0.00     0.000 S
ATOM    113   O  IDS B   6      40.133   0.800  10.9870  0.00  0.00     0.000 OA
ATOM    114   O  IDS B   6      40.136   3.210  10.4950  0.00  0.00     0.000 OA
ATOM    115   O  IDS B   6      42.094   2.145  11.5000  0.00  0.00     0.000 OA
ENDBRANCH 104 111
BRANCH 107 116
ATOM    116   C  IDS B   6      38.771  -0.410  16.4090  0.00  0.00     0.000 C
ATOM    117   O  IDS B   6      39.533  -1.290  16.0970  0.00  0.00     0.000 OA
ATOM    118   O  IDS B   6      38.326  -0.314  17.5420  0.00  0.00     0.000 OA
ENDBRANCH 107 116
BRANCH 103 119
ATOM    119  O4  SGN B   7      36.918   1.020  12.8460  0.00  0.00     0.000 O
BRANCH 119 123
ATOM    120  C1  SGN B   7      34.528   0.925   9.4150  0.00  0.00     0.000 C
ATOM    121  C2  SGN B   7      35.883   0.195   9.3610  0.00  0.00     0.000 C
ATOM    122  C3  SGN B   7      36.435  -0.021  10.7760  0.00  0.00     0.000 C
ATOM    123  C4  SGN B   7      36.480   1.305  11.5170  0.00  0.00     0.000 C
ATOM    124  C5  SGN B   7      35.087   1.956  11.5090  0.00  0.00     0.000 C
ATOM    125  O5  SGN B   7      34.608   2.140  10.1580  0.00  0.00     0.000 O
ATOM    126   O  SGN B   7      37.736  -0.612  10.6840  0.00  0.00     0.000 O
ATOM    128  HD  SGN B   7      37.004  -0.379  10.2840  0.00  0.00     0.000 HD
BRANCH 121 130
ATOM    128   N  SGN B   7      36.005   0.135   7.9020  0.00  0.00     0.000 N
ATOM    130  HD  SGN B   7      36.844  -0.068   7.9740  0.00  0.00     0.000 HD
ATOM    130   S  SGN B   7      36.156  -1.258   7.1090  0.00  0.00     0.000 S
ATOM    131   O  SGN B   7      35.103  -2.081   7.5980  0.00  0.00     0.000 OA
ATOM    132   O  SGN B   7      36.258  -0.974   5.7230  0.00  0.00     0.000 OA
ATOM    133   O  SGN B   7      37.605  -1.671   7.5370  0.00  0.00     0.000 OA
ENDBRANCH 121 130
BRANCH 124 134
ATOM    134   C  SGN B   7      35.054   3.327  12.1180  0.00  0.00     0.000 C
ATOM    135   O  SGN B   7      34.688   4.272  11.0980  0.00  0.00     0.000 O
ATOM    136   S  SGN B   7      34.448   5.751  11.5690  0.00  0.00     0.000 S
ATOM    137   O  SGN B   7      34.200   6.522  10.3740  0.00  0.00     0.000 OA
ATOM    138   O  SGN B   7      35.665   6.135  12.2460  0.00  0.00     0.000 OA
ATOM    139   O  SGN B   7      33.290   5.619  12.4400  0.00  0.00     0.000 OA
ENDBRANCH 124 134
BRANCH 120 140
ATOM    140  O4  IDS B   8      33.364   0.467   9.8890  0.00  0.00     0.000 O
BRANCH 140 144
ATOM    141  C1  IDS B   8      31.203  -1.182  12.2490  0.00  0.00     0.000 C
ATOM    142  C2  IDS B   8      32.652  -1.690  12.0010  0.00  0.00     0.000 C
ATOM    143  C3  IDS B   8      32.991  -1.842  10.5070  0.00  0.00     0.000 C
ATOM    144  C4  IDS B   8      32.495  -0.654   9.6840  0.00  0.00     0.000 C
ATOM    145  C5  IDS B   8      31.059  -0.290  10.0900  0.00  0.00     0.000 C
ATOM    146  O5  IDS B   8      30.962  -0.007  11.4840  0.00  0.00     0.000 O
BRANCH 142 147
ATOM    147   O  IDS B   8      33.621  -0.722  12.5770  0.00  0.00     0.000 O
ATOM    148   S  IDS B   8      34.071  -0.813  14.1320  0.00  0.00     0.000 S
ATOM    149   O  IDS B   8      33.115  -1.654  14.8160  0.00  0.00     0.000 OA
ATOM    150   O  IDS B   8      35.407  -1.380  14.1160  0.00  0.00     0.000 OA
ATOM    151   O  IDS B   8      34.038   0.552  14.6200  0.00  0.00     0.000 OA
ENDBRANCH 142 147
BRANCH 145 152
ATOM    152   C  IDS B   8      30.546   0.945   9.3780  0.00  0.00     0.000 C
ATOM    153   O  IDS B   8      30.055   0.837   8.2600  0.00  0.00     0.000 OA
ATOM    154   O  IDS B   8      30.608   2.028   9.9310  0.00  0.00     0.000 OA
ENDBRANCH 145 152
ENDBRANCH 140 144
ENDBRANCH 120 140
ENDBRANCH 119 123
ENDBRANCH 103 119
ENDBRANCH 102 106
ENDBRANCH 82 102
ENDBRANCH 81 85
ENDBRANCH 65 81
ENDBRANCH 64 68
ENDBRANCH 41 64
ENDBRANCH 40 44
ENDBRANCH 24 40
ENDBRANCH 23 27
ENDBRANCH 1 23
TORSDOF 31
ENDMDL
MODEL 93
REMARK VINA RESULT:      -3.8      9.775     15.215
ROOT
ATOM      1  C1  SGN B   1      39.013   0.985  16.2980  0.00  0.00     0.000 C
ATOM      2  C2  SGN B   1      38.243  -0.019  17.1710  0.00  0.00     0.000 C
ATOM      3  C3  SGN B   1      37.649  -1.141  16.3130  0.00  0.00     0.000 C
ATOM      4  C4  SGN B   1      36.772  -0.553  15.2120  0.00  0.00     0.000 C
ATOM      5  C5  SGN B   1      37.553   0.535  14.4790  0.00  0.00     0.000 C
ATOM      6  O5  SGN B   1      38.021   1.514  15.4270  0.00  0.00     0.000 O
ATOM      7   O  SGN B   1      36.900  -2.044  17.1180  0.00  0.00     0.000 O
ATOM      9  HD  SGN B   1      36.472  -1.302  17.2410  0.00  0.00     0.000 HD
ATOM      9   O  SGN B   1      36.398  -1.578  14.3100  0.00  0.00     0.000 O
ATOM     11  HD  SGN B   1      35.969  -0.836  14.4330  0.00  0.00     0.000 HD
ENDROOT
BRANCH 2 13
ATOM     11   N  SGN B   1      38.378   0.449  18.5640  0.00  0.00     0.000 N
ATOM     13  HD  SGN B   1      39.066   0.426  18.0380  0.00  0.00     0.000 HD
ATOM     13   S  SGN B   1      39.751   0.305  19.3890  0.00  0.00     0.000 S
ATOM     14   O  SGN B   1      40.752  -0.264  18.5730  0.00  0.00     0.000 OA
ATOM     15   O  SGN B   1      40.008   1.537  20.0550  0.00  0.00     0.000 OA
ATOM     16   O  SGN B   1      39.257  -0.707  20.4690  0.00  0.00     0.000 OA
ENDBRANCH 2 13
BRANCH 5 17
ATOM     17   C  SGN B   1      36.750   1.270  13.4340  0.00  0.00     0.000 C
ATOM     18   O  SGN B   1      37.579   2.197  12.7060  0.00  0.00     0.000 O
ATOM     19   S  SGN B   1      36.965   3.656  12.4760  0.00  0.00     0.000 S
ATOM     20   O  SGN B   1      37.864   4.298  11.5410  0.00  0.00     0.000 OA
ATOM     21   O  SGN B   1      35.650   3.403  11.9340  0.00  0.00     0.000 OA
ATOM     22   O  SGN B   1      36.953   4.271  13.7850  0.00  0.00     0.000 OA
ENDBRANCH 5 17
BRANCH 1 23
ATOM     23  O4  IDS B   2      40.263   1.208  15.8000  0.00  0.00     0.000 O
BRANCH 23 27
ATOM     24  C1  IDS B   2      43.828   1.142  13.6750  0.00  0.00     0.000 C
ATOM     25  C2  IDS B   2      42.842   2.267  13.2890  0.00  0.00     0.000 C
ATOM     26  C3  IDS B   2      41.717   2.382  14.3140  0.00  0.00     0.000 C
ATOM     27  C4  IDS B   2      40.975   1.074  14.5520  0.00  0.00     0.000 C
ATOM     28  C5  IDS B   2      41.964  -0.108  14.5060  0.00  0.00     0.000 C
ATOM     29  O5  IDS B   2      43.294   0.334  14.7320  0.00  0.00     0.000 O
ATOM     30   O  IDS B   2      40.766   3.339  13.8610  0.00  0.00     0.000 O
ATOM     32  HD  IDS B   2      40.227   3.026  13.2600  0.00  0.00     0.000 HD
BRANCH 25 32
ATOM     32   O  IDS B   2      43.506   3.590  13.2010  0.00  0.00     0.000 O
ATOM     33   S  IDS B   2      43.409   4.527  11.8460  0.00  0.00     0.000 S
ATOM     34   O  IDS B   2      44.349   5.619  12.0400  0.00  0.00     0.000 OA
ATOM     35   O  IDS B   2      43.754   3.727  10.6790  0.00  0.00     0.000 OA
ATOM     36   O  IDS B   2      42.047   5.007  11.8010  0.00  0.00     0.000 OA
ENDBRANCH 25 32
BRANCH 28 37
ATOM     37   C  IDS B   2      41.690  -1.313  15.4300  0.00  0.00     0.000 C
ATOM     38   O  IDS B   2      40.686  -1.915  15.1280  0.00  0.00     0.000 OA
ATOM     39   O  IDS B   2      42.416  -1.727  16.3670  0.00  0.00     0.000 OA
ENDBRANCH 28 37
BRANCH 24 40
ATOM     40  O4  SUS B   3      44.856   0.839  12.8560  0.00  0.00     0.000 O
BRANCH 40 44
ATOM     41  C1  SUS B   3      47.494  -0.618  15.7650  0.00  0.00     0.000 C
ATOM     42  C2  SUS B   3      47.529   0.896  15.4770  0.00  0.00     0.000 C
ATOM     43  C3  SUS B   3      46.229   1.307  14.7880  0.00  0.00     0.000 C
ATOM     44  C4  SUS B   3      46.035   0.446  13.5500  0.00  0.00     0.000 C
ATOM     45  C5  SUS B   3      45.924  -1.004  13.9730  0.00  0.00     0.000 C
ATOM     46  O5  SUS B   3      47.165  -1.385  14.6010  0.00  0.00     0.000 O
BRANCH 42 49
ATOM     47   N  SUS B   3      47.812   2.172  16.1560  0.00  0.00     0.000 N
ATOM     49  HD  SUS B   3      47.667   2.893  15.7010  0.00  0.00     0.000 HD
ATOM     49   S  SUS B   3      49.302   2.243  16.7390  0.00  0.00     0.000 S
ATOM     50   O  SUS B   3      50.234   2.043  15.7010  0.00  0.00     0.000 OA
ATOM     51   O  SUS B   3      49.261   3.736  17.1550  0.00  0.00     0.000 OA
ATOM     52   O  SUS B   3      49.400   1.413  17.8740  0.00  0.00     0.000 OA
ENDBRANCH 42 49
BRANCH 43 53
ATOM     53   O  SUS B   3      46.349   2.726  14.4000  0.00  0.00     0.000 O
ATOM     54   S  SUS B   3      47.264   3.066  13.0770  0.00  0.00     0.000 S
ATOM     55   O  SUS B   3      46.533   2.598  11.9080  0.00  0.00     0.000 OA
ATOM     56   O  SUS B   3      47.430   4.508  13.1260  0.00  0.00     0.000 OA
ATOM     57   O  SUS B   3      48.523   2.333  13.2440  0.00  0.00     0.000 OA
ENDBRANCH 43 53
BRANCH 45 58
ATOM     58   C  SUS B   3      45.629  -1.915  12.8020  0.00  0.00     0.000 C
ATOM     59   S  SUS B   3      46.732  -3.591  11.2020  0.00  0.00     0.000 S
ATOM     60   O  SUS B   3      46.782  -2.730  12.5300  0.00  0.00     0.000 O
ATOM     61   O  SUS B   3      47.018  -2.655  10.1310  0.00  0.00     0.000 OA
ATOM     62   O  SUS B   3      47.812  -4.511  11.4390  0.00  0.00     0.000 OA
ATOM     63   O  SUS B   3      45.436  -4.170  11.1730  0.00  0.00     0.000 OA
ENDBRANCH 45 58
BRANCH 41 64
ATOM     64  O4  IDS B   4      46.768  -0.953  16.8820  0.00  0.00     0.000 O
BRANCH 64 68
ATOM     65  C1  IDS B   4      45.320  -2.954  19.5600  0.00  0.00     0.000 C
ATOM     66  C2  IDS B   4      46.419  -1.930  19.8690  0.00  0.00     0.000 C
ATOM     67  C3  IDS B   4      47.607  -1.980  18.9230  0.00  0.00     0.000 C
ATOM     68  C4  IDS B   4      47.202  -2.195  17.4770  0.00  0.00     0.000 C
ATOM     69  C5  IDS B   4      46.134  -3.297  17.4400  0.00  0.00     0.000 C
ATOM     70  O5  IDS B   4      44.991  -2.870  18.1850  0.00  0.00     0.000 O
ATOM     71   O  IDS B   4      48.438  -3.040  19.3490  0.00  0.00     0.000 O
ATOM     73  HD  IDS B   4      47.811  -2.449  19.4330  0.00  0.00     0.000 HD
BRANCH 66 73
ATOM     73   O  IDS B   4      45.861  -0.579  19.7250  0.00  0.00     0.000 O
ATOM     74   S  IDS B   4      45.605   0.283  21.0690  0.00  0.00     0.000 S
ATOM     75   O  IDS B   4      44.736  -0.514  21.9090  0.00  0.00     0.000 OA
ATOM     76   O  IDS B   4      44.983   1.473  20.5450  0.00  0.00     0.000 OA
ATOM     77   O  IDS B   4      46.912   0.500  21.6430  0.00  0.00     0.000 OA
ENDBRANCH 66 73
BRANCH 69 78
ATOM     78   C  IDS B   4      45.781  -3.784  16.0410  0.00  0.00     0.000 C
ATOM     79   O  IDS B   4      46.645  -4.360  15.3810  0.00  0.00     0.000 OA
ATOM     80   O  IDS B   4      44.603  -3.679  15.6530  0.00  0.00     0.000 OA
ENDBRANCH 69 78
BRANCH 65 81
ATOM     81  O4  SGN B   5      45.696  -4.178  20.0260  0.00  0.00     0.000 O
BRANCH 81 85
ATOM     82  C1  SGN B   5      44.200  -7.714  21.7270  0.00  0.00     0.000 C
ATOM     83  C2  SGN B   5      44.256  -7.647  20.1930  0.00  0.00     0.000 C
ATOM     84  C3  SGN B   5      45.225  -6.537  19.7630  0.00  0.00     0.000 C
ATOM     85  C4  SGN B   5      44.801  -5.226  20.4040  0.00  0.00     0.000 C
ATOM     86  C5  SGN B   5      44.806  -5.410  21.9190  0.00  0.00     0.000 C
ATOM     87  O5  SGN B   5      43.867  -6.447  22.2620  0.00  0.00     0.000 O
ATOM     88   O  SGN B   5      45.239  -6.431  18.3570  0.00  0.00     0.000 O
ATOM     90  HD  SGN B   5      45.845  -6.821  18.8370  0.00  0.00     0.000 HD
BRANCH 83 92
ATOM     90   N  SGN B   5      43.127  -8.418  19.6380  0.00  0.00     0.000 N
ATOM     92  HD  SGN B   5      42.661  -7.936  19.0890  0.00  0.00     0.000 HD
ATOM     92   S  SGN B   5      43.407  -9.915  19.1530  0.00  0.00     0.000 S
ATOM     93   O  SGN B   5      42.139 -10.375  18.6720  0.00  0.00     0.000 OA
ATOM     94   O  SGN B   5      44.518  -9.834  18.2690  0.00  0.00     0.000 OA
ATOM     95   O  SGN B   5      43.872 -10.641  20.3970  0.00  0.00     0.000 OA
ENDBRANCH 83 92
BRANCH 86 96
ATOM     96   C  SGN B   5      44.412  -4.170  22.6950  0.00  0.00     0.000 C
ATOM     97   O  SGN B   5      43.159  -3.663  22.2300  0.00  0.00     0.000 O
ATOM     98   S  SGN B   5      42.052  -3.375  23.3550  0.00  0.00     0.000 S
ATOM     99   O  SGN B   5      41.015  -2.700  22.6140  0.00  0.00     0.000 OA
ATOM    100   O  SGN B   5      41.669  -4.625  23.9050  0.00  0.00     0.000 OA
ATOM    101   O  SGN B   5      42.715  -2.533  24.2970  0.00  0.00     0.000 OA
ENDBRANCH 86 96
BRANCH 82 102
ATOM    102  O4  IDS B   6      45.361  -8.171  22.2750  0.00  0.00     0.000 O
BRANCH 102 106
ATOM    103  C1  IDS B   6      47.486 -10.533  24.0520  0.00  0.00     0.000 C
ATOM    104  C2  IDS B   6      46.566 -11.005  22.9160  0.00  0.00     0.000 C
ATOM    105  C3  IDS B   6      45.141 -10.489  22.9860  0.00  0.00     0.000 C
ATOM    106  C4  IDS B   6      45.066  -9.031  23.4040  0.00  0.00     0.000 C
ATOM    107  C5  IDS B   6      46.040  -8.772  24.5560  0.00  0.00     0.000 C
ATOM    108  O5  IDS B   6      47.380  -9.131  24.2120  0.00  0.00     0.000 O
ATOM    109   O  IDS B   6      44.419 -11.310  23.8880  0.00  0.00     0.000 O
ATOM    111  HD  IDS B   6      45.032 -11.656  24.3920  0.00  0.00     0.000 HD
BRANCH 104 111
ATOM    111   O  IDS B   6      47.095 -10.512  21.6350  0.00  0.00     0.000 O
ATOM    112   S  IDS B   6      47.640 -11.587  20.5810  0.00  0.00     0.000 S
ATOM    113   O  IDS B   6      48.693 -12.295  21.2920  0.00  0.00     0.000 OA
ATOM    114   O  IDS B   6      46.516 -12.429  20.1540  0.00  0.00     0.000 OA
ATOM    115   O  IDS B   6      48.124 -10.686  19.5570  0.00  0.00     0.000 OA
ENDBRANCH 104 111
BRANCH 107 116
ATOM    116   C  IDS B   6      45.983  -7.300  24.9440  0.00  0.00     0.000 C
ATOM    117   O  IDS B   6      45.065  -6.960  25.6460  0.00  0.00     0.000 OA
ATOM    118   O  IDS B   6      46.824  -6.507  24.5510  0.00  0.00     0.000 OA
ENDBRANCH 107 116
BRANCH 103 119
ATOM    119  O4  SGN B   7      47.200 -11.384  25.0710  0.00  0.00     0.000 O
BRANCH 119 123
ATOM    120  C1  SGN B   7      49.496 -13.090  28.1230  0.00  0.00     0.000 C
ATOM    121  C2  SGN B   7      48.495 -11.986  28.5150  0.00  0.00     0.000 C
ATOM    122  C3  SGN B   7      47.475 -11.761  27.3910  0.00  0.00     0.000 C
ATOM    123  C4  SGN B   7      48.202 -11.497  26.0830  0.00  0.00     0.000 C
ATOM    124  C5  SGN B   7      49.178 -12.648  25.7860  0.00  0.00     0.000 C
ATOM    125  O5  SGN B   7      50.119 -12.822  26.8680  0.00  0.00     0.000 O
ATOM    126   O  SGN B   7      46.625 -10.665  27.7460  0.00  0.00     0.000 O
ATOM    128  HD  SGN B   7      47.234 -11.231  27.9870  0.00  0.00     0.000 HD
BRANCH 121 130
ATOM    128   N  SGN B   7      49.105 -11.659  29.8060  0.00  0.00     0.000 N
ATOM    130  HD  SGN B   7      48.665 -10.913  29.8330  0.00  0.00     0.000 HD
ATOM    130   S  SGN B   7      48.280 -11.723  31.1870  0.00  0.00     0.000 S
ATOM    131   O  SGN B   7      47.659 -13.003  31.1910  0.00  0.00     0.000 OA
ATOM    132   O  SGN B   7      49.147 -11.343  32.2430  0.00  0.00     0.000 OA
ATOM    133   O  SGN B   7      47.324 -10.496  31.0010  0.00  0.00     0.000 OA
ENDBRANCH 121 130
BRANCH 124 134
ATOM    134   C  SGN B   7      50.028 -12.423  24.5700  0.00  0.00     0.000 C
ATOM    135   O  SGN B   7      51.212 -13.231  24.6840  0.00  0.00     0.000 O
ATOM    136   S  SGN B   7      52.165 -13.256  23.4360  0.00  0.00     0.000 S
ATOM    137   O  SGN B   7      53.318 -14.036  23.8210  0.00  0.00     0.000 OA
ATOM    138   O  SGN B   7      52.483 -11.870  23.1750  0.00  0.00     0.000 OA
ATOM    139   O  SGN B   7      51.336 -13.886  22.4210  0.00  0.00     0.000 OA
ENDBRANCH 124 134
BRANCH 120 140
ATOM    140  O4  IDS B   8      49.259 -14.397  27.9640  0.00  0.00     0.000 O
BRANCH 140 144
ATOM    141  C1  IDS B   8      47.462 -17.338  26.9230  0.00  0.00     0.000 C
ATOM    142  C2  IDS B   8      46.707 -16.081  27.4440  0.00  0.00     0.000 C
ATOM    143  C3  IDS B   8      47.281 -15.536  28.7640  0.00  0.00     0.000 C
ATOM    144  C4  IDS B   8      48.809 -15.504  28.7540  0.00  0.00     0.000 C
ATOM    145  C5  IDS B   8      49.362 -16.819  28.1850  0.00  0.00     0.000 C
ATOM    146  O5  IDS B   8      48.860 -17.080  26.8770  0.00  0.00     0.000 O
BRANCH 142 147
ATOM    147   O  IDS B   8      46.805 -14.991  26.4380  0.00  0.00     0.000 O
ATOM    148   S  IDS B   8      45.608 -14.721  25.3780  0.00  0.00     0.000 S
ATOM    149   O  IDS B   8      44.760 -15.892  25.3670  0.00  0.00     0.000 OA
ATOM    150   O  IDS B   8      44.923 -13.537  25.8610  0.00  0.00     0.000 OA
ATOM    151   O  IDS B   8      46.266 -14.517  24.1020  0.00  0.00     0.000 OA
ENDBRANCH 142 147
BRANCH 145 152
ATOM    152   C  IDS B   8      50.872 -16.809  28.0570  0.00  0.00     0.000 C
ATOM    153   O  IDS B   8      51.390 -17.090  26.9820  0.00  0.00     0.000 OA
ATOM    154   O  IDS B   8      51.556 -16.502  29.0180  0.00  0.00     0.000 OA
ENDBRANCH 145 152
ENDBRANCH 140 144
ENDBRANCH 120 140
ENDBRANCH 119 123
ENDBRANCH 103 119
ENDBRANCH 102 106
ENDBRANCH 82 102
ENDBRANCH 81 85
ENDBRANCH 65 81
ENDBRANCH 64 68
ENDBRANCH 41 64
ENDBRANCH 40 44
ENDBRANCH 24 40
ENDBRANCH 23 27
ENDBRANCH 1 23
TORSDOF 31
ENDMDL
MODEL 94
REMARK VINA RESULT:      -3.5     11.519     15.383
ROOT
ATOM      1  C1  SGN B   1      40.117  -1.541  18.6940  0.00  0.00     0.000 C
ATOM      2  C2  SGN B   1      39.517  -2.656  19.5660  0.00  0.00     0.000 C
ATOM      3  C3  SGN B   1      38.896  -3.753  18.6940  0.00  0.00     0.000 C
ATOM      4  C4  SGN B   1      37.864  -3.151  17.7460  0.00  0.00     0.000 C
ATOM      5  C5  SGN B   1      38.488  -1.962  17.0190  0.00  0.00     0.000 C
ATOM      6  O5  SGN B   1      39.002  -1.023  17.9830  0.00  0.00     0.000 O
ATOM      7   O  SGN B   1      38.303  -4.760  19.5040  0.00  0.00     0.000 O
ATOM      9  HD  SGN B   1      37.846  -4.060  19.7310  0.00  0.00     0.000 HD
ATOM      9   O  SGN B   1      37.452  -4.133  16.8140  0.00  0.00     0.000 O
ATOM     11  HD  SGN B   1      36.995  -3.433  17.0410  0.00  0.00     0.000 HD
ENDROOT
BRANCH 2 13
ATOM     11   N  SGN B   1      39.791  -2.245  20.9560  0.00  0.00     0.000 N
ATOM     13  HD  SGN B   1      40.418  -2.226  20.3600  0.00  0.00     0.000 HD
ATOM     13   S  SGN B   1      41.249  -2.386  21.6220  0.00  0.00     0.000 S
ATOM     14   O  SGN B   1      42.167  -2.890  20.6780  0.00  0.00     0.000 OA
ATOM     15   O  SGN B   1      41.547  -1.176  22.3130  0.00  0.00     0.000 OA
ATOM     16   O  SGN B   1      40.898  -3.457  22.7010  0.00  0.00     0.000 OA
ENDBRANCH 2 13
BRANCH 5 17
ATOM     17   C  SGN B   1      37.526  -1.213  16.1300  0.00  0.00     0.000 C
ATOM     18   O  SGN B   1      36.167  -1.394  16.5740  0.00  0.00     0.000 O
ATOM     19   S  SGN B   1      35.093  -1.716  15.4340  0.00  0.00     0.000 S
ATOM     20   O  SGN B   1      33.806  -1.617  16.0910  0.00  0.00     0.000 OA
ATOM     21   O  SGN B   1      35.315  -0.691  14.4410  0.00  0.00     0.000 OA
ATOM     22   O  SGN B   1      35.411  -3.052  14.9820  0.00  0.00     0.000 OA
ENDBRANCH 5 17
BRANCH 1 23
ATOM     23  O4  IDS B   2      41.285  -1.198  18.0800  0.00  0.00     0.000 O
BRANCH 23 27
ATOM     24  C1  IDS B   2      44.996   0.632  17.7430  0.00  0.00     0.000 C
ATOM     25  C2  IDS B   2      44.096   1.153  18.8850  0.00  0.00     0.000 C
ATOM     26  C3  IDS B   2      42.903   0.228  19.1060  0.00  0.00     0.000 C
ATOM     27  C4  IDS B   2      42.085  -0.020  17.8460  0.00  0.00     0.000 C
ATOM     28  C5  IDS B   2      43.018  -0.114  16.6220  0.00  0.00     0.000 C
ATOM     29  O5  IDS B   2      44.346  -0.421  17.0190  0.00  0.00     0.000 O
ATOM     30   O  IDS B   2      42.036   0.805  20.0750  0.00  0.00     0.000 O
ATOM     32  HD  IDS B   2      41.530   1.429  19.7530  0.00  0.00     0.000 HD
BRANCH 25 32
ATOM     32   O  IDS B   2      44.827   1.258  20.1720  0.00  0.00     0.000 O
ATOM     33   S  IDS B   2      44.952   2.685  20.9910  0.00  0.00     0.000 S
ATOM     34   O  IDS B   2      45.908   2.456  22.0620  0.00  0.00     0.000 OA
ATOM     35   O  IDS B   2      45.410   3.726  20.0820  0.00  0.00     0.000 OA
ATOM     36   O  IDS B   2      43.631   2.952  21.5130  0.00  0.00     0.000 OA
ENDBRANCH 25 32
BRANCH 28 37
ATOM     37   C  IDS B   2      42.617  -1.075  15.4840  0.00  0.00     0.000 C
ATOM     38   O  IDS B   2      43.500  -1.848  15.1920  0.00  0.00     0.000 OA
ATOM     39   O  IDS B   2      41.498  -1.154  14.9210  0.00  0.00     0.000 OA
ENDBRANCH 28 37
BRANCH 24 40
ATOM     40  O4  SUS B   3      46.069   1.350  17.3500  0.00  0.00     0.000 O
BRANCH 40 44
ATOM     41  C1  SUS B   3      49.775  -0.402  16.4900  0.00  0.00     0.000 C
ATOM     42  C2  SUS B   3      49.190   0.563  15.4390  0.00  0.00     0.000 C
ATOM     43  C3  SUS B   3      48.134   1.446  16.0990  0.00  0.00     0.000 C
ATOM     44  C4  SUS B   3      47.097   0.557  16.7670  0.00  0.00     0.000 C
ATOM     45  C5  SUS B   3      47.778  -0.271  17.8380  0.00  0.00     0.000 C
ATOM     46  O5  SUS B   3      48.756  -1.116  17.1980  0.00  0.00     0.000 O
BRANCH 42 49
ATOM     47   N  SUS B   3      49.938  -0.158  14.3950  0.00  0.00     0.000 N
ATOM     49  HD  SUS B   3      50.577  -0.678  14.6650  0.00  0.00     0.000 HD
ATOM     49   S  SUS B   3      50.533   0.820  13.2740  0.00  0.00     0.000 S
ATOM     50   O  SUS B   3      51.368   1.785  13.8740  0.00  0.00     0.000 OA
ATOM     51   O  SUS B   3      51.378  -0.248  12.5340  0.00  0.00     0.000 OA
ATOM     52   O  SUS B   3      49.485   1.282  12.4540  0.00  0.00     0.000 OA
ENDBRANCH 42 49
BRANCH 43 53
ATOM     53   O  SUS B   3      47.495   2.257  15.0450  0.00  0.00     0.000 O
ATOM     54   S  SUS B   3      46.480   1.479  14.0120  0.00  0.00     0.000 S
ATOM     55   O  SUS B   3      45.278   1.136  14.7590  0.00  0.00     0.000 OA
ATOM     56   O  SUS B   3      46.255   2.441  12.9490  0.00  0.00     0.000 OA
ATOM     57   O  SUS B   3      47.187   0.276  13.5630  0.00  0.00     0.000 OA
ENDBRANCH 43 53
BRANCH 45 58
ATOM     58   C  SUS B   3      46.791  -1.112  18.6170  0.00  0.00     0.000 C
ATOM     59   S  SUS B   3      45.938  -3.517  18.8900  0.00  0.00     0.000 S
ATOM     60   O  SUS B   3      47.017  -2.502  18.3300  0.00  0.00     0.000 O
ATOM     61   O  SUS B   3      44.812  -3.412  17.9820  0.00  0.00     0.000 OA
ATOM     62   O  SUS B   3      46.646  -4.762  18.7550  0.00  0.00     0.000 OA
ATOM     63   O  SUS B   3      45.684  -3.104  20.2250  0.00  0.00     0.000 OA
ENDBRANCH 45 58
BRANCH 41 64
ATOM     64  O4  IDS B   4      50.725   0.172  17.2990  0.00  0.00     0.000 O
BRANCH 64 68
ATOM     65  C1  IDS B   4      54.009   1.140  18.5470  0.00  0.00     0.000 C
ATOM     66  C2  IDS B   4      53.602   1.471  17.1060  0.00  0.00     0.000 C
ATOM     67  C3  IDS B   4      52.964   0.316  16.3520  0.00  0.00     0.000 C
ATOM     68  C4  IDS B   4      52.006  -0.490  17.2100  0.00  0.00     0.000 C
ATOM     69  C5  IDS B   4      52.669  -0.725  18.5740  0.00  0.00     0.000 C
ATOM     70  O5  IDS B   4      52.909   0.535  19.2040  0.00  0.00     0.000 O
ATOM     71   O  IDS B   4      54.011  -0.515  15.8950  0.00  0.00     0.000 O
ATOM     73  HD  IDS B   4      53.662   0.216  16.2010  0.00  0.00     0.000 HD
BRANCH 66 73
ATOM     73   O  IDS B   4      52.584   2.530  17.1330  0.00  0.00     0.000 O
ATOM     74   S  IDS B   4      53.025   4.018  16.6740  0.00  0.00     0.000 S
ATOM     75   O  IDS B   4      54.140   4.393  17.5170  0.00  0.00     0.000 OA
ATOM     76   O  IDS B   4      51.822   4.772  16.9200  0.00  0.00     0.000 OA
ATOM     77   O  IDS B   4      53.377   3.901  15.2790  0.00  0.00     0.000 OA
ENDBRANCH 66 73
BRANCH 69 78
ATOM     78   C  IDS B   4      51.928  -1.705  19.4730  0.00  0.00     0.000 C
ATOM     79   O  IDS B   4      51.469  -2.732  18.9750  0.00  0.00     0.000 OA
ATOM     80   O  IDS B   4      51.904  -1.488  20.6980  0.00  0.00     0.000 OA
ENDBRANCH 69 78
BRANCH 65 81
ATOM     81  O4  SGN B   5      55.178   0.441  18.5390  0.00  0.00     0.000 O
BRANCH 81 85
ATOM     82  C1  SGN B   5      57.912  -0.986  21.3900  0.00  0.00     0.000 C
ATOM     83  C2  SGN B   5      57.327  -2.013  20.4090  0.00  0.00     0.000 C
ATOM     84  C3  SGN B   5      56.745  -1.284  19.1890  0.00  0.00     0.000 C
ATOM     85  C4  SGN B   5      55.727  -0.259  19.6570  0.00  0.00     0.000 C
ATOM     86  C5  SGN B   5      56.427   0.715  20.6020  0.00  0.00     0.000 C
ATOM     87  O5  SGN B   5      56.934  -0.022  21.7320  0.00  0.00     0.000 O
ATOM     88   O  SGN B   5      56.155  -2.217  18.3100  0.00  0.00     0.000 O
ATOM     90  HD  SGN B   5      56.931  -1.847  18.2040  0.00  0.00     0.000 HD
BRANCH 83 92
ATOM     90   N  SGN B   5      57.111  -3.471  20.4890  0.00  0.00     0.000 N
ATOM     92  HD  SGN B   5      56.635  -3.751  19.8230  0.00  0.00     0.000 HD
ATOM     92   S  SGN B   5      58.359  -4.395  20.8670  0.00  0.00     0.000 S
ATOM     93   O  SGN B   5      57.830  -5.726  20.8550  0.00  0.00     0.000 OA
ATOM     94   O  SGN B   5      59.395  -4.032  19.9630  0.00  0.00     0.000 OA
ATOM     95   O  SGN B   5      58.778  -3.931  22.2450  0.00  0.00     0.000 OA
ENDBRANCH 83 92
BRANCH 86 96
ATOM     96   C  SGN B   5      55.530   1.809  21.1430  0.00  0.00     0.000 C
ATOM     97   O  SGN B   5      54.601   1.275  22.0890  0.00  0.00     0.000 O
ATOM     98   S  SGN B   5      54.518   2.032  23.5010  0.00  0.00     0.000 S
ATOM     99   O  SGN B   5      53.383   1.403  24.1320  0.00  0.00     0.000 OA
ATOM    100   O  SGN B   5      55.754   1.829  24.1670  0.00  0.00     0.000 OA
ATOM    101   O  SGN B   5      54.289   3.398  23.1580  0.00  0.00     0.000 OA
ENDBRANCH 86 96
BRANCH 82 102
ATOM    102  O4  IDS B   6      59.030  -0.376  20.9060  0.00  0.00     0.000 O
BRANCH 102 106
ATOM    103  C1  IDS B   6      62.567   0.488  20.8200  0.00  0.00     0.000 C
ATOM    104  C2  IDS B   6      62.118  -0.973  20.9830  0.00  0.00     0.000 C
ATOM    105  C3  IDS B   6      61.034  -1.201  22.0180  0.00  0.00     0.000 C
ATOM    106  C4  IDS B   6      59.961  -0.127  21.9900  0.00  0.00     0.000 C
ATOM    107  C5  IDS B   6      60.613   1.251  21.8430  0.00  0.00     0.000 C
ATOM    108  O5  IDS B   6      61.437   1.329  20.6790  0.00  0.00     0.000 O
ATOM    109   O  IDS B   6      61.648  -1.266  23.2940  0.00  0.00     0.000 O
ATOM    111  HD  IDS B   6      62.395  -0.840  23.1880  0.00  0.00     0.000 HD
BRANCH 104 111
ATOM    111   O  IDS B   6      61.547  -1.443  19.7120  0.00  0.00     0.000 O
ATOM    112   S  IDS B   6      62.510  -2.215  18.6930  0.00  0.00     0.000 S
ATOM    113   O  IDS B   6      63.581  -1.270  18.4140  0.00  0.00     0.000 OA
ATOM    114   O  IDS B   6      62.946  -3.466  19.3230  0.00  0.00     0.000 OA
ATOM    115   O  IDS B   6      61.588  -2.399  17.5930  0.00  0.00     0.000 OA
ENDBRANCH 104 111
BRANCH 107 116
ATOM    116   C  IDS B   6      59.527   2.318  21.7790  0.00  0.00     0.000 C
ATOM    117   O  IDS B   6      59.411   2.912  20.7370  0.00  0.00     0.000 OA
ATOM    118   O  IDS B   6      58.819   2.562  22.7430  0.00  0.00     0.000 OA
ENDBRANCH 107 116
BRANCH 103 119
ATOM    119  O4  SGN B   7      63.457   0.665  21.8300  0.00  0.00     0.000 O
BRANCH 119 123
ATOM    120  C1  SGN B   7      66.966   2.858  22.4340  0.00  0.00     0.000 C
ATOM    121  C2  SGN B   7      65.629   3.620  22.4970  0.00  0.00     0.000 C
ATOM    122  C3  SGN B   7      64.459   2.641  22.6610  0.00  0.00     0.000 C
ATOM    123  C4  SGN B   7      64.515   1.587  21.5680  0.00  0.00     0.000 C
ATOM    124  C5  SGN B   7      65.886   0.891  21.5830  0.00  0.00     0.000 C
ATOM    125  O5  SGN B   7      66.957   1.849  21.4250  0.00  0.00     0.000 O
ATOM    126   O  SGN B   7      63.229   3.373  22.6170  0.00  0.00     0.000 O
ATOM    128  HD  SGN B   7      64.094   3.390  22.6650  0.00  0.00     0.000 HD
BRANCH 121 130
ATOM    128   N  SGN B   7      66.332   4.591  23.3390  0.00  0.00     0.000 N
ATOM    130  HD  SGN B   7      66.732   4.916  22.6420  0.00  0.00     0.000 HD
ATOM    130   S  SGN B   7      65.953   6.156  23.3450  0.00  0.00     0.000 S
ATOM    131   O  SGN B   7      64.543   6.197  23.5350  0.00  0.00     0.000 OA
ATOM    132   O  SGN B   7      66.818   6.821  24.2520  0.00  0.00     0.000 OA
ATOM    133   O  SGN B   7      66.468   6.577  21.9270  0.00  0.00     0.000 OA
ENDBRANCH 121 130
BRANCH 124 134
ATOM    134   C  SGN B   7      66.082  -0.089  20.4640  0.00  0.00     0.000 C
ATOM    135   O  SGN B   7      67.475  -0.107  20.1090  0.00  0.00     0.000 O
ATOM    136   S  SGN B   7      67.915  -1.186  19.0550  0.00  0.00     0.000 S
ATOM    137   O  SGN B   7      69.312  -0.943  18.7850  0.00  0.00     0.000 OA
ATOM    138   O  SGN B   7      67.070  -0.958  17.9050  0.00  0.00     0.000 OA
ATOM    139   O  SGN B   7      67.655  -2.433  19.7570  0.00  0.00     0.000 OA
ENDBRANCH 124 134
BRANCH 120 140
ATOM    140  O4  IDS B   8      67.570   2.171  23.4100  0.00  0.00     0.000 O
BRANCH 140 144
ATOM    141  C1  IDS B   8      68.481   0.441  26.4330  0.00  0.00     0.000 C
ATOM    142  C2  IDS B   8      67.908   1.886  26.4800  0.00  0.00     0.000 C
ATOM    143  C3  IDS B   8      68.600   2.843  25.4930  0.00  0.00     0.000 C
ATOM    144  C4  IDS B   8      68.812   2.199  24.1240  0.00  0.00     0.000 C
ATOM    145  C5  IDS B   8      69.357   0.772  24.2880  0.00  0.00     0.000 C
ATOM    146  O5  IDS B   8      68.496  -0.032  25.0920  0.00  0.00     0.000 O
BRANCH 142 147
ATOM    147   O  IDS B   8      66.464   1.859  26.1270  0.00  0.00     0.000 O
ATOM    148   S  IDS B   8      65.394   2.794  26.9090  0.00  0.00     0.000 S
ATOM    149   O  IDS B   8      66.021   3.253  28.1280  0.00  0.00     0.000 OA
ATOM    150   O  IDS B   8      65.087   3.878  25.9940  0.00  0.00     0.000 OA
ATOM    151   O  IDS B   8      64.257   1.934  27.1750  0.00  0.00     0.000 OA
ENDBRANCH 142 147
BRANCH 145 152
ATOM    152   C  IDS B   8      69.495   0.044  22.9670  0.00  0.00     0.000 C
ATOM    153   O  IDS B   8      70.136   0.558  22.0570  0.00  0.00     0.000 OA
ATOM    154   O  IDS B   8      68.984  -1.054  22.8280  0.00  0.00     0.000 OA
ENDBRANCH 145 152
ENDBRANCH 140 144
ENDBRANCH 120 140
ENDBRANCH 119 123
ENDBRANCH 103 119
ENDBRANCH 102 106
ENDBRANCH 82 102
ENDBRANCH 81 85
ENDBRANCH 65 81
ENDBRANCH 64 68
ENDBRANCH 41 64
ENDBRANCH 40 44
ENDBRANCH 24 40
ENDBRANCH 23 27
ENDBRANCH 1 23
TORSDOF 31
ENDMDL
MODEL 95
REMARK VINA RESULT:      -3.5      9.055     15.057
ROOT
ATOM      1  C1  SGN B   1      37.250   1.118  14.4970  0.00  0.00     0.000 C
ATOM      2  C2  SGN B   1      36.400  -0.074  14.9660  0.00  0.00     0.000 C
ATOM      3  C3  SGN B   1      35.875  -0.872  13.7680  0.00  0.00     0.000 C
ATOM      4  C4  SGN B   1      35.103   0.043  12.8230  0.00  0.00     0.000 C
ATOM      5  C5  SGN B   1      35.954   1.272  12.5130  0.00  0.00     0.000 C
ATOM      6  O5  SGN B   1      36.343   1.912  13.7440  0.00  0.00     0.000 O
ATOM      7   O  SGN B   1      35.053  -1.947  14.2040  0.00  0.00     0.000 O
ATOM      9  HD  SGN B   1      34.620  -1.261  14.5060  0.00  0.00     0.000 HD
ATOM      9   O  SGN B   1      34.803  -0.658  11.6300  0.00  0.00     0.000 O
ATOM     11  HD  SGN B   1      34.371   0.029  11.9320  0.00  0.00     0.000 HD
ENDROOT
BRANCH 2 13
ATOM     11   N  SGN B   1      36.458   0.061  16.4340  0.00  0.00     0.000 N
ATOM     13  HD  SGN B   1      37.186   0.042  15.9650  0.00  0.00     0.000 HD
ATOM     13   S  SGN B   1      37.708  -0.469  17.2970  0.00  0.00     0.000 S
ATOM     14   O  SGN B   1      38.697  -1.001  16.4430  0.00  0.00     0.000 OA
ATOM     15   O  SGN B   1      38.065   0.539  18.2380  0.00  0.00     0.000 OA
ATOM     16   O  SGN B   1      36.973  -1.596  18.0860  0.00  0.00     0.000 OA
ENDBRANCH 2 13
BRANCH 5 17
ATOM     17   C  SGN B   1      35.251   2.309  11.6710  0.00  0.00     0.000 C
ATOM     18   O  SGN B   1      35.636   3.640  12.0670  0.00  0.00     0.000 O
ATOM     19   S  SGN B   1      34.446   4.698  12.2170  0.00  0.00     0.000 S
ATOM     20   O  SGN B   1      35.101   5.979  12.3830  0.00  0.00     0.000 OA
ATOM     21   O  SGN B   1      33.711   4.581  10.9800  0.00  0.00     0.000 OA
ATOM     22   O  SGN B   1      33.706   4.271  13.3840  0.00  0.00     0.000 OA
ENDBRANCH 5 17
BRANCH 1 23
ATOM     23  O4  IDS B   2      38.541   1.436  14.1920  0.00  0.00     0.000 O
BRANCH 23 27
ATOM     24  C1  IDS B   2      41.990   3.745  14.2260  0.00  0.00     0.000 C
ATOM     25  C2  IDS B   2      40.698   4.468  14.6680  0.00  0.00     0.000 C
ATOM     26  C3  IDS B   2      39.568   3.471  14.9040  0.00  0.00     0.000 C
ATOM     27  C4  IDS B   2      39.296   2.567  13.7090  0.00  0.00     0.000 C
ATOM     28  C5  IDS B   2      40.623   2.198  13.0160  0.00  0.00     0.000 C
ATOM     29  O5  IDS B   2      41.723   2.376  13.8960  0.00  0.00     0.000 O
ATOM     30   O  IDS B   2      38.368   4.181  15.1870  0.00  0.00     0.000 O
ATOM     32  HD  IDS B   2      37.982   4.496  14.4780  0.00  0.00     0.000 HD
BRANCH 25 32
ATOM     32   O  IDS B   2      40.887   5.237  15.9230  0.00  0.00     0.000 O
ATOM     33   S  IDS B   2      40.534   6.846  16.0220  0.00  0.00     0.000 S
ATOM     34   O  IDS B   2      41.050   7.296  17.3050  0.00  0.00     0.000 OA
ATOM     35   O  IDS B   2      41.169   7.549  14.9170  0.00  0.00     0.000 OA
ATOM     36   O  IDS B   2      39.093   6.933  15.9740  0.00  0.00     0.000 OA
ENDBRANCH 25 32
BRANCH 28 37
ATOM     37   C  IDS B   2      40.737   0.799  12.3750  0.00  0.00     0.000 C
ATOM     38   O  IDS B   2      41.569   0.106  12.9100  0.00  0.00     0.000 OA
ATOM     39   O  IDS B   2      40.032   0.335  11.4450  0.00  0.00     0.000 OA
ENDBRANCH 28 37
BRANCH 24 40
ATOM     40  O4  SUS B   3      43.086   4.463  13.9030  0.00  0.00     0.000 O
BRANCH 40 44
ATOM     41  C1  SUS B   3      45.792   2.253  16.2130  0.00  0.00     0.000 C
ATOM     42  C2  SUS B   3      45.414   3.658  16.7230  0.00  0.00     0.000 C
ATOM     43  C3  SUS B   3      44.109   4.098  16.0620  0.00  0.00     0.000 C
ATOM     44  C4  SUS B   3      44.269   4.011  14.5520  0.00  0.00     0.000 C
ATOM     45  C5  SUS B   3      44.547   2.571  14.1710  0.00  0.00     0.000 C
ATOM     46  O5  SUS B   3      45.791   2.175  14.7830  0.00  0.00     0.000 O
BRANCH 42 49
ATOM     47   N  SUS B   3      46.730   3.930  17.3260  0.00  0.00     0.000 N
ATOM     49  HD  SUS B   3      47.305   3.283  17.3070  0.00  0.00     0.000 HD
ATOM     49   S  SUS B   3      46.621   4.454  18.8360  0.00  0.00     0.000 S
ATOM     50   O  SUS B   3      45.924   3.513  19.6210  0.00  0.00     0.000 OA
ATOM     51   O  SUS B   3      48.138   4.412  19.1510  0.00  0.00     0.000 OA
ATOM     52   O  SUS B   3      46.148   5.781  18.8370  0.00  0.00     0.000 OA
ENDBRANCH 42 49
BRANCH 43 53
ATOM     53   O  SUS B   3      43.848   5.495  16.4580  0.00  0.00     0.000 O
ATOM     54   S  SUS B   3      44.708   6.667  15.6910  0.00  0.00     0.000 S
ATOM     55   O  SUS B   3      44.211   6.748  14.3240  0.00  0.00     0.000 OA
ATOM     56   O  SUS B   3      44.457   7.861  16.4780  0.00  0.00     0.000 OA
ATOM     57   O  SUS B   3      46.110   6.239  15.7210  0.00  0.00     0.000 OA
ENDBRANCH 43 53
BRANCH 45 58
ATOM     58   C  SUS B   3      44.619   2.385  12.6710  0.00  0.00     0.000 C
ATOM     59   S  SUS B   3      45.570   0.838  10.8580  0.00  0.00     0.000 S
ATOM     60   O  SUS B   3      45.216   1.111  12.3770  0.00  0.00     0.000 O
ATOM     61   O  SUS B   3      46.794   1.579  10.6150  0.00  0.00     0.000 OA
ATOM     62   O  SUS B   3      45.777  -0.585  10.8830  0.00  0.00     0.000 OA
ATOM     63   O  SUS B   3      44.439   1.275  10.1200  0.00  0.00     0.000 OA
ENDBRANCH 45 58
BRANCH 41 64
ATOM     64  O4  IDS B   4      45.107   1.237  16.8320  0.00  0.00     0.000 O
BRANCH 64 68
ATOM     65  C1  IDS B   4      44.512  -1.684  18.9270  0.00  0.00     0.000 C
ATOM     66  C2  IDS B   4      45.229  -0.456  19.5010  0.00  0.00     0.000 C
ATOM     67  C3  IDS B   4      46.326   0.104  18.6100  0.00  0.00     0.000 C
ATOM     68  C4  IDS B   4      45.949   0.104  17.1400  0.00  0.00     0.000 C
ATOM     69  C5  IDS B   4      45.298  -1.247  16.8140  0.00  0.00     0.000 C
ATOM     70  O5  IDS B   4      44.113  -1.400  17.5980  0.00  0.00     0.000 O
ATOM     71   O  IDS B   4      47.475  -0.693  18.8080  0.00  0.00     0.000 O
ATOM     73  HD  IDS B   4      46.694  -0.375  19.0040  0.00  0.00     0.000 HD
BRANCH 66 73
ATOM     73   O  IDS B   4      44.255   0.633  19.6520  0.00  0.00     0.000 O
ATOM     74   S  IDS B   4      43.680   0.936  21.1340  0.00  0.00     0.000 S
ATOM     75   O  IDS B   4      43.103  -0.303  21.6110  0.00  0.00     0.000 OA
ATOM     76   O  IDS B   4      42.713   1.971  20.8710  0.00  0.00     0.000 OA
ATOM     77   O  IDS B   4      44.819   1.370  21.9070  0.00  0.00     0.000 OA
ENDBRANCH 66 73
BRANCH 69 78
ATOM     78   C  IDS B   4      45.062  -1.491  15.3300  0.00  0.00     0.000 C
ATOM     79   O  IDS B   4      45.936  -1.159  14.5300  0.00  0.00     0.000 OA
ATOM     80   O  IDS B   4      44.041  -2.113  14.9830  0.00  0.00     0.000 OA
ENDBRANCH 69 78
BRANCH 65 81
ATOM     81  O4  SGN B   5      45.287  -2.789  19.1120  0.00  0.00     0.000 O
BRANCH 81 85
ATOM     82  C1  SGN B   5      44.890  -6.970  19.0890  0.00  0.00     0.000 C
ATOM     83  C2  SGN B   5      45.801  -6.349  18.0190  0.00  0.00     0.000 C
ATOM     84  C3  SGN B   5      46.198  -4.929  18.4440  0.00  0.00     0.000 C
ATOM     85  C4  SGN B   5      44.943  -4.115  18.7050  0.00  0.00     0.000 C
ATOM     86  C5  SGN B   5      44.136  -4.814  19.7960  0.00  0.00     0.000 C
ATOM     87  O5  SGN B   5      43.777  -6.130  19.3330  0.00  0.00     0.000 O
ATOM     88   O  SGN B   5      46.988  -4.331  17.4390  0.00  0.00     0.000 O
ATOM     90  HD  SGN B   5      47.287  -4.673  18.1760  0.00  0.00     0.000 HD
BRANCH 83 92
ATOM     90   N  SGN B   5      45.776  -7.761  17.5880  0.00  0.00     0.000 N
ATOM     92  HD  SGN B   5      44.967  -8.020  17.4190  0.00  0.00     0.000 HD
ATOM     92   S  SGN B   5      46.875  -8.244  16.5330  0.00  0.00     0.000 S
ATOM     93   O  SGN B   5      46.581  -9.629  16.3230  0.00  0.00     0.000 OA
ATOM     94   O  SGN B   5      46.799  -7.326  15.4490  0.00  0.00     0.000 OA
ATOM     95   O  SGN B   5      48.201  -8.014  17.2270  0.00  0.00     0.000 OA
ENDBRANCH 83 92
BRANCH 86 96
ATOM     96   C  SGN B   5      42.853  -4.102  20.1710  0.00  0.00     0.000 C
ATOM     97   O  SGN B   5      42.012  -3.945  19.0260  0.00  0.00     0.000 O
ATOM     98   S  SGN B   5      40.493  -4.431  19.1920  0.00  0.00     0.000 S
ATOM     99   O  SGN B   5      39.874  -3.962  17.9760  0.00  0.00     0.000 OA
ATOM    100   O  SGN B   5      40.512  -5.842  19.3410  0.00  0.00     0.000 OA
ATOM    101   O  SGN B   5      40.030  -3.754  20.3600  0.00  0.00     0.000 OA
ENDBRANCH 86 96
BRANCH 82 102
ATOM    102  O4  IDS B   6      45.551  -7.232  20.2520  0.00  0.00     0.000 O
BRANCH 102 106
ATOM    103  C1  IDS B   6      45.949  -9.872  22.7280  0.00  0.00     0.000 C
ATOM    104  C2  IDS B   6      45.306 -10.165  21.3630  0.00  0.00     0.000 C
ATOM    105  C3  IDS B   6      44.245  -9.174  20.9260  0.00  0.00     0.000 C
ATOM    106  C4  IDS B   6      44.619  -7.737  21.2430  0.00  0.00     0.000 C
ATOM    107  C5  IDS B   6      45.222  -7.656  22.6480  0.00  0.00     0.000 C
ATOM    108  O5  IDS B   6      46.352  -8.518  22.7930  0.00  0.00     0.000 O
ATOM    109   O  IDS B   6      43.025  -9.527  21.5570  0.00  0.00     0.000 O
ATOM    111  HD  IDS B   6      43.273  -9.982  22.2510  0.00  0.00     0.000 HD
BRANCH 104 111
ATOM    111   O  IDS B   6      46.344 -10.107  20.3220  0.00  0.00     0.000 O
ATOM    112   S  IDS B   6      46.723 -11.462  19.5600  0.00  0.00     0.000 S
ATOM    113   O  IDS B   6      47.156 -12.367  20.6140  0.00  0.00     0.000 OA
ATOM    114   O  IDS B   6      45.548 -11.916  18.8070  0.00  0.00     0.000 OA
ATOM    115   O  IDS B   6      47.801 -10.970  18.7300  0.00  0.00     0.000 OA
ENDBRANCH 104 111
BRANCH 107 116
ATOM    116   C  IDS B   6      45.627  -6.218  22.9410  0.00  0.00     0.000 C
ATOM    117   O  IDS B   6      44.735  -5.436  23.1560  0.00  0.00     0.000 OA
ATOM    118   O  IDS B   6      46.799  -5.877  22.9480  0.00  0.00     0.000 OA
ENDBRANCH 107 116
BRANCH 103 119
ATOM    119  O4  SGN B   7      45.063 -10.389  23.6170  0.00  0.00     0.000 O
BRANCH 119 123
ATOM    120  C1  SGN B   7      45.341 -11.054  27.7370  0.00  0.00     0.000 C
ATOM    121  C2  SGN B   7      44.268 -10.064  27.2450  0.00  0.00     0.000 C
ATOM    122  C3  SGN B   7      44.027 -10.237  25.7400  0.00  0.00     0.000 C
ATOM    123  C4  SGN B   7      45.347 -10.135  24.9940  0.00  0.00     0.000 C
ATOM    124  C5  SGN B   7      46.349 -11.154  25.5610  0.00  0.00     0.000 C
ATOM    125  O5  SGN B   7      46.546 -10.954  26.9790  0.00  0.00     0.000 O
ATOM    126   O  SGN B   7      43.100  -9.239  25.2990  0.00  0.00     0.000 O
ATOM    128  HD  SGN B   7      43.489  -9.641  25.9600  0.00  0.00     0.000 HD
BRANCH 121 130
ATOM    128   N  SGN B   7      44.073  -9.449  28.5600  0.00  0.00     0.000 N
ATOM    130  HD  SGN B   7      43.733  -8.745  28.1880  0.00  0.00     0.000 HD
ATOM    130   S  SGN B   7      42.617  -9.298  29.2310  0.00  0.00     0.000 S
ATOM    131   O  SGN B   7      42.032 -10.593  29.1470  0.00  0.00     0.000 OA
ATOM    132   O  SGN B   7      42.769  -8.660  30.4890  0.00  0.00     0.000 OA
ATOM    133   O  SGN B   7      41.993  -8.201  28.3040  0.00  0.00     0.000 OA
ENDBRANCH 121 130
BRANCH 124 134
ATOM    134   C  SGN B   7      47.722 -11.051  24.9660  0.00  0.00     0.000 C
ATOM    135   O  SGN B   7      48.339 -12.349  25.0110  0.00  0.00     0.000 O
ATOM    136   S  SGN B   7      49.729 -12.489  24.2930  0.00  0.00     0.000 S
ATOM    137   O  SGN B   7      50.190 -13.831  24.5600  0.00  0.00     0.000 OA
ATOM    138   O  SGN B   7      50.567 -11.475  24.8910  0.00  0.00     0.000 OA
ATOM    139   O  SGN B   7      49.388 -12.246  22.9000  0.00  0.00     0.000 OA
ENDBRANCH 124 134
BRANCH 120 140
ATOM    140  O4  IDS B   8      45.257 -12.386  27.8190  0.00  0.00     0.000 O
BRANCH 140 144
ATOM    141  C1  IDS B   8      44.763 -15.201  30.0090  0.00  0.00     0.000 C
ATOM    142  C2  IDS B   8      45.514 -13.930  30.4980  0.00  0.00     0.000 C
ATOM    143  C3  IDS B   8      46.604 -13.458  29.5180  0.00  0.00     0.000 C
ATOM    144  C4  IDS B   8      46.126 -13.498  28.0670  0.00  0.00     0.000 C
ATOM    145  C5  IDS B   8      45.390 -14.817  27.7880  0.00  0.00     0.000 C
ATOM    146  O5  IDS B   8      44.295 -15.008  28.6800  0.00  0.00     0.000 O
BRANCH 142 147
ATOM    147   O  IDS B   8      44.547 -12.811  30.6510  0.00  0.00     0.000 O
ATOM    148   S  IDS B   8      44.690 -11.742  31.8630  0.00  0.00     0.000 S
ATOM    149   O  IDS B   8      45.580 -12.314  32.8480  0.00  0.00     0.000 OA
ATOM    150   O  IDS B   8      45.225 -10.538  31.2550  0.00  0.00     0.000 OA
ATOM    151   O  IDS B   8      43.346 -11.570  32.3810  0.00  0.00     0.000 OA
ENDBRANCH 142 147
BRANCH 145 152
ATOM    152   C  IDS B   8      44.805 -14.874  26.3910  0.00  0.00     0.000 C
ATOM    153   O  IDS B   8      43.654 -15.265  26.2340  0.00  0.00     0.000 OA
ATOM    154   O  IDS B   8      45.476 -14.511  25.4420  0.00  0.00     0.000 OA
ENDBRANCH 145 152
ENDBRANCH 140 144
ENDBRANCH 120 140
ENDBRANCH 119 123
ENDBRANCH 103 119
ENDBRANCH 102 106
ENDBRANCH 82 102
ENDBRANCH 81 85
ENDBRANCH 65 81
ENDBRANCH 64 68
ENDBRANCH 41 64
ENDBRANCH 40 44
ENDBRANCH 24 40
ENDBRANCH 23 27
ENDBRANCH 1 23
TORSDOF 31
ENDMDL
MODEL 96
REMARK VINA RESULT:      -3.1     10.920     17.279
ROOT
ATOM      1  C1  SGN B   1      39.553  -2.260  17.3980  0.00  0.00     0.000 C
ATOM      2  C2  SGN B   1      38.178  -1.666  17.7450  0.00  0.00     0.000 C
ATOM      3  C3  SGN B   1      38.328  -0.264  18.3460  0.00  0.00     0.000 C
ATOM      4  C4  SGN B   1      39.253  -0.308  19.5580  0.00  0.00     0.000 C
ATOM      5  C5  SGN B   1      40.540  -1.036  19.1780  0.00  0.00     0.000 C
ATOM      6  O5  SGN B   1      40.219  -2.338  18.6510  0.00  0.00     0.000 O
ATOM      7   O  SGN B   1      37.057   0.264  18.7060  0.00  0.00     0.000 O
ATOM      9  HD  SGN B   1      37.102  -0.442  19.2050  0.00  0.00     0.000 HD
ATOM      9   O  SGN B   1      39.544   1.013  19.9760  0.00  0.00     0.000 O
ATOM     11  HD  SGN B   1      39.589   0.307  20.4750  0.00  0.00     0.000 HD
ENDROOT
BRANCH 2 13
ATOM     11   N  SGN B   1      37.251  -2.735  17.3290  0.00  0.00     0.000 N
ATOM     13  HD  SGN B   1      37.848  -2.433  16.7800  0.00  0.00     0.000 HD
ATOM     13   S  SGN B   1      36.808  -2.941  15.7960  0.00  0.00     0.000 S
ATOM     14   O  SGN B   1      37.468  -2.007  14.9710  0.00  0.00     0.000 OA
ATOM     15   O  SGN B   1      36.888  -4.329  15.4860  0.00  0.00     0.000 OA
ATOM     16   O  SGN B   1      35.295  -2.591  15.9530  0.00  0.00     0.000 OA
ENDBRANCH 2 13
BRANCH 5 17
ATOM     17   C  SGN B   1      41.493  -1.239  20.3300  0.00  0.00     0.000 C
ATOM     18   O  SGN B   1      40.814  -1.811  21.4650  0.00  0.00     0.000 O
ATOM     19   S  SGN B   1      41.136  -1.146  22.8840  0.00  0.00     0.000 S
ATOM     20   O  SGN B   1      40.533  -2.030  23.8580  0.00  0.00     0.000 OA
ATOM     21   O  SGN B   1      42.579  -1.121  22.9410  0.00  0.00     0.000 OA
ATOM     22   O  SGN B   1      40.526   0.164  22.8330  0.00  0.00     0.000 OA
ENDBRANCH 5 17
BRANCH 1 23
ATOM     23  O4  IDS B   2      40.447  -2.318  16.3700  0.00  0.00     0.000 O
BRANCH 23 27
ATOM     24  C1  IDS B   2      42.429   1.291  15.8450  0.00  0.00     0.000 C
ATOM     25  C2  IDS B   2      41.213   1.057  14.9210  0.00  0.00     0.000 C
ATOM     26  C3  IDS B   2      40.392  -0.140  15.3920  0.00  0.00     0.000 C
ATOM     27  C4  IDS B   2      41.209  -1.416  15.5400  0.00  0.00     0.000 C
ATOM     28  C5  IDS B   2      42.613  -1.083  16.0840  0.00  0.00     0.000 C
ATOM     29  O5  IDS B   2      42.620   0.181  16.7310  0.00  0.00     0.000 O
ATOM     30   O  IDS B   2      39.358  -0.399  14.4500  0.00  0.00     0.000 O
ATOM     32  HD  IDS B   2      39.634  -0.826  13.7490  0.00  0.00     0.000 HD
BRANCH 25 32
ATOM     32   O  IDS B   2      40.308   2.232  14.8770  0.00  0.00     0.000 O
ATOM     33   S  IDS B   2      39.755   2.853  13.4510  0.00  0.00     0.000 S
ATOM     34   O  IDS B   2      39.096   4.106  13.7840  0.00  0.00     0.000 OA
ATOM     35   O  IDS B   2      40.878   3.065  12.5480  0.00  0.00     0.000 OA
ATOM     36   O  IDS B   2      38.814   1.882  12.9420  0.00  0.00     0.000 OA
ENDBRANCH 25 32
BRANCH 28 37
ATOM     37   C  IDS B   2      43.287  -2.110  17.0170  0.00  0.00     0.000 C
ATOM     38   O  IDS B   2      43.830  -1.594  17.9660  0.00  0.00     0.000 OA
ATOM     39   O  IDS B   2      43.260  -3.360  16.9090  0.00  0.00     0.000 OA
ENDBRANCH 28 37
BRANCH 24 40
ATOM     40  O4  SUS B   3      43.316   2.265  15.5550  0.00  0.00     0.000 O
BRANCH 40 44
ATOM     41  C1  SUS B   3      45.910   4.404  18.0550  0.00  0.00     0.000 C
ATOM     42  C2  SUS B   3      46.155   2.888  17.9160  0.00  0.00     0.000 C
ATOM     43  C3  SUS B   3      45.468   2.381  16.6500  0.00  0.00     0.000 C
ATOM     44  C4  SUS B   3      43.998   2.768  16.6990  0.00  0.00     0.000 C
ATOM     45  C5  SUS B   3      43.890   4.278  16.7410  0.00  0.00     0.000 C
ATOM     46  O5  SUS B   3      44.522   4.741  17.9510  0.00  0.00     0.000 O
BRANCH 42 49
ATOM     47   N  SUS B   3      46.685   1.659  18.5310  0.00  0.00     0.000 N
ATOM     49  HD  SUS B   3      46.141   1.213  19.0360  0.00  0.00     0.000 HD
ATOM     49   S  SUS B   3      48.034   1.913  19.3560  0.00  0.00     0.000 S
ATOM     50   O  SUS B   3      47.811   2.884  20.3540  0.00  0.00     0.000 OA
ATOM     51   O  SUS B   3      48.131   0.498  19.9820  0.00  0.00     0.000 OA
ATOM     52   O  SUS B   3      49.097   2.134  18.4570  0.00  0.00     0.000 OA
ENDBRANCH 42 49
BRANCH 43 53
ATOM     53   O  SUS B   3      45.600   0.911  16.6180  0.00  0.00     0.000 O
ATOM     54   S  SUS B   3      46.487   0.265  15.3950  0.00  0.00     0.000 S
ATOM     55   O  SUS B   3      47.884   0.587  15.6520  0.00  0.00     0.000 OA
ATOM     56   O  SUS B   3      46.192  -1.156  15.4590  0.00  0.00     0.000 OA
ATOM     57   O  SUS B   3      46.015   0.898  14.1600  0.00  0.00     0.000 OA
ENDBRANCH 43 53
BRANCH 45 58
ATOM     58   C  SUS B   3      42.451   4.744  16.6910  0.00  0.00     0.000 C
ATOM     59   S  SUS B   3      40.998   6.806  16.2190  0.00  0.00     0.000 S
ATOM     60   O  SUS B   3      42.400   6.073  16.1460  0.00  0.00     0.000 O
ATOM     61   O  SUS B   3      40.877   7.259  17.5910  0.00  0.00     0.000 OA
ATOM     62   O  SUS B   3      41.212   7.887  15.2940  0.00  0.00     0.000 OA
ATOM     63   O  SUS B   3      40.042   5.838  15.8110  0.00  0.00     0.000 OA
ENDBRANCH 45 58
BRANCH 41 64
ATOM     64  O4  IDS B   4      46.735   5.172  17.2700  0.00  0.00     0.000 O
BRANCH 64 68
ATOM     65  C1  IDS B   4      49.079   7.780  16.2820  0.00  0.00     0.000 C
ATOM     66  C2  IDS B   4      49.535   6.317  16.3500  0.00  0.00     0.000 C
ATOM     67  C3  IDS B   4      49.110   5.586  17.6120  0.00  0.00     0.000 C
ATOM     68  C4  IDS B   4      47.695   5.925  18.0420  0.00  0.00     0.000 C
ATOM     69  C5  IDS B   4      47.513   7.445  17.9280  0.00  0.00     0.000 C
ATOM     70  O5  IDS B   4      47.692   7.839  16.5660  0.00  0.00     0.000 O
ATOM     71   O  IDS B   4      50.019   5.945  18.6320  0.00  0.00     0.000 O
ATOM     73  HD  IDS B   4      49.745   5.861  17.8140  0.00  0.00     0.000 HD
BRANCH 66 73
ATOM     73   O  IDS B   4      48.918   5.577  15.2410  0.00  0.00     0.000 O
ATOM     74   S  IDS B   4      49.889   4.986  14.0900  0.00  0.00     0.000 S
ATOM     75   O  IDS B   4      50.636   6.111  13.5680  0.00  0.00     0.000 OA
ATOM     76   O  IDS B   4      48.940   4.429  13.1600  0.00  0.00     0.000 OA
ATOM     77   O  IDS B   4      50.719   4.007  14.7510  0.00  0.00     0.000 OA
ENDBRANCH 66 73
BRANCH 69 78
ATOM     78   C  IDS B   4      46.219   7.971  18.5320  0.00  0.00     0.000 C
ATOM     79   O  IDS B   4      45.289   8.257  17.7790  0.00  0.00     0.000 OA
ATOM     80   O  IDS B   4      46.105   7.994  19.7720  0.00  0.00     0.000 OA
ENDBRANCH 69 78
BRANCH 65 81
ATOM     81  O4  SGN B   5      49.897   8.547  17.0550  0.00  0.00     0.000 O
BRANCH 81 85
ATOM     82  C1  SGN B   5      51.978  12.193  16.9550  0.00  0.00     0.000 C
ATOM     83  C2  SGN B   5      50.717  12.134  17.8290  0.00  0.00     0.000 C
ATOM     84  C3  SGN B   5      50.363  10.669  18.1210  0.00  0.00     0.000 C
ATOM     85  C4  SGN B   5      50.216   9.918  16.8090  0.00  0.00     0.000 C
ATOM     86  C5  SGN B   5      51.533  10.028  16.0440  0.00  0.00     0.000 C
ATOM     87  O5  SGN B   5      51.801  11.419  15.7830  0.00  0.00     0.000 O
ATOM     88   O  SGN B   5      49.173  10.604  18.8760  0.00  0.00     0.000 O
ATOM     90  HD  SGN B   5      49.973  10.510  19.1920  0.00  0.00     0.000 HD
BRANCH 83 92
ATOM     90   N  SGN B   5      51.292  13.215  18.6520  0.00  0.00     0.000 N
ATOM     92  HD  SGN B   5      52.080  13.435  18.3690  0.00  0.00     0.000 HD
ATOM     92   S  SGN B   5      50.348  14.442  19.0480  0.00  0.00     0.000 S
ATOM     93   O  SGN B   5      51.190  15.301  19.8240  0.00  0.00     0.000 OA
ATOM     94   O  SGN B   5      49.787  14.907  17.8260  0.00  0.00     0.000 OA
ATOM     95   O  SGN B   5      49.226  13.821  19.8510  0.00  0.00     0.000 OA
ENDBRANCH 83 92
BRANCH 86 96
ATOM     96   C  SGN B   5      51.538   9.310  14.7100  0.00  0.00     0.000 C
ATOM     97   O  SGN B   5      50.608   9.917  13.8100  0.00  0.00     0.000 O
ATOM     98   S  SGN B   5      51.175  10.297  12.3590  0.00  0.00     0.000 S
ATOM     99   O  SGN B   5      49.984  10.684  11.6430  0.00  0.00     0.000 OA
ATOM    100   O  SGN B   5      52.126  11.335  12.5310  0.00  0.00     0.000 OA
ATOM    101   O  SGN B   5      51.756   9.085  11.8770  0.00  0.00     0.000 OA
ENDBRANCH 86 96
BRANCH 82 102
ATOM    102  O4  IDS B   6      53.098  11.794  17.6220  0.00  0.00     0.000 O
BRANCH 102 106
ATOM    103  C1  IDS B   6      56.482  12.263  18.8820  0.00  0.00     0.000 C
ATOM    104  C2  IDS B   6      55.464  13.414  18.9170  0.00  0.00     0.000 C
ATOM    105  C3  IDS B   6      54.696  13.631  17.6270  0.00  0.00     0.000 C
ATOM    106  C4  IDS B   6      54.276  12.330  16.9670  0.00  0.00     0.000 C
ATOM    107  C5  IDS B   6      55.432  11.326  17.0200  0.00  0.00     0.000 C
ATOM    108  O5  IDS B   6      55.877  11.096  18.3580  0.00  0.00     0.000 O
ATOM    109   O  IDS B   6      55.508  14.399  16.7540  0.00  0.00     0.000 O
ATOM    111  HD  IDS B   6      56.314  14.256  17.0390  0.00  0.00     0.000 HD
BRANCH 104 111
ATOM    111   O  IDS B   6      54.441  13.119  19.9320  0.00  0.00     0.000 O
ATOM    112   S  IDS B   6      54.474  13.954  21.2980  0.00  0.00     0.000 S
ATOM    113   O  IDS B   6      55.791  13.691  21.8560  0.00  0.00     0.000 OA
ATOM    114   O  IDS B   6      54.211  15.364  20.9860  0.00  0.00     0.000 OA
ATOM    115   O  IDS B   6      53.395  13.294  22.0010  0.00  0.00     0.000 OA
ENDBRANCH 104 111
BRANCH 107 116
ATOM    116   C  IDS B   6      54.989  10.013  16.3890  0.00  0.00     0.000 C
ATOM    117   O  IDS B   6      54.685   9.124  17.1440  0.00  0.00     0.000 OA
ATOM    118   O  IDS B   6      54.954   9.870  15.1770  0.00  0.00     0.000 OA
ENDBRANCH 107 116
BRANCH 103 119
ATOM    119  O4  SGN B   7      57.573  12.817  18.2950  0.00  0.00     0.000 O
BRANCH 119 123
ATOM    120  C1  SGN B   7      61.639  11.871  18.0390  0.00  0.00     0.000 C
ATOM    121  C2  SGN B   7      60.709  11.324  16.9400  0.00  0.00     0.000 C
ATOM    122  C3  SGN B   7      59.370  12.073  16.9470  0.00  0.00     0.000 C
ATOM    123  C4  SGN B   7      58.766  12.033  18.3400  0.00  0.00     0.000 C
ATOM    124  C5  SGN B   7      59.770  12.591  19.3620  0.00  0.00     0.000 C
ATOM    125  O5  SGN B   7      61.014  11.856  19.3220  0.00  0.00     0.000 O
ATOM    126   O  SGN B   7      58.497  11.475  15.9820  0.00  0.00     0.000 O
ATOM    128  HD  SGN B   7      59.294  11.537  16.3140  0.00  0.00     0.000 HD
BRANCH 121 130
ATOM    128   N  SGN B   7      61.755  10.402  16.4920  0.00  0.00     0.000 N
ATOM    130  HD  SGN B   7      61.154   9.840  16.2210  0.00  0.00     0.000 HD
ATOM    130   S  SGN B   7      62.088  10.171  14.9340  0.00  0.00     0.000 S
ATOM    131   O  SGN B   7      62.248  11.476  14.3900  0.00  0.00     0.000 OA
ATOM    132   O  SGN B   7      63.137   9.221  14.8370  0.00  0.00     0.000 OA
ATOM    133   O  SGN B   7      60.806   9.392  14.4850  0.00  0.00     0.000 OA
ENDBRANCH 121 130
BRANCH 124 134
ATOM    134   C  SGN B   7      59.310  12.487  20.7860  0.00  0.00     0.000 C
ATOM    135   O  SGN B   7      60.433  12.119  21.6050  0.00  0.00     0.000 O
ATOM    136   S  SGN B   7      60.193  12.107  23.1570  0.00  0.00     0.000 S
ATOM    137   O  SGN B   7      61.412  11.613  23.7520  0.00  0.00     0.000 OA
ATOM    138   O  SGN B   7      59.068  11.222  23.3590  0.00  0.00     0.000 OA
ATOM    139   O  SGN B   7      59.919  13.506  23.4420  0.00  0.00     0.000 OA
ENDBRANCH 124 134
BRANCH 120 140
ATOM    140  O4  IDS B   8      62.219  13.075  18.1030  0.00  0.00     0.000 O
BRANCH 140 144
ATOM    141  C1  IDS B   8      63.323  16.464  17.5940  0.00  0.00     0.000 C
ATOM    142  C2  IDS B   8      63.370  15.425  16.4370  0.00  0.00     0.000 C
ATOM    143  C3  IDS B   8      64.020  14.091  16.8500  0.00  0.00     0.000 C
ATOM    144  C4  IDS B   8      63.539  13.619  18.2210  0.00  0.00     0.000 C
ATOM    145  C5  IDS B   8      63.540  14.791  19.2150  0.00  0.00     0.000 C
ATOM    146  O5  IDS B   8      62.741  15.876  18.7510  0.00  0.00     0.000 O
BRANCH 142 147
ATOM    147   O  IDS B   8      61.986  15.119  15.9890  0.00  0.00     0.000 O
ATOM    148   S  IDS B   8      61.403  15.726  14.6020  0.00  0.00     0.000 S
ATOM    149   O  IDS B   8      62.266  16.815  14.2040  0.00  0.00     0.000 OA
ATOM    150   O  IDS B   8      61.419  14.623  13.6590  0.00  0.00     0.000 OA
ATOM    151   O  IDS B   8      60.064  16.184  14.9190  0.00  0.00     0.000 OA
ENDBRANCH 142 147
BRANCH 145 152
ATOM    152   C  IDS B   8      62.978  14.408  20.5690  0.00  0.00     0.000 C
ATOM    153   O  IDS B   8      62.016  15.019  21.0190  0.00  0.00     0.000 OA
ATOM    154   O  IDS B   8      63.475  13.483  21.1870  0.00  0.00     0.000 OA
ENDBRANCH 145 152
ENDBRANCH 140 144
ENDBRANCH 120 140
ENDBRANCH 119 123
ENDBRANCH 103 119
ENDBRANCH 102 106
ENDBRANCH 82 102
ENDBRANCH 81 85
ENDBRANCH 65 81
ENDBRANCH 64 68
ENDBRANCH 41 64
ENDBRANCH 40 44
ENDBRANCH 24 40
ENDBRANCH 23 27
ENDBRANCH 1 23
TORSDOF 31
ENDMDL
MODEL 97
REMARK VINA RESULT:      -3.0     12.575     23.222
ROOT
ATOM      1  C1  SGN B   1      40.286  -1.478  20.6760  0.00  0.00     0.000 C
ATOM      2  C2  SGN B   1      40.427  -2.987  20.9310  0.00  0.00     0.000 C
ATOM      3  C3  SGN B   1      40.416  -3.765  19.6110  0.00  0.00     0.000 C
ATOM      4  C4  SGN B   1      39.156  -3.436  18.8170  0.00  0.00     0.000 C
ATOM      5  C5  SGN B   1      39.006  -1.919  18.7240  0.00  0.00     0.000 C
ATOM      6  O5  SGN B   1      39.017  -1.353  20.0490  0.00  0.00     0.000 O
ATOM      7   O  SGN B   1      40.502  -5.164  19.8540  0.00  0.00     0.000 O
ATOM      9  HD  SGN B   1      39.763  -4.960  20.2570  0.00  0.00     0.000 HD
ATOM      9   O  SGN B   1      39.257  -3.997  17.5210  0.00  0.00     0.000 O
ATOM     11  HD  SGN B   1      38.518  -3.793  17.9240  0.00  0.00     0.000 HD
ENDROOT
BRANCH 2 13
ATOM     11   N  SGN B   1      40.521  -3.041  22.4030  0.00  0.00     0.000 N
ATOM     13  HD  SGN B   1      41.053  -2.533  21.9460  0.00  0.00     0.000 HD
ATOM     13   S  SGN B   1      41.900  -2.767  23.1860  0.00  0.00     0.000 S
ATOM     14   O  SGN B   1      42.920  -2.435  22.2710  0.00  0.00     0.000 OA
ATOM     15   O  SGN B   1      41.630  -1.896  24.2810  0.00  0.00     0.000 OA
ATOM     16   O  SGN B   1      42.108  -4.196  23.7760  0.00  0.00     0.000 OA
ENDBRANCH 2 13
BRANCH 5 17
ATOM     17   C  SGN B   1      37.733  -1.468  18.0520  0.00  0.00     0.000 C
ATOM     18   O  SGN B   1      37.554  -2.136  16.7870  0.00  0.00     0.000 O
ATOM     19   S  SGN B   1      37.112  -1.209  15.5610  0.00  0.00     0.000 S
ATOM     20   O  SGN B   1      36.776  -2.131  14.4960  0.00  0.00     0.000 OA
ATOM     21   O  SGN B   1      35.978  -0.472  16.0670  0.00  0.00     0.000 OA
ATOM     22   O  SGN B   1      38.267  -0.387  15.2740  0.00  0.00     0.000 OA
ENDBRANCH 5 17
BRANCH 1 23
ATOM     23  O4  IDS B   2      41.050  -0.372  20.4470  0.00  0.00     0.000 O
BRANCH 23 27
ATOM     24  C1  IDS B   2      42.970   3.307  20.5310  0.00  0.00     0.000 C
ATOM     25  C2  IDS B   2      42.565   2.735  21.9070  0.00  0.00     0.000 C
ATOM     26  C3  IDS B   2      42.147   1.271  21.7880  0.00  0.00     0.000 C
ATOM     27  C4  IDS B   2      41.047   1.036  20.7620  0.00  0.00     0.000 C
ATOM     28  C5  IDS B   2      41.253   1.962  19.5460  0.00  0.00     0.000 C
ATOM     29  O5  IDS B   2      42.597   2.413  19.4740  0.00  0.00     0.000 O
ATOM     30   O  IDS B   2      41.664   0.818  23.0470  0.00  0.00     0.000 O
ATOM     32  HD  IDS B   2      40.851   1.068  23.2110  0.00  0.00     0.000 HD
BRANCH 25 32
ATOM     32   O  IDS B   2      43.672   2.805  22.8930  0.00  0.00     0.000 O
ATOM     33   S  IDS B   2      43.510   3.601  24.3300  0.00  0.00     0.000 S
ATOM     34   O  IDS B   2      44.840   3.651  24.9160  0.00  0.00     0.000 OA
ATOM     35   O  IDS B   2      42.984   4.936  24.0870  0.00  0.00     0.000 OA
ATOM     36   O  IDS B   2      42.614   2.792  25.1240  0.00  0.00     0.000 OA
ENDBRANCH 25 32
BRANCH 28 37
ATOM     37   C  IDS B   2      40.845   1.429  18.1570  0.00  0.00     0.000 C
ATOM     38   O  IDS B   2      41.795   1.099  17.4850  0.00  0.00     0.000 OA
ATOM     39   O  IDS B   2      39.679   1.261  17.7250  0.00  0.00     0.000 OA
ENDBRANCH 28 37
BRANCH 24 40
ATOM     40  O4  SUS B   3      43.307   4.609  20.4170  0.00  0.00     0.000 O
BRANCH 40 44
ATOM     41  C1  SUS B   3      46.255   6.449  18.0780  0.00  0.00     0.000 C
ATOM     42  C2  SUS B   3      45.133   5.696  17.3350  0.00  0.00     0.000 C
ATOM     43  C3  SUS B   3      43.939   5.521  18.2700  0.00  0.00     0.000 C
ATOM     44  C4  SUS B   3      44.408   4.833  19.5430  0.00  0.00     0.000 C
ATOM     45  C5  SUS B   3      45.437   5.711  20.2240  0.00  0.00     0.000 C
ATOM     46  O5  SUS B   3      46.567   5.850  19.3400  0.00  0.00     0.000 O
BRANCH 42 49
ATOM     47   N  SUS B   3      44.772   4.929  16.1290  0.00  0.00     0.000 N
ATOM     49  HD  SUS B   3      44.980   4.089  16.1290  0.00  0.00     0.000 HD
ATOM     49   S  SUS B   3      45.346   5.585  14.7850  0.00  0.00     0.000 S
ATOM     50   O  SUS B   3      46.749   5.702  14.8700  0.00  0.00     0.000 OA
ATOM     51   O  SUS B   3      44.951   4.425  13.8360  0.00  0.00     0.000 OA
ATOM     52   O  SUS B   3      44.611   6.749  14.4820  0.00  0.00     0.000 OA
ENDBRANCH 42 49
BRANCH 43 53
ATOM     53   O  SUS B   3      42.942   4.678  17.5820  0.00  0.00     0.000 O
ATOM     54   S  SUS B   3      41.566   5.415  17.0650  0.00  0.00     0.000 S
ATOM     55   O  SUS B   3      41.924   6.265  15.9380  0.00  0.00     0.000 OA
ATOM     56   O  SUS B   3      40.688   4.314  16.7130  0.00  0.00     0.000 OA
ATOM     57   O  SUS B   3      41.072   6.211  18.1930  0.00  0.00     0.000 OA
ENDBRANCH 43 53
BRANCH 45 58
ATOM     58   C  SUS B   3      45.879   5.139  21.5530  0.00  0.00     0.000 C
ATOM     59   S  SUS B   3      47.678   3.661  22.6330  0.00  0.00     0.000 S
ATOM     60   O  SUS B   3      47.159   4.503  21.3960  0.00  0.00     0.000 O
ATOM     61   O  SUS B   3      46.941   2.413  22.5780  0.00  0.00     0.000 OA
ATOM     62   O  SUS B   3      49.065   3.504  22.2850  0.00  0.00     0.000 OA
ATOM     63   O  SUS B   3      47.425   4.467  23.7740  0.00  0.00     0.000 OA
ENDBRANCH 45 58
BRANCH 41 64
ATOM     64  O4  IDS B   4      46.067   7.808  18.1320  0.00  0.00     0.000 O
BRANCH 64 68
ATOM     65  C1  IDS B   4      46.911  11.352  18.2060  0.00  0.00     0.000 C
ATOM     66  C2  IDS B   4      47.497  10.441  17.1200  0.00  0.00     0.000 C
ATOM     67  C3  IDS B   4      48.054   9.125  17.6370  0.00  0.00     0.000 C
ATOM     68  C4  IDS B   4      47.190   8.503  18.7180  0.00  0.00     0.000 C
ATOM     69  C5  IDS B   4      46.779   9.610  19.6970  0.00  0.00     0.000 C
ATOM     70  O5  IDS B   4      46.014  10.596  19.0000  0.00  0.00     0.000 O
ATOM     71   O  IDS B   4      49.344   9.388  18.1500  0.00  0.00     0.000 O
ATOM     73  HD  IDS B   4      48.634   9.552  17.6820  0.00  0.00     0.000 HD
BRANCH 66 73
ATOM     73   O  IDS B   4      46.426  10.071  16.1840  0.00  0.00     0.000 O
ATOM     74   S  IDS B   4      46.143  11.053  14.9300  0.00  0.00     0.000 S
ATOM     75   O  IDS B   4      45.872  12.361  15.4870  0.00  0.00     0.000 OA
ATOM     76   O  IDS B   4      44.999  10.428  14.3170  0.00  0.00     0.000 OA
ATOM     77   O  IDS B   4      47.343  11.011  14.1290  0.00  0.00     0.000 OA
ENDBRANCH 66 73
BRANCH 69 78
ATOM     78   C  IDS B   4      46.091   9.110  20.9600  0.00  0.00     0.000 C
ATOM     79   O  IDS B   4      46.767   8.937  21.9730  0.00  0.00     0.000 OA
ATOM     80   O  IDS B   4      44.852   8.995  20.9570  0.00  0.00     0.000 OA
ENDBRANCH 69 78
BRANCH 65 81
ATOM     81  O4  SGN B   5      47.924  11.986  18.8600  0.00  0.00     0.000 O
BRANCH 81 85
ATOM     82  C1  SGN B   5      46.431  15.492  20.6250  0.00  0.00     0.000 C
ATOM     83  C2  SGN B   5      46.879  15.585  19.1590  0.00  0.00     0.000 C
ATOM     84  C3  SGN B   5      46.944  14.177  18.5510  0.00  0.00     0.000 C
ATOM     85  C4  SGN B   5      47.855  13.308  19.4000  0.00  0.00     0.000 C
ATOM     86  C5  SGN B   5      47.297  13.273  20.8210  0.00  0.00     0.000 C
ATOM     87  O5  SGN B   5      47.279  14.615  21.3430  0.00  0.00     0.000 O
ATOM     88   O  SGN B   5      47.410  14.250  17.2220  0.00  0.00     0.000 O
ATOM     90  HD  SGN B   5      46.584  14.147  17.4590  0.00  0.00     0.000 HD
BRANCH 83 92
ATOM     90   N  SGN B   5      46.553  16.993  19.4580  0.00  0.00     0.000 N
ATOM     92  HD  SGN B   5      47.000  17.277  20.1440  0.00  0.00     0.000 HD
ATOM     92   S  SGN B   5      46.464  18.020  18.2370  0.00  0.00     0.000 S
ATOM     93   O  SGN B   5      46.145  19.274  18.8500  0.00  0.00     0.000 OA
ATOM     94   O  SGN B   5      47.681  17.869  17.5160  0.00  0.00     0.000 OA
ATOM     95   O  SGN B   5      45.352  17.483  17.3630  0.00  0.00     0.000 OA
ENDBRANCH 83 92
BRANCH 86 96
ATOM     96   C  SGN B   5      48.104  12.425  21.7830  0.00  0.00     0.000 C
ATOM     97   O  SGN B   5      49.503  12.578  21.5360  0.00  0.00     0.000 O
ATOM     98   S  SGN B   5      50.412  12.925  22.8110  0.00  0.00     0.000 S
ATOM     99   O  SGN B   5      51.752  12.812  22.2860  0.00  0.00     0.000 OA
ATOM    100   O  SGN B   5      50.055  14.227  23.2470  0.00  0.00     0.000 OA
ATOM    101   O  SGN B   5      50.090  11.912  23.7620  0.00  0.00     0.000 OA
ENDBRANCH 86 96
BRANCH 82 102
ATOM    102  O4  IDS B   6      45.130  15.105  20.7520  0.00  0.00     0.000 O
BRANCH 102 106
ATOM    103  C1  IDS B   6      41.951  15.811  22.3800  0.00  0.00     0.000 C
ATOM    104  C2  IDS B   6      43.031  16.897  22.2620  0.00  0.00     0.000 C
ATOM    105  C3  IDS B   6      44.429  16.458  22.6520  0.00  0.00     0.000 C
ATOM    106  C4  IDS B   6      44.766  15.063  22.1560  0.00  0.00     0.000 C
ATOM    107  C5  IDS B   6      43.571  14.132  22.3810  0.00  0.00     0.000 C
ATOM    108  O5  IDS B   6      42.387  14.622  21.7490  0.00  0.00     0.000 O
ATOM    109   O  IDS B   6      44.536  16.530  24.0640  0.00  0.00     0.000 O
ATOM    111  HD  IDS B   6      43.716  16.479  24.3380  0.00  0.00     0.000 HD
BRANCH 104 111
ATOM    111   O  IDS B   6      43.134  17.319  20.8560  0.00  0.00     0.000 O
ATOM    112   S  IDS B   6      42.826  18.850  20.5050  0.00  0.00     0.000 S
ATOM    113   O  IDS B   6      41.464  19.065  20.9690  0.00  0.00     0.000 OA
ATOM    114   O  IDS B   6      43.836  19.689  21.1610  0.00  0.00     0.000 OA
ATOM    115   O  IDS B   6      42.954  18.790  19.0650  0.00  0.00     0.000 OA
ENDBRANCH 104 111
BRANCH 107 116
ATOM    116   C  IDS B   6      43.905  12.745  21.8470  0.00  0.00     0.000 C
ATOM    117   O  IDS B   6      43.464  12.460  20.7620  0.00  0.00     0.000 OA
ATOM    118   O  IDS B   6      44.580  11.960  22.4950  0.00  0.00     0.000 OA
ENDBRANCH 107 116
BRANCH 103 119
ATOM    119  O4  SGN B   7      41.618  15.831  23.6960  0.00  0.00     0.000 O
BRANCH 119 123
ATOM    120  C1  SGN B   7      38.146  15.268  25.9590  0.00  0.00     0.000 C
ATOM    121  C2  SGN B   7      38.842  14.014  25.3970  0.00  0.00     0.000 C
ATOM    122  C3  SGN B   7      40.274  14.346  24.9570  0.00  0.00     0.000 C
ATOM    123  C4  SGN B   7      40.256  15.522  23.9950  0.00  0.00     0.000 C
ATOM    124  C5  SGN B   7      39.536  16.716  24.6440  0.00  0.00     0.000 C
ATOM    125  O5  SGN B   7      38.193  16.359  25.0410  0.00  0.00     0.000 O
ATOM    126   O  SGN B   7      40.856  13.186  24.3510  0.00  0.00     0.000 O
ATOM    128  HD  SGN B   7      40.204  13.529  24.8060  0.00  0.00     0.000 HD
BRANCH 121 130
ATOM    128   N  SGN B   7      38.415  13.205  26.5410  0.00  0.00     0.000 N
ATOM    130  HD  SGN B   7      37.584  13.357  26.3480  0.00  0.00     0.000 HD
ATOM    130   S  SGN B   7      37.763  11.743  26.3640  0.00  0.00     0.000 S
ATOM    131   O  SGN B   7      38.655  11.040  25.5070  0.00  0.00     0.000 OA
ATOM    132   O  SGN B   7      37.455  11.233  27.6510  0.00  0.00     0.000 OA
ATOM    133   O  SGN B   7      36.376  12.126  25.7470  0.00  0.00     0.000 OA
ENDBRANCH 121 130
BRANCH 124 134
ATOM    134   C  SGN B   7      39.365  17.892  23.7280  0.00  0.00     0.000 C
ATOM    135   O  SGN B   7      37.966  18.216  23.6550  0.00  0.00     0.000 O
ATOM    136   S  SGN B   7      37.589  19.519  22.8640  0.00  0.00     0.000 S
ATOM    137   O  SGN B   7      36.147  19.577  22.8390  0.00  0.00     0.000 OA
ATOM    138   O  SGN B   7      38.170  19.347  21.5520  0.00  0.00     0.000 OA
ATOM    139   O  SGN B   7      38.210  20.563  23.6650  0.00  0.00     0.000 OA
ENDBRANCH 124 134
BRANCH 120 140
ATOM    140  O4  IDS B   8      38.427  15.930  27.0860  0.00  0.00     0.000 O
BRANCH 140 144
ATOM    141  C1  IDS B   8      38.627  17.549  30.2950  0.00  0.00     0.000 C
ATOM    142  C2  IDS B   8      38.530  18.381  28.9850  0.00  0.00     0.000 C
ATOM    143  C3  IDS B   8      39.527  17.923  27.9040  0.00  0.00     0.000 C
ATOM    144  C4  IDS B   8      39.585  16.401  27.7870  0.00  0.00     0.000 C
ATOM    145  C5  IDS B   8      39.652  15.764  29.1830  0.00  0.00     0.000 C
ATOM    146  O5  IDS B   8      38.550  16.161  29.9970  0.00  0.00     0.000 O
BRANCH 142 147
ATOM    147   O  IDS B   8      37.166  18.245  28.4110  0.00  0.00     0.000 O
ATOM    148   S  IDS B   8      36.378  19.530  27.8120  0.00  0.00     0.000 S
ATOM    149   O  IDS B   8      37.042  20.718  28.3000  0.00  0.00     0.000 OA
ATOM    150   O  IDS B   8      36.459  19.396  26.3690  0.00  0.00     0.000 OA
ATOM    151   O  IDS B   8      35.024  19.419  28.3190  0.00  0.00     0.000 OA
ENDBRANCH 142 147
BRANCH 145 152
ATOM    152   C  IDS B   8      39.611  14.250  29.1370  0.00  0.00     0.000 C
ATOM    153   O  IDS B   8      40.546  13.636  28.6340  0.00  0.00     0.000 OA
ATOM    154   O  IDS B   8      38.661  13.658  29.6170  0.00  0.00     0.000 OA
ENDBRANCH 145 152
ENDBRANCH 140 144
ENDBRANCH 120 140
ENDBRANCH 119 123
ENDBRANCH 103 119
ENDBRANCH 102 106
ENDBRANCH 82 102
ENDBRANCH 81 85
ENDBRANCH 65 81
ENDBRANCH 64 68
ENDBRANCH 41 64
ENDBRANCH 40 44
ENDBRANCH 24 40
ENDBRANCH 23 27
ENDBRANCH 1 23
TORSDOF 31
ENDMDL
MODEL 98
REMARK VINA RESULT:      -2.7     15.824     22.763
ROOT
ATOM      1  C1  SGN B   1      41.604  -1.706  19.7500  0.00  0.00     0.000 C
ATOM      2  C2  SGN B   1      40.637  -1.243  18.6480  0.00  0.00     0.000 C
ATOM      3  C3  SGN B   1      41.397  -0.527  17.5250  0.00  0.00     0.000 C
ATOM      4  C4  SGN B   1      42.209   0.631  18.0950  0.00  0.00     0.000 C
ATOM      5  C5  SGN B   1      43.038   0.127  19.2750  0.00  0.00     0.000 C
ATOM      6  O5  SGN B   1      42.170  -0.498  20.2400  0.00  0.00     0.000 O
ATOM      7   O  SGN B   1      40.494  -0.060  16.5290  0.00  0.00     0.000 O
ATOM      9  HD  SGN B   1      40.222   0.371  17.2290  0.00  0.00     0.000 HD
ATOM      9   O  SGN B   1      43.058   1.151  17.0890  0.00  0.00     0.000 O
ATOM     11  HD  SGN B   1      42.786   1.582  17.7890  0.00  0.00     0.000 HD
ENDROOT
BRANCH 2 13
ATOM     11   N  SGN B   1      39.400  -1.750  19.2700  0.00  0.00     0.000 N
ATOM     13  HD  SGN B   1      40.034  -2.295  19.0430  0.00  0.00     0.000 HD
ATOM     13   S  SGN B   1      38.837  -3.230  18.9810  0.00  0.00     0.000 S
ATOM     14   O  SGN B   1      39.715  -3.925  18.1230  0.00  0.00     0.000 OA
ATOM     15   O  SGN B   1      38.459  -3.818  20.2220  0.00  0.00     0.000 OA
ATOM     16   O  SGN B   1      37.523  -2.828  18.2430  0.00  0.00     0.000 OA
ENDBRANCH 2 13
BRANCH 5 17
ATOM     17   C  SGN B   1      43.805   1.209  19.9940  0.00  0.00     0.000 C
ATOM     18   O  SGN B   1      43.089   2.460  19.9540  0.00  0.00     0.000 O
ATOM     19   S  SGN B   1      43.958   3.753  19.5920  0.00  0.00     0.000 S
ATOM     20   O  SGN B   1      43.082   4.877  19.8470  0.00  0.00     0.000 OA
ATOM     21   O  SGN B   1      45.086   3.683  20.4920  0.00  0.00     0.000 OA
ATOM     22   O  SGN B   1      44.307   3.595  18.1980  0.00  0.00     0.000 OA
ENDBRANCH 5 17
BRANCH 1 23
ATOM     23  O4  IDS B   2      42.376  -2.777  20.0920  0.00  0.00     0.000 O
BRANCH 23 27
ATOM     24  C1  IDS B   2      44.005  -6.237  21.7070  0.00  0.00     0.000 C
ATOM     25  C2  IDS B   2      43.267  -6.412  20.3610  0.00  0.00     0.000 C
ATOM     26  C3  IDS B   2      42.974  -5.058  19.7190  0.00  0.00     0.000 C
ATOM     27  C4  IDS B   2      42.213  -4.106  20.6310  0.00  0.00     0.000 C
ATOM     28  C5  IDS B   2      42.698  -4.268  22.0860  0.00  0.00     0.000 C
ATOM     29  O5  IDS B   2      43.985  -4.866  22.1270  0.00  0.00     0.000 O
ATOM     30   O  IDS B   2      42.187  -5.255  18.5500  0.00  0.00     0.000 O
ATOM     32  HD  IDS B   2      41.348  -5.389  18.7220  0.00  0.00     0.000 HD
BRANCH 25 32
ATOM     32   O  IDS B   2      44.055  -7.208  19.3880  0.00  0.00     0.000 O
ATOM     33   S  IDS B   2      45.343  -6.569  18.5790  0.00  0.00     0.000 S
ATOM     34   O  IDS B   2      45.713  -7.548  17.5690  0.00  0.00     0.000 OA
ATOM     35   O  IDS B   2      44.955  -5.303  17.9750  0.00  0.00     0.000 OA
ATOM     36   O  IDS B   2      46.385  -6.412  19.5670  0.00  0.00     0.000 OA
ENDBRANCH 25 32
BRANCH 28 37
ATOM     37   C  IDS B   2      42.716  -3.014  22.9830  0.00  0.00     0.000 C
ATOM     38   O  IDS B   2      41.924  -3.079  23.8940  0.00  0.00     0.000 OA
ATOM     39   O  IDS B   2      43.485  -2.026  22.8850  0.00  0.00     0.000 OA
ENDBRANCH 28 37
BRANCH 24 40
ATOM     40  O4  SUS B   3      44.294  -7.317  22.4610  0.00  0.00     0.000 O
BRANCH 40 44
ATOM     41  C1  SUS B   3      47.999  -9.050  23.3630  0.00  0.00     0.000 C
ATOM     42  C2  SUS B   3      47.843  -7.540  23.6330  0.00  0.00     0.000 C
ATOM     43  C3  SUS B   3      46.357  -7.195  23.7130  0.00  0.00     0.000 C
ATOM     44  C4  SUS B   3      45.673  -7.669  22.4410  0.00  0.00     0.000 C
ATOM     45  C5  SUS B   3      45.819  -9.174  22.3380  0.00  0.00     0.000 C
ATOM     46  O5  SUS B   3      47.223  -9.484  22.2410  0.00  0.00     0.000 O
BRANCH 42 49
ATOM     47   N  SUS B   3      49.271  -7.291  23.3750  0.00  0.00     0.000 N
ATOM     49  HD  SUS B   3      49.777  -7.989  23.2930  0.00  0.00     0.000 HD
ATOM     49   S  SUS B   3      49.935  -6.320  24.4630  0.00  0.00     0.000 S
ATOM     50   O  SUS B   3      49.774  -6.864  25.7540  0.00  0.00     0.000 OA
ATOM     51   O  SUS B   3      51.399  -6.483  23.9800  0.00  0.00     0.000 OA
ATOM     52   O  SUS B   3      49.485  -5.002  24.2500  0.00  0.00     0.000 OA
ENDBRANCH 42 49
BRANCH 43 53
ATOM     53   O  SUS B   3      46.237  -5.728  23.8310  0.00  0.00     0.000 O
ATOM     54   S  SUS B   3      45.703  -5.133  25.2670  0.00  0.00     0.000 S
ATOM     55   O  SUS B   3      46.767  -5.327  26.2420  0.00  0.00     0.000 OA
ATOM     56   O  SUS B   3      45.414  -3.738  24.9840  0.00  0.00     0.000 OA
ATOM     57   O  SUS B   3      44.511  -5.909  25.6210  0.00  0.00     0.000 OA
ENDBRANCH 43 53
BRANCH 45 58
ATOM     58   C  SUS B   3      45.075  -9.735  21.1460  0.00  0.00     0.000 C
ATOM     59   S  SUS B   3      45.305 -11.398  19.2050  0.00  0.00     0.000 S
ATOM     60   O  SUS B   3      45.824 -10.828  20.5890  0.00  0.00     0.000 O
ATOM     61   O  SUS B   3      45.762 -10.448  18.2080  0.00  0.00     0.000 OA
ATOM     62   O  SUS B   3      46.015 -12.648  19.1480  0.00  0.00     0.000 OA
ATOM     63   O  SUS B   3      43.896 -11.505  19.3420  0.00  0.00     0.000 OA
ENDBRANCH 45 58
BRANCH 41 64
ATOM     64  O4  IDS B   4      47.853  -9.830  24.4830  0.00  0.00     0.000 O
BRANCH 64 68
ATOM     65  C1  IDS B   4      48.477 -12.415  26.9740  0.00  0.00     0.000 C
ATOM     66  C2  IDS B   4      49.502 -11.295  26.7500  0.00  0.00     0.000 C
ATOM     67  C3  IDS B   4      49.819 -11.019  25.2900  0.00  0.00     0.000 C
ATOM     68  C4  IDS B   4      48.592 -11.069  24.3990  0.00  0.00     0.000 C
ATOM     69  C5  IDS B   4      47.766 -12.301  24.7940  0.00  0.00     0.000 C
ATOM     70  O5  IDS B   4      47.348 -12.171  26.1550  0.00  0.00     0.000 O
ATOM     71   O  IDS B   4      50.753 -11.993  24.8720  0.00  0.00     0.000 O
ATOM     73  HD  IDS B   4      50.310 -11.524  25.4490  0.00  0.00     0.000 HD
BRANCH 66 73
ATOM     73   O  IDS B   4      48.951 -10.038  27.2750  0.00  0.00     0.000 O
ATOM     74   S  IDS B   4      49.482  -9.521  28.7140  0.00  0.00     0.000 S
ATOM     75   O  IDS B   4      49.229 -10.593  29.6530  0.00  0.00     0.000 OA
ATOM     76   O  IDS B   4      48.668  -8.351  28.9260  0.00  0.00     0.000 OA
ATOM     77   O  IDS B   4      50.886  -9.243  28.5290  0.00  0.00     0.000 OA
ENDBRANCH 66 73
BRANCH 69 78
ATOM     78   C  IDS B   4      46.615 -12.616  23.8480  0.00  0.00     0.000 C
ATOM     79   O  IDS B   4      46.855 -13.227  22.8070  0.00  0.00     0.000 OA
ATOM     80   O  IDS B   4      45.456 -12.340  24.2080  0.00  0.00     0.000 OA
ENDBRANCH 69 78
BRANCH 65 81
ATOM     81  O4  SGN B   5      49.089 -13.624  26.8320  0.00  0.00     0.000 O
BRANCH 81 85
ATOM     82  C1  SGN B   5      46.940 -16.437  29.0910  0.00  0.00     0.000 C
ATOM     83  C2  SGN B   5      48.124 -15.744  29.7830  0.00  0.00     0.000 C
ATOM     84  C3  SGN B   5      48.485 -14.462  29.0200  0.00  0.00     0.000 C
ATOM     85  C4  SGN B   5      48.760 -14.805  27.5670  0.00  0.00     0.000 C
ATOM     86  C5  SGN B   5      47.512 -15.463  26.9850  0.00  0.00     0.000 C
ATOM     87  O5  SGN B   5      47.235 -16.666  27.7270  0.00  0.00     0.000 O
ATOM     88   O  SGN B   5      49.607 -13.849  29.6170  0.00  0.00     0.000 O
ATOM     90  HD  SGN B   5      48.785 -13.598  29.7190  0.00  0.00     0.000 HD
BRANCH 83 92
ATOM     90   N  SGN B   5      47.518 -15.822  31.1270  0.00  0.00     0.000 N
ATOM     92  HD  SGN B   5      46.678 -16.027  31.0780  0.00  0.00     0.000 HD
ATOM     92   S  SGN B   5      48.333 -16.578  32.2750  0.00  0.00     0.000 S
ATOM     93   O  SGN B   5      47.489 -16.485  33.4290  0.00  0.00     0.000 OA
ATOM     94   O  SGN B   5      48.668 -17.852  31.7370  0.00  0.00     0.000 OA
ATOM     95   O  SGN B   5      49.620 -15.794  32.4130  0.00  0.00     0.000 OA
ENDBRANCH 83 92
BRANCH 86 96
ATOM     96   C  SGN B   5      47.638 -15.851  25.5260  0.00  0.00     0.000 C
ATOM     97   O  SGN B   5      48.064 -17.210  25.4030  0.00  0.00     0.000 O
ATOM     98   S  SGN B   5      47.188 -18.139  24.4330  0.00  0.00     0.000 S
ATOM     99   O  SGN B   5      47.969 -19.351  24.3620  0.00  0.00     0.000 OA
ATOM    100   O  SGN B   5      45.910 -18.293  25.0290  0.00  0.00     0.000 OA
ATOM    101   O  SGN B   5      47.144 -17.423  23.2000  0.00  0.00     0.000 OA
ENDBRANCH 86 96
BRANCH 82 102
ATOM    102  O4  IDS B   6      45.777 -15.737  29.2150  0.00  0.00     0.000 O
BRANCH 102 106
ATOM    103  C1  IDS B   6      42.230 -15.462  29.9870  0.00  0.00     0.000 C
ATOM    104  C2  IDS B   6      43.145 -16.379  30.8130  0.00  0.00     0.000 C
ATOM    105  C3  IDS B   6      44.060 -17.275  30.0010  0.00  0.00     0.000 C
ATOM    106  C4  IDS B   6      44.661 -16.565  28.8000  0.00  0.00     0.000 C
ATOM    107  C5  IDS B   6      43.586 -15.722  28.1070  0.00  0.00     0.000 C
ATOM    108  O5  IDS B   6      42.985 -14.784  29.0010  0.00  0.00     0.000 O
ATOM    109   O  IDS B   6      43.317 -18.412  29.5930  0.00  0.00     0.000 O
ATOM    111  HD  IDS B   6      42.494 -18.144  29.6230  0.00  0.00     0.000 HD
BRANCH 104 111
ATOM    111   O  IDS B   6      44.041 -15.550  31.6330  0.00  0.00     0.000 O
ATOM    112   S  IDS B   6      43.924 -15.661  33.2260  0.00  0.00     0.000 S
ATOM    113   O  IDS B   6      42.544 -15.304  33.5170  0.00  0.00     0.000 OA
ATOM    114   O  IDS B   6      44.301 -17.022  33.6250  0.00  0.00     0.000 OA
ATOM    115   O  IDS B   6      44.885 -14.648  33.6030  0.00  0.00     0.000 OA
ENDBRANCH 104 111
BRANCH 107 116
ATOM    116   C  IDS B   6      44.207 -14.986  26.9260  0.00  0.00     0.000 C
ATOM    117   O  IDS B   6      44.624 -13.876  27.1390  0.00  0.00     0.000 OA
ATOM    118   O  IDS B   6      44.267 -15.497  25.8190  0.00  0.00     0.000 OA
ENDBRANCH 107 116
BRANCH 103 119
ATOM    119  O4  SGN B   7      41.188 -16.265  29.6520  0.00  0.00     0.000 O
BRANCH 119 123
ATOM    120  C1  SGN B   7      37.137 -15.412  30.2470  0.00  0.00     0.000 C
ATOM    121  C2  SGN B   7      37.541 -16.056  28.9070  0.00  0.00     0.000 C
ATOM    122  C3  SGN B   7      38.947 -16.663  29.0040  0.00  0.00     0.000 C
ATOM    123  C4  SGN B   7      39.926 -15.613  29.5030  0.00  0.00     0.000 C
ATOM    124  C5  SGN B   7      39.432 -15.029  30.8360  0.00  0.00     0.000 C
ATOM    125  O5  SGN B   7      38.107 -14.468  30.6980  0.00  0.00     0.000 O
ATOM    126   O  SGN B   7      39.328 -17.164  27.7180  0.00  0.00     0.000 O
ATOM    128  HD  SGN B   7      38.705 -16.845  28.2280  0.00  0.00     0.000 HD
BRANCH 121 130
ATOM    128   N  SGN B   7      36.128 -16.437  28.8390  0.00  0.00     0.000 N
ATOM    130  HD  SGN B   7      35.929 -15.663  28.5050  0.00  0.00     0.000 HD
ATOM    130   S  SGN B   7      35.395 -16.773  27.4450  0.00  0.00     0.000 S
ATOM    131   O  SGN B   7      36.242 -17.716  26.7970  0.00  0.00     0.000 OA
ATOM    132   O  SGN B   7      34.041 -17.095  27.7200  0.00  0.00     0.000 OA
ATOM    133   O  SGN B   7      35.340 -15.345  26.8050  0.00  0.00     0.000 OA
ENDBRANCH 121 130
BRANCH 124 134
ATOM    134   C  SGN B   7      40.274 -13.899  31.3530  0.00  0.00     0.000 C
ATOM    135   O  SGN B   7      39.403 -12.838  31.7800  0.00  0.00     0.000 O
ATOM    136   S  SGN B   7      40.086 -11.619  32.4980  0.00  0.00     0.000 S
ATOM    137   O  SGN B   7      39.042 -10.650  32.7340  0.00  0.00     0.000 OA
ATOM    138   O  SGN B   7      41.093 -11.150  31.5720  0.00  0.00     0.000 OA
ATOM    139   O  SGN B   7      40.616 -12.226  33.7080  0.00  0.00     0.000 OA
ENDBRANCH 124 134
BRANCH 120 140
ATOM    140  O4  IDS B   8      36.883 -16.022  31.4100  0.00  0.00     0.000 O
BRANCH 140 144
ATOM    141  C1  IDS B   8      36.551 -18.207  34.2520  0.00  0.00     0.000 C
ATOM    142  C2  IDS B   8      35.961 -18.600  32.8680  0.00  0.00     0.000 C
ATOM    143  C3  IDS B   8      35.129 -17.474  32.2250  0.00  0.00     0.000 C
ATOM    144  C4  IDS B   8      35.811 -16.113  32.3550  0.00  0.00     0.000 C
ATOM    145  C5  IDS B   8      36.347 -15.924  33.7820  0.00  0.00     0.000 C
ATOM    146  O5  IDS B   8      37.244 -16.969  34.1510  0.00  0.00     0.000 O
BRANCH 142 147
ATOM    147   O  IDS B   8      37.068 -18.920  31.9290  0.00  0.00     0.000 O
ATOM    148   S  IDS B   8      36.917 -20.105  30.8310  0.00  0.00     0.000 S
ATOM    149   O  IDS B   8      35.796 -20.928  31.2260  0.00  0.00     0.000 OA
ATOM    150   O  IDS B   8      36.702 -19.433  29.5630  0.00  0.00     0.000 OA
ATOM    151   O  IDS B   8      38.169 -20.835  30.8840  0.00  0.00     0.000 OA
ENDBRANCH 142 147
BRANCH 145 152
ATOM    152   C  IDS B   8      37.122 -14.632  33.9480  0.00  0.00     0.000 C
ATOM    153   O  IDS B   8      38.295 -14.672  34.3010  0.00  0.00     0.000 OA
ATOM    154   O  IDS B   8      36.577 -13.569  33.7090  0.00  0.00     0.000 OA
ENDBRANCH 145 152
ENDBRANCH 140 144
ENDBRANCH 120 140
ENDBRANCH 119 123
ENDBRANCH 103 119
ENDBRANCH 102 106
ENDBRANCH 82 102
ENDBRANCH 81 85
ENDBRANCH 65 81
ENDBRANCH 64 68
ENDBRANCH 41 64
ENDBRANCH 40 44
ENDBRANCH 24 40
ENDBRANCH 23 27
ENDBRANCH 1 23
TORSDOF 31
ENDMDL
MODEL 99
REMARK VINA RESULT:      -2.4     40.682     45.434
ROOT
ATOM      1  C1  SGN B   1       4.400  -9.417   7.2170  0.00  0.00     0.000 C
ATOM      2  C2  SGN B   1       5.170  -8.336   6.4400  0.00  0.00     0.000 C
ATOM      3  C3  SGN B   1       4.322  -7.791   5.2860  0.00  0.00     0.000 C
ATOM      4  C4  SGN B   1       3.870  -8.931   4.3800  0.00  0.00     0.000 C
ATOM      5  C5  SGN B   1       3.243 -10.030   5.2360  0.00  0.00     0.000 C
ATOM      6  O5  SGN B   1       4.177 -10.438   6.2550  0.00  0.00     0.000 O
ATOM      7   O  SGN B   1       5.053  -6.823   4.5420  0.00  0.00     0.000 O
ATOM      9  HD  SGN B   1       5.543  -7.530   4.4400  0.00  0.00     0.000 HD
ATOM      9   O  SGN B   1       2.926  -8.444   3.4440  0.00  0.00     0.000 O
ATOM     11  HD  SGN B   1       3.416  -9.151   3.3420  0.00  0.00     0.000 HD
ENDROOT
BRANCH 2 13
ATOM     11   N  SGN B   1       6.468  -8.205   7.1280  0.00  0.00     0.000 N
ATOM     13  HD  SGN B   1       5.729  -8.217   7.5810  0.00  0.00     0.000 HD
ATOM     13   S  SGN B   1       6.621  -7.443   8.5370  0.00  0.00     0.000 S
ATOM     14   O  SGN B   1       5.360  -7.001   8.9890  0.00  0.00     0.000 OA
ATOM     15   O  SGN B   1       7.432  -8.241   9.3950  0.00  0.00     0.000 OA
ATOM     16   O  SGN B   1       7.500  -6.250   8.0510  0.00  0.00     0.000 OA
ENDBRANCH 2 13
BRANCH 5 17
ATOM     17   C  SGN B   1       2.854 -11.265   4.4620  0.00  0.00     0.000 C
ATOM     18   O  SGN B   1       1.806 -11.987   5.1380  0.00  0.00     0.000 O
ATOM     19   S  SGN B   1       1.998 -13.572   5.2380  0.00  0.00     0.000 S
ATOM     20   O  SGN B   1       0.733 -14.072   5.7330  0.00  0.00     0.000 OA
ATOM     21   O  SGN B   1       2.290 -13.978   3.8820  0.00  0.00     0.000 OA
ATOM     22   O  SGN B   1       3.097 -13.762   6.1590  0.00  0.00     0.000 OA
ENDBRANCH 5 17
BRANCH 1 23
ATOM     23  O4  IDS B   2       3.546  -9.549   8.2720  0.00  0.00     0.000 O
BRANCH 23 27
ATOM     24  C1  IDS B   2       2.911 -11.333  11.9660  0.00  0.00     0.000 C
ATOM     25  C2  IDS B   2       3.674 -12.192  10.9330  0.00  0.00     0.000 C
ATOM     26  C3  IDS B   2       4.110 -11.348   9.7380  0.00  0.00     0.000 C
ATOM     27  C4  IDS B   2       2.963 -10.599   9.0730  0.00  0.00     0.000 C
ATOM     28  C5  IDS B   2       1.966 -10.106  10.1410  0.00  0.00     0.000 C
ATOM     29  O5  IDS B   2       2.580 -10.049  11.4200  0.00  0.00     0.000 O
ATOM     30   O  IDS B   2       4.696 -12.195   8.7560  0.00  0.00     0.000 O
ATOM     32  HD  IDS B   2       4.112 -12.622   8.2800  0.00  0.00     0.000 HD
BRANCH 25 32
ATOM     32   O  IDS B   2       4.891 -12.814  11.5100  0.00  0.00     0.000 O
ATOM     33   S  IDS B   2       5.075 -14.452  11.5960  0.00  0.00     0.000 S
ATOM     34   O  IDS B   2       6.259 -14.684  12.4090  0.00  0.00     0.000 OA
ATOM     35   O  IDS B   2       3.890 -15.041  12.2020  0.00  0.00     0.000 OA
ATOM     36   O  IDS B   2       5.276 -14.894  10.2350  0.00  0.00     0.000 OA
ENDBRANCH 25 32
BRANCH 28 37
ATOM     37   C  IDS B   2       1.244  -8.766   9.8900  0.00  0.00     0.000 C
ATOM     38   O  IDS B   2       1.383  -7.983  10.7990  0.00  0.00     0.000 OA
ATOM     39   O  IDS B   2       0.621  -8.427   8.8540  0.00  0.00     0.000 OA
ENDBRANCH 28 37
BRANCH 24 40
ATOM     40  O4  SUS B   3       2.384 -11.913  13.0640  0.00  0.00     0.000 O
BRANCH 40 44
ATOM     41  C1  SUS B   3       2.158 -10.321  16.9320  0.00  0.00     0.000 C
ATOM     42  C2  SUS B   3       0.854 -10.367  16.1110  0.00  0.00     0.000 C
ATOM     43  C3  SUS B   3       1.008 -11.378  14.9780  0.00  0.00     0.000 C
ATOM     44  C4  SUS B   3       2.240 -11.018  14.1620  0.00  0.00     0.000 C
ATOM     45  C5  SUS B   3       3.460 -11.098  15.0560  0.00  0.00     0.000 C
ATOM     46  O5  SUS B   3       3.312 -10.124  16.1080  0.00  0.00     0.000 O
BRANCH 42 49
ATOM     47   N  SUS B   3      -0.533  -9.922  15.8900  0.00  0.00     0.000 N
ATOM     49  HD  SUS B   3      -0.660  -9.357  15.2460  0.00  0.00     0.000 HD
ATOM     49   S  SUS B   3      -1.210  -9.327  17.2150  0.00  0.00     0.000 S
ATOM     50   O  SUS B   3      -0.440  -8.253  17.7050  0.00  0.00     0.000 OA
ATOM     51   O  SUS B   3      -2.504  -8.808  16.5380  0.00  0.00     0.000 OA
ATOM     52   O  SUS B   3      -1.501 -10.381  18.1040  0.00  0.00     0.000 OA
ENDBRANCH 42 49
BRANCH 43 53
ATOM     53   O  SUS B   3      -0.197 -11.298  14.1290  0.00  0.00     0.000 O
ATOM     54   S  SUS B   3      -1.131 -12.646  14.0250  0.00  0.00     0.000 S
ATOM     55   O  SUS B   3      -1.799 -12.815  15.3080  0.00  0.00     0.000 OA
ATOM     56   O  SUS B   3      -2.037 -12.362  12.9260  0.00  0.00     0.000 OA
ATOM     57   O  SUS B   3      -0.221 -13.761  13.7490  0.00  0.00     0.000 OA
ENDBRANCH 43 53
BRANCH 45 58
ATOM     58   C  SUS B   3       4.741 -10.850  14.2890  0.00  0.00     0.000 C
ATOM     59   S  SUS B   3       6.120  -8.989  13.1830  0.00  0.00     0.000 S
ATOM     60   O  SUS B   3       4.943  -9.434  14.1450  0.00  0.00     0.000 O
ATOM     61   O  SUS B   3       5.595  -9.151  11.8410  0.00  0.00     0.000 OA
ATOM     62   O  SUS B   3       6.267  -7.609  13.5600  0.00  0.00     0.000 OA
ATOM     63   O  SUS B   3       7.217  -9.829  13.5120  0.00  0.00     0.000 OA
ENDBRANCH 45 58
BRANCH 41 64
ATOM     64  O4  IDS B   4       2.281 -11.350  17.8340  0.00  0.00     0.000 O
BRANCH 64 68
ATOM     65  C1  IDS B   4       3.065 -13.050  20.9590  0.00  0.00     0.000 C
ATOM     66  C2  IDS B   4       2.204 -11.781  20.9660  0.00  0.00     0.000 C
ATOM     67  C3  IDS B   4       2.752 -10.646  20.1160  0.00  0.00     0.000 C
ATOM     68  C4  IDS B   4       3.332 -11.123  18.7980  0.00  0.00     0.000 C
ATOM     69  C5  IDS B   4       4.186 -12.368  19.0750  0.00  0.00     0.000 C
ATOM     70  O5  IDS B   4       3.356 -13.397  19.6180  0.00  0.00     0.000 O
ATOM     71   O  IDS B   4       3.755 -10.002  20.8740  0.00  0.00     0.000 O
ATOM     73  HD  IDS B   4       3.067 -10.513  20.7520  0.00  0.00     0.000 HD
BRANCH 66 73
ATOM     73   O  IDS B   4       0.889 -12.098  20.3920  0.00  0.00     0.000 O
ATOM     74   S  IDS B   4      -0.389 -12.109  21.3850  0.00  0.00     0.000 S
ATOM     75   O  IDS B   4      -0.079 -13.049  22.4410  0.00  0.00     0.000 OA
ATOM     76   O  IDS B   4      -1.444 -12.542  20.5050  0.00  0.00     0.000 OA
ATOM     77   O  IDS B   4      -0.525 -10.750  21.8530  0.00  0.00     0.000 OA
ENDBRANCH 66 73
BRANCH 69 78
ATOM     78   C  IDS B   4       5.015 -12.840  17.8880  0.00  0.00     0.000 C
ATOM     79   O  IDS B   4       4.553 -13.714  17.1550  0.00  0.00     0.000 OA
ATOM     80   O  IDS B   4       6.083 -12.252  17.6360  0.00  0.00     0.000 OA
ENDBRANCH 69 78
BRANCH 65 81
ATOM     81  O4  SGN B   5       4.128 -12.881  21.7940  0.00  0.00     0.000 O
BRANCH 81 85
ATOM     82  C1  SGN B   5       7.226 -14.978  23.7010  0.00  0.00     0.000 C
ATOM     83  C2  SGN B   5       7.547 -14.346  22.3390  0.00  0.00     0.000 C
ATOM     84  C3  SGN B   5       6.507 -13.264  22.0170  0.00  0.00     0.000 C
ATOM     85  C4  SGN B   5       5.117 -13.872  22.0800  0.00  0.00     0.000 C
ATOM     86  C5  SGN B   5       4.907 -14.444  23.4800  0.00  0.00     0.000 C
ATOM     87  O5  SGN B   5       5.897 -15.463  23.7160  0.00  0.00     0.000 O
ATOM     88   O  SGN B   5       6.762 -12.719  20.7410  0.00  0.00     0.000 O
ATOM     90  HD  SGN B   5       6.966 -12.347  21.4960  0.00  0.00     0.000 HD
BRANCH 83 92
ATOM     90   N  SGN B   5       8.659 -15.312  22.2440  0.00  0.00     0.000 N
ATOM     92  HD  SGN B   5       8.392 -16.061  21.8990  0.00  0.00     0.000 HD
ATOM     92   S  SGN B   5      10.069 -14.785  21.7070  0.00  0.00     0.000 S
ATOM     93   O  SGN B   5      10.912 -15.943  21.7290  0.00  0.00     0.000 OA
ATOM     94   O  SGN B   5       9.791 -14.129  20.4750  0.00  0.00     0.000 OA
ATOM     95   O  SGN B   5      10.487 -13.724  22.7010  0.00  0.00     0.000 OA
ENDBRANCH 83 92
BRANCH 86 96
ATOM     96   C  SGN B   5       3.547 -15.076  23.6950  0.00  0.00     0.000 C
ATOM     97   O  SGN B   5       3.246 -15.158  25.0900  0.00  0.00     0.000 O
ATOM     98   S  SGN B   5       1.821 -14.576  25.5390  0.00  0.00     0.000 S
ATOM     99   O  SGN B   5       1.734 -14.981  26.9220  0.00  0.00     0.000 OA
ATOM    100   O  SGN B   5       1.849 -13.173  25.3340  0.00  0.00     0.000 OA
ATOM    101   O  SGN B   5       0.883 -15.242  24.6950  0.00  0.00     0.000 OA
ENDBRANCH 86 96
BRANCH 82 102
ATOM    102  O4  IDS B   6       7.430 -14.119  24.7400  0.00  0.00     0.000 O
BRANCH 102 106
ATOM    103  C1  IDS B   6       8.753 -12.907  27.9080  0.00  0.00     0.000 C
ATOM    104  C2  IDS B   6       9.231 -12.308  26.5760  0.00  0.00     0.000 C
ATOM    105  C3  IDS B   6       9.598 -13.323  25.5100  0.00  0.00     0.000 C
ATOM    106  C4  IDS B   6       8.633 -14.493  25.4580  0.00  0.00     0.000 C
ATOM    107  C5  IDS B   6       8.298 -14.952  26.8800  0.00  0.00     0.000 C
ATOM    108  O5  IDS B   6       7.762 -13.889  27.6700  0.00  0.00     0.000 O
ATOM    109   O  IDS B   6      10.920 -13.770  25.7630  0.00  0.00     0.000 O
ATOM    111  HD  IDS B   6      11.035 -13.612  26.6070  0.00  0.00     0.000 HD
BRANCH 104 111
ATOM    111   O  IDS B   6       8.144 -11.508  25.9920  0.00  0.00     0.000 O
ATOM    112   S  IDS B   6       8.521 -10.109  25.3100  0.00  0.00     0.000 S
ATOM    113   O  IDS B   6       9.159  -9.345  26.3710  0.00  0.00     0.000 OA
ATOM    114   O  IDS B   6       9.375 -10.375  24.1470  0.00  0.00     0.000 OA
ATOM    115   O  IDS B   6       7.191  -9.648  24.9730  0.00  0.00     0.000 OA
ENDBRANCH 104 111
BRANCH 107 116
ATOM    116   C  IDS B   6       7.301 -16.102  26.8170  0.00  0.00     0.000 C
ATOM    117   O  IDS B   6       7.721 -17.162  26.4280  0.00  0.00     0.000 OA
ATOM    118   O  IDS B   6       6.133 -15.949  27.1380  0.00  0.00     0.000 OA
ENDBRANCH 107 116
BRANCH 103 119
ATOM    119  O4  SGN B   7       9.906 -13.210  28.5570  0.00  0.00     0.000 O
BRANCH 119 123
ATOM    120  C1  SGN B   7      10.666 -13.818  32.6240  0.00  0.00     0.000 C
ATOM    121  C2  SGN B   7      10.991 -14.972  31.6570  0.00  0.00     0.000 C
ATOM    122  C3  SGN B   7      11.043 -14.464  30.2100  0.00  0.00     0.000 C
ATOM    123  C4  SGN B   7       9.756 -13.727  29.8790  0.00  0.00     0.000 C
ATOM    124  C5  SGN B   7       9.518 -12.604  30.9010  0.00  0.00     0.000 C
ATOM    125  O5  SGN B   7       9.476 -13.128  32.2480  0.00  0.00     0.000 O
ATOM    126   O  SGN B   7      11.249 -15.577  29.3320  0.00  0.00     0.000 O
ATOM    128  HD  SGN B   7      11.230 -15.273  30.1430  0.00  0.00     0.000 HD
BRANCH 121 130
ATOM    128   N  SGN B   7      11.267 -15.750  32.8680  0.00  0.00     0.000 N
ATOM    130  HD  SGN B   7      10.824 -16.421  32.5460  0.00  0.00     0.000 HD
ATOM    130   S  SGN B   7      12.314 -16.973  32.8840  0.00  0.00     0.000 S
ATOM    131   O  SGN B   7      13.500 -16.457  32.2900  0.00  0.00     0.000 OA
ATOM    132   O  SGN B   7      12.346 -17.517  34.1940  0.00  0.00     0.000 OA
ATOM    133   O  SGN B   7      11.525 -18.029  32.0370  0.00  0.00     0.000 OA
ENDBRANCH 121 130
BRANCH 124 134
ATOM    134   C  SGN B   7       8.210 -11.891  30.7270  0.00  0.00     0.000 C
ATOM    135   O  SGN B   7       7.146 -12.852  30.8320  0.00  0.00     0.000 O
ATOM    136   S  SGN B   7       5.683 -12.281  30.8300  0.00  0.00     0.000 S
ATOM    137   O  SGN B   7       4.801 -13.423  30.8380  0.00  0.00     0.000 OA
ATOM    138   O  SGN B   7       5.584 -11.500  29.6170  0.00  0.00     0.000 OA
ATOM    139   O  SGN B   7       5.651 -11.498  32.0550  0.00  0.00     0.000 OA
ENDBRANCH 124 134
BRANCH 120 140
ATOM    140  O4  IDS B   8      11.430 -12.765  32.9340  0.00  0.00     0.000 O
BRANCH 140 144
ATOM    141  C1  IDS B   8      13.047  -9.888  34.3730  0.00  0.00     0.000 C
ATOM    142  C2  IDS B   8      12.572  -9.881  32.8920  0.00  0.00     0.000 C
ATOM    143  C3  IDS B   8      13.013 -11.132  32.1100  0.00  0.00     0.000 C
ATOM    144  C4  IDS B   8      12.819 -12.412  32.9220  0.00  0.00     0.000 C
ATOM    145  C5  IDS B   8      13.325 -12.211  34.3580  0.00  0.00     0.000 C
ATOM    146  O5  IDS B   8      12.678 -11.112  34.9960  0.00  0.00     0.000 O
BRANCH 142 147
ATOM    147   O  IDS B   8      11.087  -9.836  32.8480  0.00  0.00     0.000 O
ATOM    148   S  IDS B   8      10.305  -8.495  32.3780  0.00  0.00     0.000 S
ATOM    149   O  IDS B   8      11.244  -7.398  32.4320  0.00  0.00     0.000 OA
ATOM    150   O  IDS B   8       9.840  -8.770  31.0310  0.00  0.00     0.000 OA
ATOM    151   O  IDS B   8       9.223  -8.330  33.3300  0.00  0.00     0.000 OA
ENDBRANCH 142 147
BRANCH 145 152
ATOM    152   C  IDS B   8      13.068 -13.416  35.2410  0.00  0.00     0.000 C
ATOM    153   O  IDS B   8      13.749 -14.425  35.1000  0.00  0.00     0.000 OA
ATOM    154   O  IDS B   8      12.202 -13.361  36.0960  0.00  0.00     0.000 OA
ENDBRANCH 145 152
ENDBRANCH 140 144
ENDBRANCH 120 140
ENDBRANCH 119 123
ENDBRANCH 103 119
ENDBRANCH 102 106
ENDBRANCH 82 102
ENDBRANCH 81 85
ENDBRANCH 65 81
ENDBRANCH 64 68
ENDBRANCH 41 64
ENDBRANCH 40 44
ENDBRANCH 24 40
ENDBRANCH 23 27
ENDBRANCH 1 23
TORSDOF 31
ENDMDL
MODEL 100
REMARK VINA RESULT:      -1.6      9.510     18.306
ROOT
ATOM      1  C1  SGN B   1      46.730  -9.839  26.5160  0.00  0.00     0.000 C
ATOM      2  C2  SGN B   1      45.898  -9.502  27.7630  0.00  0.00     0.000 C
ATOM      3  C3  SGN B   1      46.550 -10.079  29.0240  0.00  0.00     0.000 C
ATOM      4  C4  SGN B   1      46.760 -11.582  28.8670  0.00  0.00     0.000 C
ATOM      5  C5  SGN B   1      47.466 -11.851  27.5410  0.00  0.00     0.000 C
ATOM      6  O5  SGN B   1      46.713 -11.260  26.4650  0.00  0.00     0.000 O
ATOM      7   O  SGN B   1      45.754  -9.803  30.1710  0.00  0.00     0.000 O
ATOM      9  HD  SGN B   1      45.213 -10.279  29.6910  0.00  0.00     0.000 HD
ATOM      9   O  SGN B   1      47.543 -12.063  29.9440  0.00  0.00     0.000 O
ATOM     11  HD  SGN B   1      47.001 -12.539  29.4650  0.00  0.00     0.000 HD
ENDROOT
BRANCH 2 13
ATOM     11   N  SGN B   1      44.785  -8.731  27.1780  0.00  0.00     0.000 N
ATOM     13  HD  SGN B   1      45.606  -8.502  27.0270  0.00  0.00     0.000 HD
ATOM     13   S  SGN B   1      44.911  -7.164  26.8350  0.00  0.00     0.000 S
ATOM     14   O  SGN B   1      46.213  -6.707  27.1280  0.00  0.00     0.000 OA
ATOM     15   O  SGN B   1      44.366  -6.941  25.5380  0.00  0.00     0.000 OA
ATOM     16   O  SGN B   1      43.875  -6.625  27.8680  0.00  0.00     0.000 OA
ENDBRANCH 2 13
BRANCH 5 17
ATOM     17   C  SGN B   1      47.632 -13.316  27.2200  0.00  0.00     0.000 C
ATOM     18   O  SGN B   1      46.408 -14.038  27.4610  0.00  0.00     0.000 O
ATOM     19   S  SGN B   1      46.553 -15.425  28.2430  0.00  0.00     0.000 S
ATOM     20   O  SGN B   1      45.250 -16.048  28.1470  0.00  0.00     0.000 OA
ATOM     21   O  SGN B   1      47.586 -16.131  27.5210  0.00  0.00     0.000 OA
ATOM     22   O  SGN B   1      46.923 -15.060  29.5930  0.00  0.00     0.000 OA
ENDBRANCH 5 17
BRANCH 1 23
ATOM     23  O4  IDS B   2      47.754  -9.340  25.7660  0.00  0.00     0.000 O
BRANCH 23 27
ATOM     24  C1  IDS B   2      47.160  -6.481  22.8160  0.00  0.00     0.000 C
ATOM     25  C2  IDS B   2      46.630  -7.895  22.4910  0.00  0.00     0.000 C
ATOM     26  C3  IDS B   2      46.629  -8.777  23.7360  0.00  0.00     0.000 C
ATOM     27  C4  IDS B   2      47.984  -8.856  24.4260  0.00  0.00     0.000 C
ATOM     28  C5  IDS B   2      48.691  -7.488  24.3550  0.00  0.00     0.000 C
ATOM     29  O5  IDS B   2      47.757  -6.445  24.1190  0.00  0.00     0.000 O
ATOM     30   O  IDS B   2      46.254 -10.101  23.3730  0.00  0.00     0.000 O
ATOM     32  HD  IDS B   2      46.901 -10.553  23.0160  0.00  0.00     0.000 HD
BRANCH 25 32
ATOM     32   O  IDS B   2      45.244  -7.866  21.9610  0.00  0.00     0.000 O
ATOM     33   S  IDS B   2      44.839  -8.603  20.5400  0.00  0.00     0.000 S
ATOM     34   O  IDS B   2      43.482  -8.178  20.2370  0.00  0.00     0.000 OA
ATOM     35   O  IDS B   2      45.771  -8.192  19.4990  0.00  0.00     0.000 OA
ATOM     36   O  IDS B   2      44.900 -10.021  20.8060  0.00  0.00     0.000 OA
ENDBRANCH 25 32
BRANCH 28 37
ATOM     37   C  IDS B   2      49.586  -7.077  25.5430  0.00  0.00     0.000 C
ATOM     38   O  IDS B   2      50.757  -7.021  25.2490  0.00  0.00     0.000 OA
ATOM     39   O  IDS B   2      49.210  -6.754  26.6960  0.00  0.00     0.000 OA
ENDBRANCH 28 37
BRANCH 24 40
ATOM     40  O4  SUS B   3      47.302  -5.572  21.8290  0.00  0.00     0.000 O
BRANCH 40 44
ATOM     41  C1  SUS B   3      46.860  -1.408  21.9010  0.00  0.00     0.000 C
ATOM     42  C2  SUS B   3      48.165  -1.988  22.4810  0.00  0.00     0.000 C
ATOM     43  C3  SUS B   3      48.365  -3.405  21.9490  0.00  0.00     0.000 C
ATOM     44  C4  SUS B   3      47.127  -4.230  22.2670  0.00  0.00     0.000 C
ATOM     45  C5  SUS B   3      45.934  -3.611  21.5690  0.00  0.00     0.000 C
ATOM     46  O5  SUS B   3      45.743  -2.282  22.0960  0.00  0.00     0.000 O
BRANCH 42 49
ATOM     47   N  SUS B   3      48.293  -0.874  23.4360  0.00  0.00     0.000 N
ATOM     49  HD  SUS B   3      47.753  -0.205  23.3250  0.00  0.00     0.000 HD
ATOM     49   S  SUS B   3      49.786  -0.300  23.5190  0.00  0.00     0.000 S
ATOM     50   O  SUS B   3      50.210   0.120  22.2420  0.00  0.00     0.000 OA
ATOM     51   O  SUS B   3      49.459   0.922  24.4150  0.00  0.00     0.000 OA
ATOM     52   O  SUS B   3      50.602  -1.219  24.2090  0.00  0.00     0.000 OA
ENDBRANCH 42 49
BRANCH 43 53
ATOM     53   O  SUS B   3      49.541  -3.984  22.6270  0.00  0.00     0.000 O
ATOM     54   S  SUS B   3      50.893  -4.211  21.7210  0.00  0.00     0.000 S
ATOM     55   O  SUS B   3      51.452  -2.898  21.4340  0.00  0.00     0.000 OA
ATOM     56   O  SUS B   3      51.743  -5.039  22.5580  0.00  0.00     0.000 OA
ATOM     57   O  SUS B   3      50.460  -4.884  20.4920  0.00  0.00     0.000 OA
ENDBRANCH 43 53
BRANCH 45 58
ATOM     58   C  SUS B   3      44.678  -4.434  21.7560  0.00  0.00     0.000 C
ATOM     59   S  SUS B   3      42.192  -4.240  22.3620  0.00  0.00     0.000 S
ATOM     60   O  SUS B   3      43.555  -3.555  21.9360  0.00  0.00     0.000 O
ATOM     61   O  SUS B   3      42.331  -4.513  23.7800  0.00  0.00     0.000 OA
ATOM     62   O  SUS B   3      41.262  -3.177  22.0900  0.00  0.00     0.000 OA
ATOM     63   O  SUS B   3      42.067  -5.385  21.5320  0.00  0.00     0.000 OA
ENDBRANCH 45 58
BRANCH 41 64
ATOM     64  O4  IDS B   4      46.986  -0.935  20.6180  0.00  0.00     0.000 O
BRANCH 64 68
ATOM     65  C1  IDS B   4      46.205   1.402  17.9340  0.00  0.00     0.000 C
ATOM     66  C2  IDS B   4      46.166   1.865  19.3960  0.00  0.00     0.000 C
ATOM     67  C3  IDS B   4      45.434   0.920  20.3340  0.00  0.00     0.000 C
ATOM     68  C4  IDS B   4      45.721  -0.541  20.0420  0.00  0.00     0.000 C
ATOM     69  C5  IDS B   4      45.651  -0.747  18.5230  0.00  0.00     0.000 C
ATOM     70  O5  IDS B   4      46.650   0.058  17.8920  0.00  0.00     0.000 O
ATOM     71   O  IDS B   4      44.052   1.173  20.1890  0.00  0.00     0.000 O
ATOM     73  HD  IDS B   4      44.897   1.349  20.1170  0.00  0.00     0.000 HD
BRANCH 66 73
ATOM     73   O  IDS B   4      47.542   1.934  19.9070  0.00  0.00     0.000 O
ATOM     74   S  IDS B   4      48.117   3.382  20.3440  0.00  0.00     0.000 S
ATOM     75   O  IDS B   4      47.984   4.242  19.1880  0.00  0.00     0.000 OA
ATOM     76   O  IDS B   4      49.481   3.068  20.6880  0.00  0.00     0.000 OA
ATOM     77   O  IDS B   4      47.303   3.798  21.4620  0.00  0.00     0.000 OA
ENDBRANCH 66 73
BRANCH 69 78
ATOM     78   C  IDS B   4      45.699  -2.204  18.0820  0.00  0.00     0.000 C
ATOM     79   O  IDS B   4      44.737  -2.669  17.4740  0.00  0.00     0.000 OA
ATOM     80   O  IDS B   4      46.752  -2.844  18.2570  0.00  0.00     0.000 OA
ENDBRANCH 69 78
BRANCH 65 81
ATOM     81  O4  SGN B   5      45.008   1.671  17.3420  0.00  0.00     0.000 O
BRANCH 81 85
ATOM     82  C1  SGN B   5      43.238   3.120  13.8200  0.00  0.00     0.000 C
ATOM     83  C2  SGN B   5      44.240   1.965  13.6730  0.00  0.00     0.000 C
ATOM     84  C3  SGN B   5      44.422   1.268  15.0290  0.00  0.00     0.000 C
ATOM     85  C4  SGN B   5      44.842   2.295  16.0670  0.00  0.00     0.000 C
ATOM     86  C5  SGN B   5      43.763   3.373  16.1380  0.00  0.00     0.000 C
ATOM     87  O5  SGN B   5      43.652   4.001  14.8470  0.00  0.00     0.000 O
ATOM     88   O  SGN B   5      45.384   0.242  14.9160  0.00  0.00     0.000 O
ATOM     90  HD  SGN B   5      44.526   0.127  14.9330  0.00  0.00     0.000 HD
BRANCH 83 92
ATOM     90   N  SGN B   5      45.118   1.593  12.5470  0.00  0.00     0.000 N
ATOM     92  HD  SGN B   5      45.732   1.038  12.8020  0.00  0.00     0.000 HD
ATOM     92   S  SGN B   5      44.435   1.248  11.1440  0.00  0.00     0.000 S
ATOM     93   O  SGN B   5      45.534   0.928  10.2830  0.00  0.00     0.000 OA
ATOM     94   O  SGN B   5      43.443   0.268  11.4280  0.00  0.00     0.000 OA
ATOM     95   O  SGN B   5      43.714   2.517  10.7450  0.00  0.00     0.000 OA
ENDBRANCH 83 92
BRANCH 86 96
ATOM     96   C  SGN B   5      44.044   4.466  17.1490  0.00  0.00     0.000 C
ATOM     97   O  SGN B   5      43.341   5.661  16.8040  0.00  0.00     0.000 O
ATOM     98   S  SGN B   5      42.469   6.330  17.9720  0.00  0.00     0.000 S
ATOM     99   O  SGN B   5      42.066   7.587  17.3890  0.00  0.00     0.000 OA
ATOM    100   O  SGN B   5      41.400   5.444  18.2650  0.00  0.00     0.000 OA
ATOM    101   O  SGN B   5      43.383   6.477  19.0570  0.00  0.00     0.000 OA
ENDBRANCH 86 96
BRANCH 82 102
ATOM    102  O4  IDS B   6      41.967   2.686  14.0510  0.00  0.00     0.000 O
BRANCH 102 106
ATOM    103  C1  IDS B   6      38.471   1.962  13.3350  0.00  0.00     0.000 C
ATOM    104  C2  IDS B   6      39.592   1.330  12.4960  0.00  0.00     0.000 C
ATOM    105  C3  IDS B   6      40.667   2.292  12.0290  0.00  0.00     0.000 C
ATOM    106  C4  IDS B   6      41.059   3.296  13.0990  0.00  0.00     0.000 C
ATOM    107  C5  IDS B   6      39.803   3.820  13.8020  0.00  0.00     0.000 C
ATOM    108  O5  IDS B   6      39.026   2.761  14.3620  0.00  0.00     0.000 O
ATOM    109   O  IDS B   6      40.194   2.953  10.8670  0.00  0.00     0.000 O
ATOM    111  HD  IDS B   6      39.333   2.887  10.9260  0.00  0.00     0.000 HD
BRANCH 104 111
ATOM    111   O  IDS B   6      40.295   0.328  13.3120  0.00  0.00     0.000 O
ATOM    112   S  IDS B   6      40.098  -1.217  12.9430  0.00  0.00     0.000 S
ATOM    113   O  IDS B   6      38.664  -1.438  13.0470  0.00  0.00     0.000 OA
ATOM    114   O  IDS B   6      40.659  -1.451  11.6080  0.00  0.00     0.000 OA
ATOM    115   O  IDS B   6      40.863  -1.813  14.0170  0.00  0.00     0.000 OA
ENDBRANCH 104 111
BRANCH 107 116
ATOM    116   C  IDS B   6      40.210   4.799  14.8960  0.00  0.00     0.000 C
ATOM    117   O  IDS B   6      39.961   4.477  16.0310  0.00  0.00     0.000 OA
ATOM    118   O  IDS B   6      40.751   5.860  14.6310  0.00  0.00     0.000 OA
ENDBRANCH 107 116
BRANCH 103 119
ATOM    119  O4  SGN B   7      37.633   2.489  12.4050  0.00  0.00     0.000 O
BRANCH 119 123
ATOM    120  C1  SGN B   7      33.453   2.616  12.3290  0.00  0.00     0.000 C
ATOM    121  C2  SGN B   7      34.210   3.952  12.2090  0.00  0.00     0.000 C
ATOM    122  C3  SGN B   7      35.681   3.707  11.8510  0.00  0.00     0.000 C
ATOM    123  C4  SGN B   7      36.297   2.738  12.8460  0.00  0.00     0.000 C
ATOM    124  C5  SGN B   7      35.469   1.444  12.8960  0.00  0.00     0.000 C
ATOM    125  O5  SGN B   7      34.092   1.722  13.2380  0.00  0.00     0.000 O
ATOM    126   O  SGN B   7      36.374   4.961  11.8450  0.00  0.00     0.000 O
ATOM    128  HD  SGN B   7      35.619   4.538  11.8800  0.00  0.00     0.000 HD
BRANCH 121 130
ATOM    128   N  SGN B   7      34.013   5.316  11.7100  0.00  0.00     0.000 N
ATOM    130  HD  SGN B   7      33.669   5.006  10.9780  0.00  0.00     0.000 HD
ATOM    130   S  SGN B   7      32.557   5.998  11.6240  0.00  0.00     0.000 S
ATOM    131   O  SGN B   7      31.978   5.802  12.9090  0.00  0.00     0.000 OA
ATOM    132   O  SGN B   7      32.707   7.306  11.0970  0.00  0.00     0.000 OA
ATOM    133   O  SGN B   7      31.927   5.169  10.4540  0.00  0.00     0.000 OA
ENDBRANCH 121 130
BRANCH 124 134
ATOM    134   C  SGN B   7      35.932   0.467  13.9370  0.00  0.00     0.000 C
ATOM    135   O  SGN B   7      34.792  -0.266  14.4170  0.00  0.00     0.000 O
ATOM    136   S  SGN B   7      35.087  -1.449  15.4060  0.00  0.00     0.000 S
ATOM    137   O  SGN B   7      33.802  -1.957  15.8260  0.00  0.00     0.000 OA
ATOM    138   O  SGN B   7      35.841  -0.859  16.4890  0.00  0.00     0.000 OA
ATOM    139   O  SGN B   7      35.845  -2.371  14.5750  0.00  0.00     0.000 OA
ENDBRANCH 124 134
BRANCH 120 140
ATOM    140  O4  IDS B   8      33.157   1.748  11.3550  0.00  0.00     0.000 O
BRANCH 140 144
ATOM    141  C1  IDS B   8      32.712  -1.338   9.5540  0.00  0.00     0.000 C
ATOM    142  C2  IDS B   8      33.147  -0.039   8.8190  0.00  0.00     0.000 C
ATOM    143  C3  IDS B   8      32.274   1.178   9.1770  0.00  0.00     0.000 C
ATOM    144  C4  IDS B   8      31.993   1.261  10.6760  0.00  0.00     0.000 C
ATOM    145  C5  IDS B   8      31.605  -0.123  11.2190  0.00  0.00     0.000 C
ATOM    146  O5  IDS B   8      32.613  -1.095  10.9520  0.00  0.00     0.000 O
BRANCH 142 147
ATOM    147   O  IDS B   8      34.546   0.298   9.1930  0.00  0.00     0.000 O
ATOM    148   S  IDS B   8      35.801  -0.486   8.5290  0.00  0.00     0.000 S
ATOM    149   O  IDS B   8      35.291  -1.694   7.9200  0.00  0.00     0.000 OA
ATOM    150   O  IDS B   8      36.365   0.436   7.5610  0.00  0.00     0.000 OA
ATOM    151   O  IDS B   8      36.699  -0.773   9.6320  0.00  0.00     0.000 OA
ENDBRANCH 142 147
BRANCH 145 152
ATOM    152   C  IDS B   8      31.410  -0.126  12.7220  0.00  0.00     0.000 C
ATOM    153   O  IDS B   8      30.676   0.710  13.2380  0.00  0.00     0.000 OA
ATOM    154   O  IDS B   8      31.968  -0.970  13.3990  0.00  0.00     0.000 OA
ENDBRANCH 145 152
ENDBRANCH 140 144
ENDBRANCH 120 140
ENDBRANCH 119 123
ENDBRANCH 103 119
ENDBRANCH 102 106
ENDBRANCH 82 102
ENDBRANCH 81 85
ENDBRANCH 65 81
ENDBRANCH 64 68
ENDBRANCH 41 64
ENDBRANCH 40 44
ENDBRANCH 24 40
ENDBRANCH 23 27
ENDBRANCH 1 23
TORSDOF 31
ENDMDL
