ROOT
ATOM      1  C1  IDS C   1      25.240 -36.687   33.120  0.00  0.00     0.000 C
ATOM      2  C2  IDS C   1      24.060 -35.794   33.460  0.00  0.00     0.000 C
ATOM      3  C3  IDS C   1      24.150 -35.304   34.900  0.00  0.00     0.000 C
ATOM      4  C4  IDS C   1      25.520 -34.691   35.190  0.00  0.00     0.000 C
ATOM      5  C5  IDS C   1      26.640 -35.641   34.720  0.00  0.00     0.000 C
ATOM      6  O5  IDS C   1      26.460 -35.984   33.350  0.00  0.00     0.000 O
ATOM      7   O  IDS C   1      23.890 -36.391   35.790  0.00  0.00     0.000 O
ATOM      9  HD  IDS C   1      24.390 -35.891   36.290  0.00  0.00     0.000 HD
ATOM      9   O  IDS C   1      25.630 -33.442   34.490  0.00  0.00     0.000 O
ATOM     11  HD  IDS C   1      26.130 -32.942   34.990  0.00  0.00     0.000 HD
ENDROOT
BRANCH 2 11
ATOM     11   O  IDS C   1      24.050 -34.604   32.580  0.00  0.00     0.000 O
ATOM     12   S  IDS C   1      22.670 -33.929   32.140  0.00  0.00     0.000 S
ATOM     13   O  IDS C   1      23.020 -32.527   32.080  0.00  0.00     0.000 OA
ATOM     14   O  IDS C   1      21.660 -34.216   33.130  0.00  0.00     0.000 OA
ATOM     15   O  IDS C   1      22.380 -34.504   30.850  0.00  0.00     0.000 OA
ENDBRANCH 2 11
BRANCH 5 16
ATOM     16   C  IDS C   1      28.030 -35.050   34.870  0.00  0.00     0.000 C
ATOM     17   O  IDS C   1      28.740 -34.970   33.890  0.00  0.00     0.000 OA
ATOM     18   O  IDS C   1      28.430 -34.682   35.940  0.00  0.00     0.000 OA
ENDBRANCH 5 16
BRANCH 1 19
ATOM     19  O4  SGN C   2      25.220 -37.965   33.510  0.00  0.00     0.000 O
BRANCH 19 23
ATOM     20  C1  SGN C   2      26.960 -41.725   33.000  0.00  0.00     0.000 C
ATOM     21  C2  SGN C   2      27.760 -40.706   33.820  0.00  0.00     0.000 C
ATOM     22  C3  SGN C   2      26.840 -39.578   34.280  0.00  0.00     0.000 C
ATOM     23  C4  SGN C   2      26.170 -38.937   33.070  0.00  0.00     0.000 C
ATOM     24  C5  SGN C   2      25.460 -40.010   32.240  0.00  0.00     0.000 C
ATOM     25  O5  SGN C   2      26.390 -41.051   31.890  0.00  0.00     0.000 O
ATOM     26   O  SGN C   2      27.570 -38.614   35.030  0.00  0.00     0.000 O
ATOM     28  HD  SGN C   2      28.070 -38.114   35.530  0.00  0.00     0.000 HD
BRANCH 21 30
ATOM     28   N  SGN C   2      28.480 -41.344   34.930  0.00  0.00     0.000 N
ATOM     30  HD  SGN C   2      28.980 -40.844   35.430  0.00  0.00     0.000 HD
ATOM     30   S  SGN C   2      29.990 -41.845   34.760  0.00  0.00     0.000 S
ATOM     31   O  SGN C   2      30.710 -40.714   34.280  0.00  0.00     0.000 OA
ATOM     32   O  SGN C   2      30.390 -42.481   35.960  0.00  0.00     0.000 OA
ATOM     33   O  SGN C   2      29.900 -42.957   33.660  0.00  0.00     0.000 OA
ENDBRANCH 21 30
BRANCH 24 34
ATOM     34   C  SGN C   2      24.890 -39.493   30.940  0.00  0.00     0.000 C
ATOM     35   O  SGN C   2      25.970 -39.049   30.100  0.00  0.00     0.000 O
ATOM     36   S  SGN C   2      25.600 -38.051   28.910  0.00  0.00     0.000 S
ATOM     37   O  SGN C   2      24.890 -36.961   29.550  0.00  0.00     0.000 OA
ATOM     38   O  SGN C   2      26.860 -37.653   28.330  0.00  0.00     0.000 OA
ATOM     39   O  SGN C   2      24.780 -38.847   28.030  0.00  0.00     0.000 OA
ENDBRANCH 24 34
BRANCH 20 40
ATOM     40  O4  IDS C   3      26.010 -42.412   33.630  0.00  0.00     0.000 O
BRANCH 40 44
ATOM     41  C1  IDS C   3      24.420 -44.889   35.570  0.00  0.00     0.000 C
ATOM     42  C2  IDS C   3      25.930 -44.895   35.350  0.00  0.00     0.000 C
ATOM     43  C3  IDS C   3      26.250 -44.803   33.860  0.00  0.00     0.000 C
ATOM     44  C4  IDS C   3      25.490 -43.669   33.190  0.00  0.00     0.000 C
ATOM     45  C5  IDS C   3      23.990 -43.763   33.540  0.00  0.00     0.000 C
ATOM     46  O5  IDS C   3      23.830 -43.744   34.960  0.00  0.00     0.000 O
ATOM     47   O  IDS C   3      25.930 -46.041   33.230  0.00  0.00     0.000 O
ATOM     49  HD  IDS C   3      26.430 -45.541   33.730  0.00  0.00     0.000 HD
BRANCH 42 49
ATOM     49   O  IDS C   3      26.550 -43.740   36.040  0.00  0.00     0.000 O
ATOM     50   S  IDS C   3      26.900 -43.842   37.600  0.00  0.00     0.000 S
ATOM     51   O  IDS C   3      28.030 -44.744   37.630  0.00  0.00     0.000 OA
ATOM     52   O  IDS C   3      25.750 -44.364   38.320  0.00  0.00     0.000 OA
ATOM     53   O  IDS C   3      27.240 -42.499   38.020  0.00  0.00     0.000 OA
ENDBRANCH 42 49
BRANCH 45 54
ATOM     54   C  IDS C   3      23.160 -42.639   32.940  0.00  0.00     0.000 C
ATOM     55   O  IDS C   3      22.680 -41.802   33.660  0.00  0.00     0.000 OA
ATOM     56   O  IDS C   3      22.970 -42.599   31.740  0.00  0.00     0.000 OA
ENDBRANCH 45 54
BRANCH 41 57
ATOM     57  O4  SGN C   4      23.980 -46.124   35.300  0.00  0.00     0.000 O
BRANCH 57 61
ATOM     58  C1  SGN C   4      20.780 -48.585   36.410  0.00  0.00     0.000 C
ATOM     59  C2  SGN C   4      20.490 -47.510   35.350  0.00  0.00     0.000 C
ATOM     60  C3  SGN C   4      21.790 -46.968   34.740  0.00  0.00     0.000 C
ATOM     61  C4  SGN C   4      22.710 -46.488   35.850  0.00  0.00     0.000 C
ATOM     62  C5  SGN C   4      22.930 -47.595   36.880  0.00  0.00     0.000 C
ATOM     63  O5  SGN C   4      21.670 -48.071   37.390  0.00  0.00     0.000 O
BRANCH 59 66
ATOM     64   N  SGN C   4      19.590 -47.998   34.300  0.00  0.00     0.000 N
ATOM     66  HD  SGN C   4      20.090 -47.498   34.800  0.00  0.00     0.000 HD
ATOM     66   O  SGN C   4      17.420 -48.240   33.220  0.00  0.00     0.000 OA
ATOM     67   O  SGN C   4      17.590 -48.349   35.670  0.00  0.00     0.000 OA
ATOM     68   S  SGN C   4      18.030 -47.626   34.350  0.00  0.00     0.000 S
ATOM     69   O  SGN C   4      17.910 -46.224   34.530  0.00  0.00     0.000 OA
ENDBRANCH 59 66
BRANCH 62 70
ATOM     70   C  SGN C   4      23.730 -47.103   38.060  0.00  0.00     0.000 C
ATOM     71   S  SGN C   4      24.490 -47.717   40.430  0.00  0.00     0.000 S
ATOM     72   O  SGN C   4      25.830 -47.273   40.100  0.00  0.00     0.000 OA
ATOM     73   O  SGN C   4      23.650 -46.662   40.960  0.00  0.00     0.000 OA
ATOM     74   O  SGN C   4      24.460 -48.933   41.210  0.00  0.00     0.000 OA
ATOM     75   O  SGN C   4      23.850 -48.141   39.040  0.00  0.00     0.000 O
ENDBRANCH 62 70
ENDBRANCH 57 61
ENDBRANCH 41 57
ENDBRANCH 40 44
ENDBRANCH 20 40
ENDBRANCH 19 23
ENDBRANCH 1 19
TORSDOF 14