MODEL 1
REMARK VINA RESULT:      -9.1      0.000      0.000
ROOT
ATOM      1  C1  IDS C   1      20.204 -31.406  25.3290  0.00  0.00     0.000 C
ATOM      2  C2  IDS C   1      19.026 -31.096  26.2360  0.00  0.00     0.000 C
ATOM      3  C3  IDS C   1      18.534 -29.671  26.0160  0.00  0.00     0.000 C
ATOM      4  C4  IDS C   1      18.289 -29.394  24.5330  0.00  0.00     0.000 C
ATOM      5  C5  IDS C   1      19.510 -29.832  23.6990  0.00  0.00     0.000 C
ATOM      6  O5  IDS C   1      19.835 -31.192  23.9670  0.00  0.00     0.000 O
ATOM      7   O  IDS C   1      19.490 -28.751  26.5450  0.00  0.00     0.000 O
ATOM      9  HD  IDS C   1      19.123 -28.264  25.9310  0.00  0.00     0.000 HD
ATOM      9   O  IDS C   1      17.132 -30.130  24.1060  0.00  0.00     0.000 O
ATOM     11  HD  IDS C   1      16.765 -29.643  23.4910  0.00  0.00     0.000 HD
ENDROOT
BRANCH 2 11
ATOM     11   O  IDS C   1      17.901 -32.011  25.9400  0.00  0.00     0.000 O
ATOM     12   S  IDS C   1      17.190 -32.831  27.1130  0.00  0.00     0.000 S
ATOM     13   O  IDS C   1      15.814 -32.873  26.6680  0.00  0.00     0.000 OA
ATOM     14   O  IDS C   1      17.357 -32.125  28.3600  0.00  0.00     0.000 OA
ATOM     15   O  IDS C   1      17.837 -34.120  27.0990  0.00  0.00     0.000 OA
ENDBRANCH 2 11
BRANCH 5 16
ATOM     16   C  IDS C   1      19.296 -29.694  22.2030  0.00  0.00     0.000 C
ATOM     17   O  IDS C   1      18.681 -30.561  21.6180  0.00  0.00     0.000 OA
ATOM     18   O  IDS C   1      19.738 -28.755  21.6020  0.00  0.00     0.000 OA
ENDBRANCH 5 16
BRANCH 1 19
ATOM     19  O4  SGN C   2      21.421 -30.979  25.6780  0.00  0.00     0.000 O
BRANCH 19 23
ATOM     20  C1  SGN C   2      25.466 -31.332  24.7060  0.00  0.00     0.000 C
ATOM     21  C2  SGN C   2      24.736 -30.097  24.1630  0.00  0.00     0.000 C
ATOM     22  C3  SGN C   2      23.439 -29.882  24.9380  0.00  0.00     0.000 C
ATOM     23  C4  SGN C   2      22.577 -31.137  24.8530  0.00  0.00     0.000 C
ATOM     24  C5  SGN C   2      23.381 -32.352  25.3250  0.00  0.00     0.000 C
ATOM     25  O5  SGN C   2      24.604 -32.450  24.5720  0.00  0.00     0.000 O
ATOM     26   O  SGN C   2      22.740 -28.749  24.4360  0.00  0.00     0.000 O
ATOM     28  HD  SGN C   2      22.416 -28.011  24.1190  0.00  0.00     0.000 HD
BRANCH 21 30
ATOM     28   N  SGN C   2      25.373 -28.783  24.0100  0.00  0.00     0.000 N
ATOM     30  HD  SGN C   2      25.028 -28.228  23.4420  0.00  0.00     0.000 HD
ATOM     30   S  SGN C   2      26.463 -28.517  22.8690  0.00  0.00     0.000 S
ATOM     31   O  SGN C   2      25.839 -28.916  21.6530  0.00  0.00     0.000 OA
ATOM     32   O  SGN C   2      26.952 -27.196  23.0140  0.00  0.00     0.000 OA
ATOM     33   O  SGN C   2      27.641 -29.483  23.2350  0.00  0.00     0.000 OA
ENDBRANCH 21 30
BRANCH 24 34
ATOM     34   C  SGN C   2      22.660 -33.666  25.1380  0.00  0.00     0.000 C
ATOM     35   O  SGN C   2      22.359 -34.222  26.4310  0.00  0.00     0.000 O
ATOM     36   S  SGN C   2      22.039 -35.785  26.4920  0.00  0.00     0.000 S
ATOM     37   O  SGN C   2      23.172 -36.419  25.8480  0.00  0.00     0.000 OA
ATOM     38   O  SGN C   2      21.923 -36.104  27.8940  0.00  0.00     0.000 OA
ATOM     39   O  SGN C   2      20.802 -35.915  25.7610  0.00  0.00     0.000 OA
ENDBRANCH 24 34
BRANCH 20 40
ATOM     40  O4  IDS C   3      25.921 -31.277  25.9550  0.00  0.00     0.000 O
BRANCH 40 44
ATOM     41  C1  IDS C   3      27.540 -30.819  29.0530  0.00  0.00     0.000 C
ATOM     42  C2  IDS C   3      27.850 -29.931  27.8520  0.00  0.00     0.000 C
ATOM     43  C3  IDS C   3      28.185 -30.785  26.6320  0.00  0.00     0.000 C
ATOM     44  C4  IDS C   3      27.144 -31.869  26.4000  0.00  0.00     0.000 C
ATOM     45  C5  IDS C   3      26.900 -32.651  27.7070  0.00  0.00     0.000 C
ATOM     46  O5  IDS C   3      26.502 -31.743  28.7380  0.00  0.00     0.000 O
ATOM     47   O  IDS C   3      29.471 -31.375  26.8070  0.00  0.00     0.000 O
ATOM     49  HD  IDS C   3      28.952 -30.704  26.6350  0.00  0.00     0.000 HD
BRANCH 42 49
ATOM     49   O  IDS C   3      26.678 -29.084  27.5290  0.00  0.00     0.000 O
ATOM     50   S  IDS C   3      26.882 -27.518  27.2550  0.00  0.00     0.000 S
ATOM     51   O  IDS C   3      27.533 -27.488  25.9640  0.00  0.00     0.000 OA
ATOM     52   O  IDS C   3      27.704 -26.946  28.3080  0.00  0.00     0.000 OA
ATOM     53   O  IDS C   3      25.554 -26.943  27.2300  0.00  0.00     0.000 OA
ENDBRANCH 42 49
BRANCH 45 54
ATOM     54   C  IDS C   3      25.839 -33.732  27.5730  0.00  0.00     0.000 C
ATOM     55   O  IDS C   3      24.907 -33.751  28.3340  0.00  0.00     0.000 OA
ATOM     56   O  IDS C   3      25.945 -34.582  26.7110  0.00  0.00     0.000 OA
ENDBRANCH 45 54
BRANCH 41 57
ATOM     57  O4  SGN C   4      28.713 -31.235  29.5450  0.00  0.00     0.000 O
BRANCH 57 61
ATOM     58  C1  SGN C   4      30.158 -32.550  33.2480  0.00  0.00     0.000 C
ATOM     59  C2  SGN C   4      28.732 -32.982  32.8700  0.00  0.00     0.000 C
ATOM     60  C3  SGN C   4      28.478 -32.800  31.3670  0.00  0.00     0.000 C
ATOM     61  C4  SGN C   4      28.802 -31.370  30.9670  0.00  0.00     0.000 C
ATOM     62  C5  SGN C   4      30.220 -31.000  31.4000  0.00  0.00     0.000 C
ATOM     63  O5  SGN C   4      30.393 -31.219  32.8130  0.00  0.00     0.000 O
BRANCH 59 66
ATOM     64   N  SGN C   4      28.667 -34.256  33.5930  0.00  0.00     0.000 N
ATOM     66  HD  SGN C   4      28.610 -33.641  32.9860  0.00  0.00     0.000 HD
ATOM     66   O  SGN C   4      27.502 -36.049  34.7600  0.00  0.00     0.000 OA
ATOM     67   O  SGN C   4      26.833 -33.711  35.1230  0.00  0.00     0.000 OA
ATOM     68   S  SGN C   4      27.249 -34.817  34.0930  0.00  0.00     0.000 S
ATOM     69   O  SGN C   4      26.347 -34.791  32.9990  0.00  0.00     0.000 OA
ENDBRANCH 59 66
BRANCH 62 70
ATOM     70   C  SGN C   4      30.519 -29.546  31.1350  0.00  0.00     0.000 C
ATOM     71   S  SGN C   4      32.342 -27.933  30.3320  0.00  0.00     0.000 S
ATOM     72   O  SGN C   4      31.364 -27.265  29.4970  0.00  0.00     0.000 OA
ATOM     73   O  SGN C   4      32.428 -27.382  31.6690  0.00  0.00     0.000 OA
ATOM     74   O  SGN C   4      33.625 -28.108  29.6900  0.00  0.00     0.000 OA
ATOM     75   O  SGN C   4      31.793 -29.414  30.4930  0.00  0.00     0.000 O
ENDBRANCH 62 70
ENDBRANCH 57 61
ENDBRANCH 41 57
ENDBRANCH 40 44
ENDBRANCH 20 40
ENDBRANCH 19 23
ENDBRANCH 1 19
TORSDOF 14
ENDMDL
MODEL 2
REMARK VINA RESULT:      -9.1      8.414     14.970
ROOT
ATOM      1  C1  IDS C   1      27.872 -39.799  35.3980  0.00  0.00     0.000 C
ATOM      2  C2  IDS C   1      27.697 -39.858  36.9050  0.00  0.00     0.000 C
ATOM      3  C3  IDS C   1      27.525 -41.298  37.3730  0.00  0.00     0.000 C
ATOM      4  C4  IDS C   1      28.635 -42.194  36.8230  0.00  0.00     0.000 C
ATOM      5  C5  IDS C   1      28.786 -41.983  35.3030  0.00  0.00     0.000 C
ATOM      6  O5  IDS C   1      28.984 -40.604  35.0090  0.00  0.00     0.000 O
ATOM      7   O  IDS C   1      26.244 -41.782  36.9650  0.00  0.00     0.000 O
ATOM      9  HD  IDS C   1      26.689 -42.523  37.0060  0.00  0.00     0.000 HD
ATOM      9   O  IDS C   1      29.870 -41.861  37.4750  0.00  0.00     0.000 O
ATOM     11  HD  IDS C   1      30.315 -42.602  37.5160  0.00  0.00     0.000 HD
ENDROOT
BRANCH 2 11
ATOM     11   O  IDS C   1      28.892 -39.306  37.5800  0.00  0.00     0.000 O
ATOM     12   S  IDS C   1      29.147 -37.729  37.6210  0.00  0.00     0.000 S
ATOM     13   O  IDS C   1      29.773 -37.553  38.9130  0.00  0.00     0.000 OA
ATOM     14   O  IDS C   1      27.886 -37.037  37.5080  0.00  0.00     0.000 OA
ATOM     15   O  IDS C   1      30.035 -37.476  36.5140  0.00  0.00     0.000 OA
ENDBRANCH 2 11
BRANCH 5 16
ATOM     16   C  IDS C   1      29.948 -42.754  34.7030  0.00  0.00     0.000 C
ATOM     17   O  IDS C   1      30.313 -42.480  33.5800  0.00  0.00     0.000 OA
ATOM     18   O  IDS C   1      30.488 -43.631  35.3190  0.00  0.00     0.000 OA
ENDBRANCH 5 16
BRANCH 1 19
ATOM     19  O4  SGN C   2      26.791 -39.878  34.6160  0.00  0.00     0.000 O
BRANCH 19 23
ATOM     20  C1  SGN C   2      25.071 -38.657  31.0130  0.00  0.00     0.000 C
ATOM     21  C2  SGN C   2      26.194 -39.697  30.9180  0.00  0.00     0.000 C
ATOM     22  C3  SGN C   2      26.408 -40.350  32.2810  0.00  0.00     0.000 C
ATOM     23  C4  SGN C   2      26.711 -39.278  33.3220  0.00  0.00     0.000 C
ATOM     24  C5  SGN C   2      25.604 -38.220  33.3140  0.00  0.00     0.000 C
ATOM     25  O5  SGN C   2      25.442 -37.693  31.9850  0.00  0.00     0.000 O
ATOM     26   O  SGN C   2      27.458 -41.308  32.2150  0.00  0.00     0.000 O
ATOM     28  HD  SGN C   2      28.057 -41.918  32.0730  0.00  0.00     0.000 HD
BRANCH 21 30
ATOM     28   N  SGN C   2      27.062 -40.233  29.8620  0.00  0.00     0.000 N
ATOM     30  HD  SGN C   2      27.470 -39.668  29.3460  0.00  0.00     0.000 HD
ATOM     30   S  SGN C   2      26.518 -40.455  28.3740  0.00  0.00     0.000 S
ATOM     31   O  SGN C   2      25.968 -39.201  27.9830  0.00  0.00     0.000 OA
ATOM     32   O  SGN C   2      27.547 -41.047  27.6030  0.00  0.00     0.000 OA
ATOM     33   O  SGN C   2      25.391 -41.531  28.5380  0.00  0.00     0.000 OA
ENDBRANCH 21 30
BRANCH 24 34
ATOM     34   C  SGN C   2      25.890 -37.037  34.2100  0.00  0.00     0.000 C
ATOM     35   O  SGN C   2      26.197 -35.895  33.3910  0.00  0.00     0.000 O
ATOM     36   S  SGN C   2      26.977 -34.690  34.0910  0.00  0.00     0.000 S
ATOM     37   O  SGN C   2      28.152 -35.304  34.6780  0.00  0.00     0.000 OA
ATOM     38   O  SGN C   2      27.284 -33.759  33.0320  0.00  0.00     0.000 OA
ATOM     39   O  SGN C   2      26.036 -34.182  35.0590  0.00  0.00     0.000 OA
ENDBRANCH 24 34
BRANCH 20 40
ATOM     40  O4  IDS C   3      23.844 -39.099  31.2810  0.00  0.00     0.000 O
BRANCH 40 44
ATOM     41  C1  IDS C   3      20.571 -40.407  31.3010  0.00  0.00     0.000 C
ATOM     42  C2  IDS C   3      21.481 -40.552  30.0850  0.00  0.00     0.000 C
ATOM     43  C3  IDS C   3      22.043 -39.193  29.6760  0.00  0.00     0.000 C
ATOM     44  C4  IDS C   3      22.640 -38.452  30.8620  0.00  0.00     0.000 C
ATOM     45  C5  IDS C   3      21.630 -38.427  32.0290  0.00  0.00     0.000 C
ATOM     46  O5  IDS C   3      21.263 -39.765  32.3690  0.00  0.00     0.000 O
ATOM     47   O  IDS C   3      21.007 -38.411  29.0860  0.00  0.00     0.000 O
ATOM     49  HD  IDS C   3      21.589 -39.052  29.0700  0.00  0.00     0.000 HD
BRANCH 42 49
ATOM     49   O  IDS C   3      22.611 -41.457  30.3980  0.00  0.00     0.000 O
ATOM     50   S  IDS C   3      22.526 -43.004  29.9900  0.00  0.00     0.000 S
ATOM     51   O  IDS C   3      22.664 -42.977  28.5510  0.00  0.00     0.000 OA
ATOM     52   O  IDS C   3      21.247 -43.547  30.4190  0.00  0.00     0.000 OA
ATOM     53   O  IDS C   3      23.640 -43.652  30.6510  0.00  0.00     0.000 OA
ENDBRANCH 42 49
BRANCH 45 54
ATOM     54   C  IDS C   3      22.165 -37.736  33.2740  0.00  0.00     0.000 C
ATOM     55   O  IDS C   3      22.449 -36.567  33.2320  0.00  0.00     0.000 OA
ATOM     56   O  IDS C   3      22.319 -38.369  34.3000  0.00  0.00     0.000 OA
ENDBRANCH 45 54
BRANCH 41 57
ATOM     57  O4  SGN C   4      19.395 -39.946  30.8580  0.00  0.00     0.000 O
BRANCH 57 61
ATOM     58  C1  SGN C   4      15.626 -38.993  32.4120  0.00  0.00     0.000 C
ATOM     59  C2  SGN C   4      16.808 -38.133  32.8890  0.00  0.00     0.000 C
ATOM     60  C3  SGN C   4      18.023 -38.299  31.9650  0.00  0.00     0.000 C
ATOM     61  C4  SGN C   4      18.364 -39.774  31.8350  0.00  0.00     0.000 C
ATOM     62  C5  SGN C   4      17.138 -40.569  31.3860  0.00  0.00     0.000 C
ATOM     63  O5  SGN C   4      16.033 -40.347  32.2830  0.00  0.00     0.000 O
BRANCH 59 66
ATOM     64   N  SGN C   4      16.461 -36.715  33.0210  0.00  0.00     0.000 N
ATOM     66  HD  SGN C   4      16.872 -37.476  33.0520  0.00  0.00     0.000 HD
ATOM     66   O  SGN C   4      15.780 -34.738  34.2710  0.00  0.00     0.000 OA
ATOM     67   O  SGN C   4      14.760 -36.918  34.7710  0.00  0.00     0.000 OA
ATOM     68   S  SGN C   4      16.072 -36.118  34.4590  0.00  0.00     0.000 S
ATOM     69   O  SGN C   4      17.076 -36.498  35.3860  0.00  0.00     0.000 OA
ENDBRANCH 59 66
BRANCH 62 70
ATOM     70   C  SGN C   4      17.413 -42.052  31.3780  0.00  0.00     0.000 C
ATOM     71   S  SGN C   4      17.418 -44.152  32.8490  0.00  0.00     0.000 S
ATOM     72   O  SGN C   4      16.745 -44.878  31.7900  0.00  0.00     0.000 OA
ATOM     73   O  SGN C   4      18.862 -44.202  32.7520  0.00  0.00     0.000 OA
ATOM     74   O  SGN C   4      16.911 -44.454  34.1680  0.00  0.00     0.000 OA
ATOM     75   O  SGN C   4      17.008 -42.634  32.6230  0.00  0.00     0.000 O
ENDBRANCH 62 70
ENDBRANCH 57 61
ENDBRANCH 41 57
ENDBRANCH 40 44
ENDBRANCH 20 40
ENDBRANCH 19 23
ENDBRANCH 1 19
TORSDOF 14
ENDMDL
MODEL 3
REMARK VINA RESULT:      -8.9      1.282      1.727
ROOT
ATOM      1  C1  IDS C   1      19.873 -32.339  25.9390  0.00  0.00     0.000 C
ATOM      2  C2  IDS C   1      19.013 -32.999  27.0020  0.00  0.00     0.000 C
ATOM      3  C3  IDS C   1      18.381 -31.953  27.9120  0.00  0.00     0.000 C
ATOM      4  C4  IDS C   1      17.673 -30.869  27.0990  0.00  0.00     0.000 C
ATOM      5  C5  IDS C   1      18.605 -30.338  25.9920  0.00  0.00     0.000 C
ATOM      6  O5  IDS C   1      19.089 -31.411  25.1910  0.00  0.00     0.000 O
ATOM      7   O  IDS C   1      19.388 -31.375  28.7460  0.00  0.00     0.000 O
ATOM      9  HD  IDS C   1      18.816 -30.725  28.7120  0.00  0.00     0.000 HD
ATOM      9   O  IDS C   1      16.494 -31.430  26.5010  0.00  0.00     0.000 O
ATOM     11  HD  IDS C   1      15.922 -30.780  26.4670  0.00  0.00     0.000 HD
ENDROOT
BRANCH 2 11
ATOM     11   O  IDS C   1      17.917 -33.765  26.3690  0.00  0.00     0.000 O
ATOM     12   S  IDS C   1      17.925 -35.363  26.3880  0.00  0.00     0.000 S
ATOM     13   O  IDS C   1      16.516 -35.675  26.4920  0.00  0.00     0.000 OA
ATOM     14   O  IDS C   1      18.689 -35.824  27.5210  0.00  0.00     0.000 OA
ATOM     15   O  IDS C   1      18.504 -35.738  25.1220  0.00  0.00     0.000 OA
ENDBRANCH 2 11
BRANCH 5 16
ATOM     16   C  IDS C   1      17.931 -29.339  25.0690  0.00  0.00     0.000 C
ATOM     17   O  IDS C   1      18.422 -29.125  23.9810  0.00  0.00     0.000 OA
ATOM     18   O  IDS C   1      16.939 -28.756  25.4110  0.00  0.00     0.000 OA
ENDBRANCH 5 16
BRANCH 1 19
ATOM     19  O4  SGN C   2      21.106 -31.936  26.2600  0.00  0.00     0.000 O
BRANCH 19 23
ATOM     20  C1  SGN C   2      25.012 -31.462  24.8660  0.00  0.00     0.000 C
ATOM     21  C2  SGN C   2      24.004 -30.382  24.4580  0.00  0.00     0.000 C
ATOM     22  C3  SGN C   2      22.782 -30.446  25.3700  0.00  0.00     0.000 C
ATOM     23  C4  SGN C   2      22.174 -31.843  25.3160  0.00  0.00     0.000 C
ATOM     24  C5  SGN C   2      23.243 -32.888  25.6460  0.00  0.00     0.000 C
ATOM     25  O5  SGN C   2      24.373 -32.725  24.7690  0.00  0.00     0.000 O
ATOM     26   O  SGN C   2      21.828 -29.459  24.9960  0.00  0.00     0.000 O
ATOM     28  HD  SGN C   2      21.334 -28.792  24.7480  0.00  0.00     0.000 HD
BRANCH 21 30
ATOM     28   N  SGN C   2      25.242 -29.837  23.8860  0.00  0.00     0.000 N
ATOM     30  HD  SGN C   2      25.683 -29.255  24.3530  0.00  0.00     0.000 HD
ATOM     30   S  SGN C   2      25.243 -28.460  23.0700  0.00  0.00     0.000 S
ATOM     31   O  SGN C   2      24.629 -27.510  23.9350  0.00  0.00     0.000 OA
ATOM     32   O  SGN C   2      26.551 -28.230  22.5800  0.00  0.00     0.000 OA
ATOM     33   O  SGN C   2      24.333 -28.754  21.8290  0.00  0.00     0.000 OA
ENDBRANCH 21 30
BRANCH 24 34
ATOM     34   C  SGN C   2      22.773 -34.313  25.4730  0.00  0.00     0.000 C
ATOM     35   O  SGN C   2      22.585 -34.904  26.7720  0.00  0.00     0.000 O
ATOM     36   S  SGN C   2      22.555 -36.499  26.8450  0.00  0.00     0.000 S
ATOM     37   O  SGN C   2      23.782 -36.921  26.1980  0.00  0.00     0.000 OA
ATOM     38   O  SGN C   2      22.507 -36.822  28.2510  0.00  0.00     0.000 OA
ATOM     39   O  SGN C   2      21.359 -36.858  26.1240  0.00  0.00     0.000 OA
ENDBRANCH 24 34
BRANCH 20 40
ATOM     40  O4  IDS C   3      25.582 -31.352  26.0640  0.00  0.00     0.000 O
BRANCH 40 44
ATOM     41  C1  IDS C   3      27.608 -30.541  28.8330  0.00  0.00     0.000 C
ATOM     42  C2  IDS C   3      27.758 -29.821  27.4960  0.00  0.00     0.000 C
ATOM     43  C3  IDS C   3      27.920 -30.831  26.3630  0.00  0.00     0.000 C
ATOM     44  C4  IDS C   3      26.850 -31.911  26.4140  0.00  0.00     0.000 C
ATOM     45  C5  IDS C   3      26.780 -32.513  27.8330  0.00  0.00     0.000 C
ATOM     46  O5  IDS C   3      26.530 -31.473  28.7810  0.00  0.00     0.000 O
ATOM     47   O  IDS C   3      29.214 -31.425  26.4410  0.00  0.00     0.000 O
ATOM     49  HD  IDS C   3      28.680 -30.768  26.2540  0.00  0.00     0.000 HD
BRANCH 42 49
ATOM     49   O  IDS C   3      26.559 -28.994  27.2260  0.00  0.00     0.000 O
ATOM     50   S  IDS C   3      26.716 -27.414  27.0080  0.00  0.00     0.000 S
ATOM     51   O  IDS C   3      27.343 -27.318  25.7090  0.00  0.00     0.000 OA
ATOM     52   O  IDS C   3      27.542 -26.861  28.0690  0.00  0.00     0.000 OA
ATOM     53   O  IDS C   3      25.373 -26.874  27.0270  0.00  0.00     0.000 OA
ENDBRANCH 42 49
BRANCH 45 54
ATOM     54   C  IDS C   3      25.704 -33.578  27.9830  0.00  0.00     0.000 C
ATOM     55   O  IDS C   3      24.773 -33.386  28.7210  0.00  0.00     0.000 OA
ATOM     56   O  IDS C   3      25.796 -34.624  27.3700  0.00  0.00     0.000 OA
ENDBRANCH 45 54
BRANCH 41 57
ATOM     57  O4  SGN C   4      28.834 -30.918  29.2140  0.00  0.00     0.000 O
BRANCH 57 61
ATOM     58  C1  SGN C   4      30.711 -31.772  32.8580  0.00  0.00     0.000 C
ATOM     59  C2  SGN C   4      29.212 -32.099  32.7590  0.00  0.00     0.000 C
ATOM     60  C3  SGN C   4      28.748 -32.134  31.2970  0.00  0.00     0.000 C
ATOM     61  C4  SGN C   4      29.127 -30.832  30.6120  0.00  0.00     0.000 C
ATOM     62  C5  SGN C   4      30.621 -30.556  30.7760  0.00  0.00     0.000 C
ATOM     63  O5  SGN C   4      30.989 -30.562  32.1680  0.00  0.00     0.000 O
BRANCH 59 66
ATOM     64   N  SGN C   4      29.036 -33.327  33.5410  0.00  0.00     0.000 N
ATOM     66  HD  SGN C   4      28.924 -32.672  32.9860  0.00  0.00     0.000 HD
ATOM     66   O  SGN C   4      28.028 -34.667  35.3080  0.00  0.00     0.000 OA
ATOM     67   O  SGN C   4      28.580 -32.308  35.7210  0.00  0.00     0.000 OA
ATOM     68   S  SGN C   4      27.968 -33.365  34.7380  0.00  0.00     0.000 S
ATOM     69   O  SGN C   4      26.729 -32.876  34.2480  0.00  0.00     0.000 OA
ENDBRANCH 59 66
BRANCH 62 70
ATOM     70   C  SGN C   4      30.999 -29.205  30.2220  0.00  0.00     0.000 C
ATOM     71   S  SGN C   4      32.761 -27.347  30.3530  0.00  0.00     0.000 S
ATOM     72   O  SGN C   4      32.775 -27.278  28.9050  0.00  0.00     0.000 OA
ATOM     73   O  SGN C   4      31.777 -26.474  30.9600  0.00  0.00     0.000 OA
ATOM     74   O  SGN C   4      34.074 -27.250  30.9490  0.00  0.00     0.000 OA
ATOM     75   O  SGN C   4      32.303 -28.832  30.6830  0.00  0.00     0.000 O
ENDBRANCH 62 70
ENDBRANCH 57 61
ENDBRANCH 41 57
ENDBRANCH 40 44
ENDBRANCH 20 40
ENDBRANCH 19 23
ENDBRANCH 1 19
TORSDOF 14
ENDMDL
MODEL 4
REMARK VINA RESULT:      -8.8      1.816      2.315
ROOT
ATOM      1  C1  IDS C   1      21.135 -31.621  25.6680  0.00  0.00     0.000 C
ATOM      2  C2  IDS C   1      19.960 -31.251  26.5560  0.00  0.00     0.000 C
ATOM      3  C3  IDS C   1      19.206 -30.056  25.9850  0.00  0.00     0.000 C
ATOM      4  C4  IDS C   1      18.850 -30.279  24.5150  0.00  0.00     0.000 C
ATOM      5  C5  IDS C   1      20.094 -30.741  23.7290  0.00  0.00     0.000 C
ATOM      6  O5  IDS C   1      20.674 -31.887  24.3440  0.00  0.00     0.000 O
ATOM      7   O  IDS C   1      19.998 -28.877  26.1350  0.00  0.00     0.000 O
ATOM      9  HD  IDS C   1      19.521 -28.663  25.4440  0.00  0.00     0.000 HD
ATOM      9   O  IDS C   1      17.831 -31.287  24.4290  0.00  0.00     0.000 O
ATOM     11  HD  IDS C   1      17.354 -31.073  23.7390  0.00  0.00     0.000 HD
ENDROOT
BRANCH 2 11
ATOM     11   O  IDS C   1      19.010 -32.382  26.6440  0.00  0.00     0.000 O
ATOM     12   S  IDS C   1      19.133 -33.459  27.8180  0.00  0.00     0.000 S
ATOM     13   O  IDS C   1      17.750 -33.796  28.0720  0.00  0.00     0.000 OA
ATOM     14   O  IDS C   1      19.784 -32.854  28.9550  0.00  0.00     0.000 OA
ATOM     15   O  IDS C   1      19.891 -34.541  27.2400  0.00  0.00     0.000 OA
ENDBRANCH 2 11
BRANCH 5 16
ATOM     16   C  IDS C   1      19.794 -31.094  22.2840  0.00  0.00     0.000 C
ATOM     17   O  IDS C   1      18.861 -30.550  21.7310  0.00  0.00     0.000 OA
ATOM     18   O  IDS C   1      20.454 -31.908  21.6990  0.00  0.00     0.000 OA
ENDBRANCH 5 16
BRANCH 1 19
ATOM     19  O4  SGN C   2      22.266 -30.917  25.7620  0.00  0.00     0.000 O
BRANCH 19 23
ATOM     20  C1  SGN C   2      26.316 -31.251  24.8050  0.00  0.00     0.000 C
ATOM     21  C2  SGN C   2      25.519 -30.184  24.0460  0.00  0.00     0.000 C
ATOM     22  C3  SGN C   2      24.218 -29.887  24.7880  0.00  0.00     0.000 C
ATOM     23  C4  SGN C   2      23.423 -31.175  24.9640  0.00  0.00     0.000 C
ATOM     24  C5  SGN C   2      24.292 -32.234  25.6470  0.00  0.00     0.000 C
ATOM     25  O5  SGN C   2      25.513 -32.416  24.9060  0.00  0.00     0.000 O
ATOM     26   O  SGN C   2      23.458 -28.908  24.0880  0.00  0.00     0.000 O
ATOM     28  HD  SGN C   2      23.093 -28.263  23.6400  0.00  0.00     0.000 HD
BRANCH 21 30
ATOM     28   N  SGN C   2      26.843 -30.019  23.4310  0.00  0.00     0.000 N
ATOM     30  HD  SGN C   2      27.411 -29.498  23.8250  0.00  0.00     0.000 HD
ATOM     30   S  SGN C   2      27.151 -28.801  22.4400  0.00  0.00     0.000 S
ATOM     31   O  SGN C   2      26.784 -27.628  23.1600  0.00  0.00     0.000 OA
ATOM     32   O  SGN C   2      28.471 -28.945  21.9490  0.00  0.00     0.000 OA
ATOM     33   O  SGN C   2      26.184 -29.040  21.2320  0.00  0.00     0.000 OA
ENDBRANCH 21 30
BRANCH 24 34
ATOM     34   C  SGN C   2      23.639 -33.593  25.7320  0.00  0.00     0.000 C
ATOM     35   O  SGN C   2      24.512 -34.488  26.4450  0.00  0.00     0.000 O
ATOM     36   S  SGN C   2      24.263 -36.053  26.2500  0.00  0.00     0.000 S
ATOM     37   O  SGN C   2      24.288 -36.254  24.8150  0.00  0.00     0.000 OA
ATOM     38   O  SGN C   2      25.347 -36.708  26.9410  0.00  0.00     0.000 OA
ATOM     39   O  SGN C   2      22.970 -36.277  26.8500  0.00  0.00     0.000 OA
ENDBRANCH 24 34
BRANCH 20 40
ATOM     40  O4  IDS C   3      26.778 -30.932  26.0120  0.00  0.00     0.000 O
BRANCH 40 44
ATOM     41  C1  IDS C   3      28.801 -29.193  28.3160  0.00  0.00     0.000 C
ATOM     42  C2  IDS C   3      28.933 -28.971  26.8120  0.00  0.00     0.000 C
ATOM     43  C3  IDS C   3      29.108 -30.306  26.0920  0.00  0.00     0.000 C
ATOM     44  C4  IDS C   3      28.057 -31.318  26.5200  0.00  0.00     0.000 C
ATOM     45  C5  IDS C   3      28.003 -31.400  28.0600  0.00  0.00     0.000 C
ATOM     46  O5  IDS C   3      27.740 -30.102  28.5970  0.00  0.00     0.000 O
ATOM     47   O  IDS C   3      30.412 -30.818  26.3550  0.00  0.00     0.000 O
ATOM     49  HD  IDS C   3      29.866 -30.273  25.9600  0.00  0.00     0.000 HD
BRANCH 42 49
ATOM     49   O  IDS C   3      27.718 -28.305  26.2870  0.00  0.00     0.000 O
ATOM     50   S  IDS C   3      27.507 -26.735  26.5290  0.00  0.00     0.000 S
ATOM     51   O  IDS C   3      28.483 -26.128  25.6520  0.00  0.00     0.000 OA
ATOM     52   O  IDS C   3      27.745 -26.426  27.9290  0.00  0.00     0.000 OA
ATOM     53   O  IDS C   3      26.143 -26.453  26.1350  0.00  0.00     0.000 OA
ENDBRANCH 42 49
BRANCH 45 54
ATOM     54   C  IDS C   3      26.946 -32.364  28.5760  0.00  0.00     0.000 C
ATOM     55   O  IDS C   3      26.175 -32.005  29.4280  0.00  0.00     0.000 OA
ATOM     56   O  IDS C   3      26.895 -33.498  28.1390  0.00  0.00     0.000 OA
ENDBRANCH 45 54
BRANCH 41 57
ATOM     57  O4  SGN C   4      30.035 -29.398  28.7910  0.00  0.00     0.000 O
BRANCH 57 61
ATOM     58  C1  SGN C   4      31.917 -29.312  32.5300  0.00  0.00     0.000 C
ATOM     59  C2  SGN C   4      30.499 -29.903  32.4830  0.00  0.00     0.000 C
ATOM     60  C3  SGN C   4      30.092 -30.255  31.0460  0.00  0.00     0.000 C
ATOM     61  C4  SGN C   4      30.267 -29.036  30.1560  0.00  0.00     0.000 C
ATOM     62  C5  SGN C   4      31.687 -28.485  30.2750  0.00  0.00     0.000 C
ATOM     63  O5  SGN C   4      32.008 -28.201  31.6500  0.00  0.00     0.000 O
BRANCH 59 66
ATOM     64   N  SGN C   4      30.602 -30.841  33.6060  0.00  0.00     0.000 N
ATOM     66  HD  SGN C   4      30.451 -30.486  32.8310  0.00  0.00     0.000 HD
ATOM     66   O  SGN C   4      29.689 -32.187  35.4200  0.00  0.00     0.000 OA
ATOM     67   O  SGN C   4      28.810 -29.929  35.0060  0.00  0.00     0.000 OA
ATOM     68   S  SGN C   4      29.278 -31.294  34.3910  0.00  0.00     0.000 S
ATOM     69   O  SGN C   4      28.318 -31.724  33.4380  0.00  0.00     0.000 OA
ENDBRANCH 59 66
BRANCH 62 70
ATOM     70   C  SGN C   4      31.848 -27.197  29.5060  0.00  0.00     0.000 C
ATOM     71   S  SGN C   4      33.588 -25.584  28.5360  0.00  0.00     0.000 S
ATOM     72   O  SGN C   4      32.826 -25.525  27.3040  0.00  0.00     0.000 OA
ATOM     73   O  SGN C   4      33.188 -24.587  29.5080  0.00  0.00     0.000 OA
ATOM     74   O  SGN C   4      35.016 -25.655  28.3290  0.00  0.00     0.000 OA
ATOM     75   O  SGN C   4      33.226 -26.994  29.1690  0.00  0.00     0.000 O
ENDBRANCH 62 70
ENDBRANCH 57 61
ENDBRANCH 41 57
ENDBRANCH 40 44
ENDBRANCH 20 40
ENDBRANCH 19 23
ENDBRANCH 1 19
TORSDOF 14
ENDMDL
MODEL 5
REMARK VINA RESULT:      -8.3      6.582     11.567
ROOT
ATOM      1  C1  IDS C   1      19.740 -31.992  25.3130  0.00  0.00     0.000 C
ATOM      2  C2  IDS C   1      19.486 -32.209  23.8320  0.00  0.00     0.000 C
ATOM      3  C3  IDS C   1      17.994 -32.170  23.5280  0.00  0.00     0.000 C
ATOM      4  C4  IDS C   1      17.344 -30.915  24.1100  0.00  0.00     0.000 C
ATOM      5  C5  IDS C   1      17.744 -30.744  25.5890  0.00  0.00     0.000 C
ATOM      6  O5  IDS C   1      19.161 -30.754  25.7260  0.00  0.00     0.000 O
ATOM      7   O  IDS C   1      17.371 -33.345  24.0500  0.00  0.00     0.000 O
ATOM      9  HD  IDS C   1      16.705 -32.791  24.0650  0.00  0.00     0.000 HD
ATOM      9   O  IDS C   1      17.785 -29.771  23.3620  0.00  0.00     0.000 O
ATOM     11  HD  IDS C   1      17.119 -29.217  23.3770  0.00  0.00     0.000 HD
ENDROOT
BRANCH 2 11
ATOM     11   O  IDS C   1      20.134 -31.139  23.0410  0.00  0.00     0.000 O
ATOM     12   S  IDS C   1      21.724 -30.974  23.0440  0.00  0.00     0.000 S
ATOM     13   O  IDS C   1      21.988 -30.527  21.6950  0.00  0.00     0.000 OA
ATOM     14   O  IDS C   1      22.336 -32.245  23.3470  0.00  0.00     0.000 OA
ATOM     15   O  IDS C   1      21.982 -29.967  24.0430  0.00  0.00     0.000 OA
ENDBRANCH 2 11
BRANCH 5 16
ATOM     16   C  IDS C   1      17.230 -29.456  26.2050  0.00  0.00     0.000 C
ATOM     17   O  IDS C   1      17.677 -29.100  27.2740  0.00  0.00     0.000 OA
ATOM     18   O  IDS C   1      16.383 -28.806  25.6550  0.00  0.00     0.000 OA
ENDBRANCH 5 16
BRANCH 1 19
ATOM     19  O4  SGN C   2      19.586 -33.018  26.1550  0.00  0.00     0.000 O
BRANCH 19 23
ATOM     20  C1  SGN C   2      20.829 -34.713  29.7620  0.00  0.00     0.000 C
ATOM     21  C2  SGN C   2      20.245 -33.297  29.8360  0.00  0.00     0.000 C
ATOM     22  C3  SGN C   2      19.456 -32.998  28.5640  0.00  0.00     0.000 C
ATOM     23  C4  SGN C   2      20.356 -33.180  27.3470  0.00  0.00     0.000 C
ATOM     24  C5  SGN C   2      20.982 -34.578  27.3680  0.00  0.00     0.000 C
ATOM     25  O5  SGN C   2      21.664 -34.788  28.6180  0.00  0.00     0.000 O
ATOM     26   O  SGN C   2      18.919 -31.681  28.6090  0.00  0.00     0.000 O
ATOM     28  HD  SGN C   2      18.574 -30.898  28.7450  0.00  0.00     0.000 HD
BRANCH 21 30
ATOM     28   N  SGN C   2      19.864 -32.277  30.8210  0.00  0.00     0.000 N
ATOM     30  HD  SGN C   2      20.468 -31.709  31.0720  0.00  0.00     0.000 HD
ATOM     30   S  SGN C   2      20.119 -32.499  32.3850  0.00  0.00     0.000 S
ATOM     31   O  SGN C   2      21.502 -32.814  32.5010  0.00  0.00     0.000 OA
ATOM     32   O  SGN C   2      19.585 -31.392  33.0890  0.00  0.00     0.000 OA
ATOM     33   O  SGN C   2      19.232 -33.740  32.7430  0.00  0.00     0.000 OA
ENDBRANCH 21 30
BRANCH 24 34
ATOM     34   C  SGN C   2      22.006 -34.801  26.2800  0.00  0.00     0.000 C
ATOM     35   O  SGN C   2      23.102 -35.560  26.8190  0.00  0.00     0.000 O
ATOM     36   S  SGN C   2      24.482 -35.510  26.0180  0.00  0.00     0.000 S
ATOM     37   O  SGN C   2      24.778 -34.097  25.8810  0.00  0.00     0.000 OA
ATOM     38   O  SGN C   2      25.434 -36.219  26.8370  0.00  0.00     0.000 OA
ATOM     39   O  SGN C   2      24.184 -36.168  24.7690  0.00  0.00     0.000 OA
ENDBRANCH 24 34
BRANCH 20 40
ATOM     40  O4  IDS C   3      19.974 -35.732  29.7470  0.00  0.00     0.000 O
BRANCH 40 44
ATOM     41  C1  IDS C   3      17.586 -38.222  30.4740  0.00  0.00     0.000 C
ATOM     42  C2  IDS C   3      17.892 -37.097  31.4590  0.00  0.00     0.000 C
ATOM     43  C3  IDS C   3      19.395 -37.007  31.7130  0.00  0.00     0.000 C
ATOM     44  C4  IDS C   3      20.184 -36.979  30.4140  0.00  0.00     0.000 C
ATOM     45  C5  IDS C   3      19.736 -38.140  29.5010  0.00  0.00     0.000 C
ATOM     46  O5  IDS C   3      18.329 -38.048  29.2700  0.00  0.00     0.000 O
ATOM     47   O  IDS C   3      19.807 -38.116  32.5080  0.00  0.00     0.000 O
ATOM     49  HD  IDS C   3      19.420 -37.348  32.4030  0.00  0.00     0.000 HD
BRANCH 42 49
ATOM     49   O  IDS C   3      17.425 -35.801  30.9140  0.00  0.00     0.000 O
ATOM     50   S  IDS C   3      15.979 -35.245  31.3200  0.00  0.00     0.000 S
ATOM     51   O  IDS C   3      16.149 -34.850  32.7010  0.00  0.00     0.000 OA
ATOM     52   O  IDS C   3      14.992 -36.300  31.1590  0.00  0.00     0.000 OA
ATOM     53   O  IDS C   3      15.723 -34.123  30.4410  0.00  0.00     0.000 OA
ENDBRANCH 42 49
BRANCH 45 54
ATOM     54   C  IDS C   3      20.451 -38.161  28.1590  0.00  0.00     0.000 C
ATOM     55   O  IDS C   3      21.634 -38.377  28.1170  0.00  0.00     0.000 OA
ATOM     56   O  IDS C   3      19.830 -37.944  27.1370  0.00  0.00     0.000 OA
ENDBRANCH 45 54
BRANCH 41 57
ATOM     57  O4  SGN C   4      17.637 -39.369  31.1610  0.00  0.00     0.000 O
BRANCH 57 61
ATOM     58  C1  SGN C   4      15.546 -42.991  31.3530  0.00  0.00     0.000 C
ATOM     59  C2  SGN C   4      16.347 -42.723  30.0690  0.00  0.00     0.000 C
ATOM     60  C3  SGN C   4      17.372 -41.599  30.2790  0.00  0.00     0.000 C
ATOM     61  C4  SGN C   4      16.669 -40.366  30.8200  0.00  0.00     0.000 C
ATOM     62  C5  SGN C   4      15.871 -40.712  32.0770  0.00  0.00     0.000 C
ATOM     63  O5  SGN C   4      14.950 -41.787  31.8120  0.00  0.00     0.000 O
BRANCH 59 66
ATOM     64   N  SGN C   4      16.313 -43.835  29.1140  0.00  0.00     0.000 N
ATOM     66  HD  SGN C   4      16.269 -43.356  29.8340  0.00  0.00     0.000 HD
ATOM     66   O  SGN C   4      17.187 -45.868  28.0950  0.00  0.00     0.000 OA
ATOM     67   O  SGN C   4      18.722 -44.054  28.7250  0.00  0.00     0.000 OA
ATOM     68   S  SGN C   4      17.485 -44.931  29.1240  0.00  0.00     0.000 S
ATOM     69   O  SGN C   4      17.656 -45.391  30.4550  0.00  0.00     0.000 OA
ENDBRANCH 59 66
BRANCH 62 70
ATOM     70   C  SGN C   4      15.057 -39.537  32.5580  0.00  0.00     0.000 C
ATOM     71   S  SGN C   4      13.804 -38.595  34.5860  0.00  0.00     0.000 S
ATOM     72   O  SGN C   4      14.420 -37.304  34.3480  0.00  0.00     0.000 OA
ATOM     73   O  SGN C   4      12.551 -38.771  33.8800  0.00  0.00     0.000 OA
ATOM     74   O  SGN C   4      13.741 -38.956  35.9830  0.00  0.00     0.000 OA
ATOM     75   O  SGN C   4      14.818 -39.647  33.9660  0.00  0.00     0.000 O
ENDBRANCH 62 70
ENDBRANCH 57 61
ENDBRANCH 41 57
ENDBRANCH 40 44
ENDBRANCH 20 40
ENDBRANCH 19 23
ENDBRANCH 1 19
TORSDOF 14
ENDMDL
MODEL 6
REMARK VINA RESULT:      -8.3      5.246      9.250
ROOT
ATOM      1  C1  IDS C   1      19.929 -34.178  27.3960  0.00  0.00     0.000 C
ATOM      2  C2  IDS C   1      20.501 -33.152  26.4330  0.00  0.00     0.000 C
ATOM      3  C3  IDS C   1      21.017 -33.826  25.1680  0.00  0.00     0.000 C
ATOM      4  C4  IDS C   1      19.960 -34.750  24.5640  0.00  0.00     0.000 C
ATOM      5  C5  IDS C   1      19.383 -35.683  25.6480  0.00  0.00     0.000 C
ATOM      6  O5  IDS C   1      18.898 -34.924  26.7510  0.00  0.00     0.000 O
ATOM      7   O  IDS C   1      22.207 -34.558  25.4700  0.00  0.00     0.000 O
ATOM      9  HD  IDS C   1      21.912 -35.006  24.7900  0.00  0.00     0.000 HD
ATOM      9   O  IDS C   1      18.902 -33.951  24.0110  0.00  0.00     0.000 O
ATOM     11  HD  IDS C   1      18.607 -34.399  23.3310  0.00  0.00     0.000 HD
ENDROOT
BRANCH 2 11
ATOM     11   O  IDS C   1      19.452 -32.188  26.0330  0.00  0.00     0.000 O
ATOM     12   S  IDS C   1      19.765 -30.622  25.9750  0.00  0.00     0.000 S
ATOM     13   O  IDS C   1      18.952 -30.188  24.8600  0.00  0.00     0.000 OA
ATOM     14   O  IDS C   1      21.177 -30.425  25.7530  0.00  0.00     0.000 OA
ATOM     15   O  IDS C   1      19.313 -30.115  27.2460  0.00  0.00     0.000 OA
ENDBRANCH 2 11
BRANCH 5 16
ATOM     16   C  IDS C   1      18.244 -36.552  25.1480  0.00  0.00     0.000 C
ATOM     17   O  IDS C   1      18.341 -37.757  25.2480  0.00  0.00     0.000 OA
ATOM     18   O  IDS C   1      17.270 -36.062  24.6470  0.00  0.00     0.000 OA
ENDBRANCH 5 16
BRANCH 1 19
ATOM     19  O4  SGN C   2      20.765 -34.882  28.1650  0.00  0.00     0.000 O
BRANCH 19 23
ATOM     20  C1  SGN C   2      20.986 -37.705  31.2320  0.00  0.00     0.000 C
ATOM     21  C2  SGN C   2      20.856 -38.252  29.8060  0.00  0.00     0.000 C
ATOM     22  C3  SGN C   2      21.223 -37.164  28.8010  0.00  0.00     0.000 C
ATOM     23  C4  SGN C   2      20.340 -35.941  29.0240  0.00  0.00     0.000 C
ATOM     24  C5  SGN C   2      20.439 -35.489  30.4840  0.00  0.00     0.000 C
ATOM     25  O5  SGN C   2      20.122 -36.587  31.3580  0.00  0.00     0.000 O
ATOM     26   O  SGN C   2      21.093 -37.651  27.4700  0.00  0.00     0.000 O
ATOM     28  HD  SGN C   2      21.055 -38.044  26.6990  0.00  0.00     0.000 HD
BRANCH 21 30
ATOM     28   N  SGN C   2      21.474 -39.496  29.3270  0.00  0.00     0.000 N
ATOM     30  HD  SGN C   2      21.103 -39.902  28.6580  0.00  0.00     0.000 HD
ATOM     30   S  SGN C   2      20.974 -40.924  29.8450  0.00  0.00     0.000 S
ATOM     31   O  SGN C   2      19.569 -40.939  29.6080  0.00  0.00     0.000 OA
ATOM     32   O  SGN C   2      21.798 -41.924  29.2730  0.00  0.00     0.000 OA
ATOM     33   O  SGN C   2      21.281 -40.901  31.3810  0.00  0.00     0.000 OA
ENDBRANCH 21 30
BRANCH 24 34
ATOM     34   C  SGN C   2      19.486 -34.372  30.8390  0.00  0.00     0.000 C
ATOM     35   O  SGN C   2      20.231 -33.290  31.4250  0.00  0.00     0.000 O
ATOM     36   S  SGN C   2      19.411 -32.230  32.2920  0.00  0.00     0.000 S
ATOM     37   O  SGN C   2      18.698 -33.028  33.2710  0.00  0.00     0.000 OA
ATOM     38   O  SGN C   2      20.399 -31.355  32.8740  0.00  0.00     0.000 OA
ATOM     39   O  SGN C   2      18.554 -31.581  31.3300  0.00  0.00     0.000 OA
ENDBRANCH 24 34
BRANCH 20 40
ATOM     40  O4  IDS C   3      22.202 -37.367  31.6540  0.00  0.00     0.000 O
BRANCH 40 44
ATOM     41  C1  IDS C   3      25.460 -37.807  32.9280  0.00  0.00     0.000 C
ATOM     42  C2  IDS C   3      24.519 -38.990  32.7170  0.00  0.00     0.000 C
ATOM     43  C3  IDS C   3      23.176 -38.728  33.3940  0.00  0.00     0.000 C
ATOM     44  C4  IDS C   3      22.615 -37.364  33.0230  0.00  0.00     0.000 C
ATOM     45  C5  IDS C   3      23.689 -36.277  33.2400  0.00  0.00     0.000 C
ATOM     46  O5  IDS C   3      24.853 -36.599  32.4760  0.00  0.00     0.000 O
ATOM     47   O  IDS C   3      23.333 -38.820  34.8080  0.00  0.00     0.000 O
ATOM     49  HD  IDS C   3      23.268 -39.170  34.0190  0.00  0.00     0.000 HD
BRANCH 42 49
ATOM     49   O  IDS C   3      24.285 -39.204  31.2700  0.00  0.00     0.000 O
ATOM     50   S  IDS C   3      25.088 -40.356  30.4980  0.00  0.00     0.000 S
ATOM     51   O  IDS C   3      24.487 -41.573  30.9970  0.00  0.00     0.000 OA
ATOM     52   O  IDS C   3      26.502 -40.259  30.8220  0.00  0.00     0.000 OA
ATOM     53   O  IDS C   3      24.838 -40.140  29.0890  0.00  0.00     0.000 OA
ENDBRANCH 42 49
BRANCH 45 54
ATOM     54   C  IDS C   3      23.222 -34.883  32.8540  0.00  0.00     0.000 C
ATOM     55   O  IDS C   3      22.463 -34.287  33.5740  0.00  0.00     0.000 OA
ATOM     56   O  IDS C   3      23.601 -34.382  31.8130  0.00  0.00     0.000 OA
ENDBRANCH 45 54
BRANCH 41 57
ATOM     57  O4  SGN C   4      25.953 -37.916  34.1670  0.00  0.00     0.000 O
BRANCH 57 61
ATOM     58  C1  SGN C   4      29.368 -36.698  36.2610  0.00  0.00     0.000 C
ATOM     59  C2  SGN C   4      28.633 -35.619  35.4500  0.00  0.00     0.000 C
ATOM     60  C3  SGN C   4      27.214 -36.073  35.0820  0.00  0.00     0.000 C
ATOM     61  C4  SGN C   4      27.278 -37.417  34.3770  0.00  0.00     0.000 C
ATOM     62  C5  SGN C   4      28.046 -38.431  35.2240  0.00  0.00     0.000 C
ATOM     63  O5  SGN C   4      29.356 -37.929  35.5520  0.00  0.00     0.000 O
BRANCH 59 66
ATOM     64   N  SGN C   4      28.750 -34.394  36.2480  0.00  0.00     0.000 N
ATOM     66  HD  SGN C   4      28.499 -34.990  35.6720  0.00  0.00     0.000 HD
ATOM     66   O  SGN C   4      29.373 -32.064  36.5970  0.00  0.00     0.000 OA
ATOM     67   O  SGN C   4      30.850 -33.549  35.3090  0.00  0.00     0.000 OA
ATOM     68   S  SGN C   4      29.383 -33.073  35.5920  0.00  0.00     0.000 S
ATOM     69   O  SGN C   4      28.730 -32.830  34.3560  0.00  0.00     0.000 OA
ENDBRANCH 59 66
BRANCH 62 70
ATOM     70   C  SGN C   4      28.241 -39.733  34.4900  0.00  0.00     0.000 C
ATOM     71   S  SGN C   4      29.311 -42.056  34.6680  0.00  0.00     0.000 S
ATOM     72   O  SGN C   4      28.087 -42.644  34.1600  0.00  0.00     0.000 OA
ATOM     73   O  SGN C   4      30.249 -41.691  33.6250  0.00  0.00     0.000 OA
ATOM     74   O  SGN C   4      29.906 -42.806  35.7500  0.00  0.00     0.000 OA
ATOM     75   O  SGN C   4      28.855 -40.698  35.3530  0.00  0.00     0.000 O
ENDBRANCH 62 70
ENDBRANCH 57 61
ENDBRANCH 41 57
ENDBRANCH 40 44
ENDBRANCH 20 40
ENDBRANCH 19 23
ENDBRANCH 1 19
TORSDOF 14
ENDMDL
MODEL 7
REMARK VINA RESULT:      -8.2     20.318     25.265
ROOT
ATOM      1  C1  IDS C   1      16.483 -32.622  47.3810  0.00  0.00     0.000 C
ATOM      2  C2  IDS C   1      17.475 -32.225  46.3020  0.00  0.00     0.000 C
ATOM      3  C3  IDS C   1      16.821 -31.305  45.2780  0.00  0.00     0.000 C
ATOM      4  C4  IDS C   1      16.115 -30.134  45.9600  0.00  0.00     0.000 C
ATOM      5  C5  IDS C   1      15.207 -30.646  47.0970  0.00  0.00     0.000 C
ATOM      6  O5  IDS C   1      15.952 -31.453  48.0030  0.00  0.00     0.000 O
ATOM      7   O  IDS C   1      15.897 -32.055  44.4870  0.00  0.00     0.000 O
ATOM      9  HD  IDS C   1      15.548 -31.264  44.4340  0.00  0.00     0.000 HD
ATOM      9   O  IDS C   1      17.103 -29.245  46.5030  0.00  0.00     0.000 O
ATOM     11  HD  IDS C   1      16.755 -28.454  46.4490  0.00  0.00     0.000 HD
ENDROOT
BRANCH 2 11
ATOM     11   O  IDS C   1      18.614 -31.493  46.9000  0.00  0.00     0.000 O
ATOM     12   S  IDS C   1      19.885 -32.283  47.4600  0.00  0.00     0.000 S
ATOM     13   O  IDS C   1      20.969 -31.375  47.1570  0.00  0.00     0.000 OA
ATOM     14   O  IDS C   1      20.001 -33.549  46.7760  0.00  0.00     0.000 OA
ATOM     15   O  IDS C   1      19.632 -32.423  48.8730  0.00  0.00     0.000 OA
ENDBRANCH 2 11
BRANCH 5 16
ATOM     16   C  IDS C   1      14.560 -29.529  47.8960  0.00  0.00     0.000 C
ATOM     17   O  IDS C   1      14.037 -29.798  48.9570  0.00  0.00     0.000 OA
ATOM     18   O  IDS C   1      14.550 -28.403  47.4830  0.00  0.00     0.000 OA
ENDBRANCH 5 16
BRANCH 1 19
ATOM     19  O4  SGN C   2      15.607 -33.599  47.1290  0.00  0.00     0.000 O
BRANCH 19 23
ATOM     20  C1  SGN C   2      13.371 -36.695  48.8140  0.00  0.00     0.000 C
ATOM     21  C2  SGN C   2      13.298 -35.336  49.5190  0.00  0.00     0.000 C
ATOM     22  C3  SGN C   2      13.786 -34.239  48.5760  0.00  0.00     0.000 C
ATOM     23  C4  SGN C   2      15.199 -34.561  48.1030  0.00  0.00     0.000 C
ATOM     24  C5  SGN C   2      15.234 -35.962  47.4870  0.00  0.00     0.000 C
ATOM     25  O5  SGN C   2      14.717 -36.922  48.4260  0.00  0.00     0.000 O
ATOM     26   O  SGN C   2      13.740 -32.971  49.2200  0.00  0.00     0.000 O
ATOM     28  HD  SGN C   2      13.616 -32.235  49.6590  0.00  0.00     0.000 HD
BRANCH 21 30
ATOM     28   N  SGN C   2      12.266 -36.078  50.2550  0.00  0.00     0.000 N
ATOM     30  HD  SGN C   2      11.437 -35.920  50.0620  0.00  0.00     0.000 HD
ATOM     30   S  SGN C   2      11.574 -35.462  51.5590  0.00  0.00     0.000 S
ATOM     31   O  SGN C   2      11.083 -34.187  51.1580  0.00  0.00     0.000 OA
ATOM     32   O  SGN C   2      10.684 -36.426  52.0930  0.00  0.00     0.000 OA
ATOM     33   O  SGN C   2      12.752 -35.311  52.5800  0.00  0.00     0.000 OA
ENDBRANCH 21 30
BRANCH 24 34
ATOM     34   C  SGN C   2      16.624 -36.430  47.1210  0.00  0.00     0.000 C
ATOM     35   O  SGN C   2      17.074 -37.374  48.1090  0.00  0.00     0.000 O
ATOM     36   S  SGN C   2      18.646 -37.635  48.1990  0.00  0.00     0.000 S
ATOM     37   O  SGN C   2      19.230 -36.318  48.3610  0.00  0.00     0.000 OA
ATOM     38   O  SGN C   2      18.833 -38.490  49.3460  0.00  0.00     0.000 OA
ATOM     39   O  SGN C   2      18.967 -38.267  46.9430  0.00  0.00     0.000 OA
ENDBRANCH 24 34
BRANCH 20 40
ATOM     40  O4  IDS C   3      12.575 -36.888  47.7640  0.00  0.00     0.000 O
BRANCH 40 44
ATOM     41  C1  IDS C   3       9.713 -37.518  45.8060  0.00  0.00     0.000 C
ATOM     42  C2  IDS C   3       9.634 -37.424  47.3270  0.00  0.00     0.000 C
ATOM     43  C3  IDS C   3      10.664 -38.348  47.9710  0.00  0.00     0.000 C
ATOM     44  C4  IDS C   3      12.047 -38.156  47.3680  0.00  0.00     0.000 C
ATOM     45  C5  IDS C   3      11.964 -38.228  45.8290  0.00  0.00     0.000 C
ATOM     46  O5  IDS C   3      11.038 -37.248  45.3560  0.00  0.00     0.000 O
ATOM     47   O  IDS C   3      10.249 -39.703  47.8120  0.00  0.00     0.000 O
ATOM     49  HD  IDS C   3      10.195 -38.922  48.1830  0.00  0.00     0.000 HD
BRANCH 42 49
ATOM     49   O  IDS C   3       9.904 -36.035  47.7660  0.00  0.00     0.000 O
ATOM     50   S  IDS C   3       8.711 -35.142  48.3540  0.00  0.00     0.000 S
ATOM     51   O  IDS C   3       8.459 -35.733  49.6490  0.00  0.00     0.000 OA
ATOM     52   O  IDS C   3       7.562 -35.228  47.4680  0.00  0.00     0.000 OA
ATOM     53   O  IDS C   3       9.230 -33.793  48.4410  0.00  0.00     0.000 OA
ENDBRANCH 42 49
BRANCH 45 54
ATOM     54   C  IDS C   3      13.303 -38.005  45.1430  0.00  0.00     0.000 C
ATOM     55   O  IDS C   3      14.163 -38.843  45.2280  0.00  0.00     0.000 OA
ATOM     56   O  IDS C   3      13.505 -36.977  44.5270  0.00  0.00     0.000 OA
ENDBRANCH 45 54
BRANCH 41 57
ATOM     57  O4  SGN C   4       9.073 -38.639  45.4500  0.00  0.00     0.000 O
BRANCH 57 61
ATOM     58  C1  SGN C   4       8.369 -40.841  41.9600  0.00  0.00     0.000 C
ATOM     59  C2  SGN C   4       9.770 -40.960  42.5810  0.00  0.00     0.000 C
ATOM     60  C3  SGN C   4       9.777 -40.460  44.0320  0.00  0.00     0.000 C
ATOM     61  C4  SGN C   4       9.210 -39.051  44.0870  0.00  0.00     0.000 C
ATOM     62  C5  SGN C   4       7.833 -39.001  43.4270  0.00  0.00     0.000 C
ATOM     63  O5  SGN C   4       7.898 -39.507  42.0800  0.00  0.00     0.000 O
BRANCH 59 66
ATOM     64   N  SGN C   4      10.150 -42.351  42.3130  0.00  0.00     0.000 N
ATOM     66  HD  SGN C   4      10.086 -41.558  42.6550  0.00  0.00     0.000 HD
ATOM     66   O  SGN C   4      11.661 -44.091  41.5230  0.00  0.00     0.000 OA
ATOM     67   O  SGN C   4      11.452 -41.985  40.2710  0.00  0.00     0.000 OA
ATOM     68   S  SGN C   4      11.584 -42.677  41.6720  0.00  0.00     0.000 S
ATOM     69   O  SGN C   4      12.576 -42.002  42.4290  0.00  0.00     0.000 OA
ENDBRANCH 59 66
BRANCH 62 70
ATOM     70   C  SGN C   4       7.307 -37.590  43.3470  0.00  0.00     0.000 C
ATOM     71   S  SGN C   4       7.300 -35.476  41.8980  0.00  0.00     0.000 S
ATOM     72   O  SGN C   4       5.869 -35.359  42.1000  0.00  0.00     0.000 OA
ATOM     73   O  SGN C   4       8.080 -34.793  42.9100  0.00  0.00     0.000 OA
ATOM     74   O  SGN C   4       7.717 -35.185  40.5450  0.00  0.00     0.000 OA
ATOM     75   O  SGN C   4       7.608 -37.025  42.0660  0.00  0.00     0.000 O
ENDBRANCH 62 70
ENDBRANCH 57 61
ENDBRANCH 41 57
ENDBRANCH 40 44
ENDBRANCH 20 40
ENDBRANCH 19 23
ENDBRANCH 1 19
TORSDOF 14
ENDMDL
MODEL 8
REMARK VINA RESULT:      -8.1      6.097     11.537
ROOT
ATOM      1  C1  IDS C   1      19.769 -31.915  25.2250  0.00  0.00     0.000 C
ATOM      2  C2  IDS C   1      19.612 -32.107  23.7270  0.00  0.00     0.000 C
ATOM      3  C3  IDS C   1      18.139 -32.109  23.3340  0.00  0.00     0.000 C
ATOM      4  C4  IDS C   1      17.414 -30.889  23.9020  0.00  0.00     0.000 C
ATOM      5  C5  IDS C   1      17.720 -30.739  25.4060  0.00  0.00     0.000 C
ATOM      6  O5  IDS C   1      19.126 -30.707  25.6280  0.00  0.00     0.000 O
ATOM      7   O  IDS C   1      17.526 -33.315  23.7940  0.00  0.00     0.000 O
ATOM      9  HD  IDS C   1      16.842 -32.783  23.7800  0.00  0.00     0.000 HD
ATOM      9   O  IDS C   1      17.861 -29.715  23.2060  0.00  0.00     0.000 O
ATOM     11  HD  IDS C   1      17.178 -29.183  23.1920  0.00  0.00     0.000 HD
ENDROOT
BRANCH 2 11
ATOM     11   O  IDS C   1      20.270 -30.999  22.9990  0.00  0.00     0.000 O
ATOM     12   S  IDS C   1      21.841 -30.749  23.1470  0.00  0.00     0.000 S
ATOM     13   O  IDS C   1      22.202 -30.280  21.8270  0.00  0.00     0.000 OA
ATOM     14   O  IDS C   1      22.491 -31.987  23.5030  0.00  0.00     0.000 OA
ATOM     15   O  IDS C   1      21.953 -29.735  24.1660  0.00  0.00     0.000 OA
ENDBRANCH 2 11
BRANCH 5 16
ATOM     16   C  IDS C   1      17.127 -29.482  26.0160  0.00  0.00     0.000 C
ATOM     17   O  IDS C   1      17.508 -29.128  27.1120  0.00  0.00     0.000 OA
ATOM     18   O  IDS C   1      16.283 -28.856  25.4360  0.00  0.00     0.000 OA
ENDBRANCH 5 16
BRANCH 1 19
ATOM     19  O4  SGN C   2      19.599 -32.965  26.0350  0.00  0.00     0.000 O
BRANCH 19 23
ATOM     20  C1  SGN C   2      20.705 -34.707  29.6640  0.00  0.00     0.000 C
ATOM     21  C2  SGN C   2      20.142 -33.283  29.7320  0.00  0.00     0.000 C
ATOM     22  C3  SGN C   2      19.397 -32.960  28.4390  0.00  0.00     0.000 C
ATOM     23  C4  SGN C   2      20.331 -33.149  27.2480  0.00  0.00     0.000 C
ATOM     24  C5  SGN C   2      20.931 -34.557  27.2770  0.00  0.00     0.000 C
ATOM     25  O5  SGN C   2      21.572 -34.788  28.5450  0.00  0.00     0.000 O
ATOM     26   O  SGN C   2      18.882 -31.635  28.4780  0.00  0.00     0.000 O
ATOM     28  HD  SGN C   2      18.545 -30.847  28.6100  0.00  0.00     0.000 HD
BRANCH 21 30
ATOM     28   N  SGN C   2      19.766 -32.256  30.7120  0.00  0.00     0.000 N
ATOM     30  HD  SGN C   2      20.382 -31.715  30.9900  0.00  0.00     0.000 HD
ATOM     30   S  SGN C   2      19.952 -32.501  32.2820  0.00  0.00     0.000 S
ATOM     31   O  SGN C   2      21.317 -32.873  32.4460  0.00  0.00     0.000 OA
ATOM     32   O  SGN C   2      19.437 -31.379  32.9760  0.00  0.00     0.000 OA
ATOM     33   O  SGN C   2      19.004 -33.708  32.5940  0.00  0.00     0.000 OA
ENDBRANCH 21 30
BRANCH 24 34
ATOM     34   C  SGN C   2      21.984 -34.790  26.2190  0.00  0.00     0.000 C
ATOM     35   O  SGN C   2      23.074 -35.527  26.7980  0.00  0.00     0.000 O
ATOM     36   S  SGN C   2      24.473 -35.477  26.0290  0.00  0.00     0.000 S
ATOM     37   O  SGN C   2      24.758 -34.064  25.8740  0.00  0.00     0.000 OA
ATOM     38   O  SGN C   2      25.412 -36.161  26.8850  0.00  0.00     0.000 OA
ATOM     39   O  SGN C   2      24.212 -36.162  24.7870  0.00  0.00     0.000 OA
ENDBRANCH 24 34
BRANCH 20 40
ATOM     40  O4  IDS C   3      19.833 -35.711  29.6150  0.00  0.00     0.000 O
BRANCH 40 44
ATOM     41  C1  IDS C   3      17.434 -38.253  30.0790  0.00  0.00     0.000 C
ATOM     42  C2  IDS C   3      17.632 -37.145  31.1090  0.00  0.00     0.000 C
ATOM     43  C3  IDS C   3      19.105 -37.038  31.4960  0.00  0.00     0.000 C
ATOM     44  C4  IDS C   3      20.005 -36.969  30.2730  0.00  0.00     0.000 C
ATOM     45  C5  IDS C   3      19.659 -38.117  29.3010  0.00  0.00     0.000 C
ATOM     46  O5  IDS C   3      18.276 -38.041  28.9480  0.00  0.00     0.000 O
ATOM     47   O  IDS C   3      19.466 -38.157  32.3020  0.00  0.00     0.000 O
ATOM     49  HD  IDS C   3      19.076 -37.393  32.1800  0.00  0.00     0.000 HD
BRANCH 42 49
ATOM     49   O  IDS C   3      17.193 -35.845  30.5520  0.00  0.00     0.000 O
ATOM     50   S  IDS C   3      15.765 -35.246  30.9640  0.00  0.00     0.000 S
ATOM     51   O  IDS C   3      15.960 -34.838  32.3380  0.00  0.00     0.000 OA
ATOM     52   O  IDS C   3      14.751 -36.278  30.8270  0.00  0.00     0.000 OA
ATOM     53   O  IDS C   3      15.529 -34.131  30.0730  0.00  0.00     0.000 OA
ENDBRANCH 42 49
BRANCH 45 54
ATOM     54   C  IDS C   3      20.489 -38.098  28.0270  0.00  0.00     0.000 C
ATOM     55   O  IDS C   3      21.671 -38.318  28.0820  0.00  0.00     0.000 OA
ATOM     56   O  IDS C   3      19.960 -37.846  26.9620  0.00  0.00     0.000 OA
ENDBRANCH 45 54
BRANCH 41 57
ATOM     57  O4  SGN C   4      17.444 -39.414  30.7440  0.00  0.00     0.000 O
BRANCH 57 61
ATOM     58  C1  SGN C   4      16.869 -43.482  29.9370  0.00  0.00     0.000 C
ATOM     59  C2  SGN C   4      18.133 -42.832  29.3500  0.00  0.00     0.000 C
ATOM     60  C3  SGN C   4      18.440 -41.495  30.0380  0.00  0.00     0.000 C
ATOM     61  C4  SGN C   4      17.215 -40.598  29.9740  0.00  0.00     0.000 C
ATOM     62  C5  SGN C   4      15.994 -41.317  30.5460  0.00  0.00     0.000 C
ATOM     63  O5  SGN C   4      15.782 -42.571  29.8710  0.00  0.00     0.000 O
BRANCH 59 66
ATOM     64   N  SGN C   4      18.895 -43.935  28.7540  0.00  0.00     0.000 N
ATOM     66  HD  SGN C   4      18.438 -43.438  29.2970  0.00  0.00     0.000 HD
ATOM     66   O  SGN C   4      20.878 -45.322  28.4770  0.00  0.00     0.000 OA
ATOM     67   O  SGN C   4      21.111 -42.892  28.7640  0.00  0.00     0.000 OA
ATOM     68   S  SGN C   4      20.402 -44.211  29.2290  0.00  0.00     0.000 S
ATOM     69   O  SGN C   4      20.422 -44.269  30.6460  0.00  0.00     0.000 OA
ENDBRANCH 59 66
BRANCH 62 70
ATOM     70   C  SGN C   4      14.738 -40.500  30.3720  0.00  0.00     0.000 C
ATOM     71   S  SGN C   4      12.753 -40.088  28.8030  0.00  0.00     0.000 S
ATOM     72   O  SGN C   4      11.863 -40.109  29.9470  0.00  0.00     0.000 OA
ATOM     73   O  SGN C   4      13.276 -38.769  28.5070  0.00  0.00     0.000 OA
ATOM     74   O  SGN C   4      12.227 -40.779  27.6480  0.00  0.00     0.000 OA
ATOM     75   O  SGN C   4      13.997 -40.973  29.2410  0.00  0.00     0.000 O
ENDBRANCH 62 70
ENDBRANCH 57 61
ENDBRANCH 41 57
ENDBRANCH 40 44
ENDBRANCH 20 40
ENDBRANCH 19 23
ENDBRANCH 1 19
TORSDOF 14
ENDMDL
MODEL 9
REMARK VINA RESULT:      -8.1      4.648      9.702
ROOT
ATOM      1  C1  IDS C   1      14.270 -34.231  25.6680  0.00  0.00     0.000 C
ATOM      2  C2  IDS C   1      14.284 -34.031  24.1630  0.00  0.00     0.000 C
ATOM      3  C3  IDS C   1      14.403 -35.368  23.4410  0.00  0.00     0.000 C
ATOM      4  C4  IDS C   1      13.355 -36.362  23.9440  0.00  0.00     0.000 C
ATOM      5  C5  IDS C   1      13.365 -36.414  25.4850  0.00  0.00     0.000 C
ATOM      6  O5  IDS C   1      13.203 -35.108  26.0290  0.00  0.00     0.000 O
ATOM      7   O  IDS C   1      15.719 -35.893  23.6240  0.00  0.00     0.000 O
ATOM      9  HD  IDS C   1      15.270 -36.624  23.5050  0.00  0.00     0.000 HD
ATOM      9   O  IDS C   1      12.059 -35.942  23.4900  0.00  0.00     0.000 O
ATOM     11  HD  IDS C   1      11.610 -36.673  23.3710  0.00  0.00     0.000 HD
ENDROOT
BRANCH 2 11
ATOM     11   O  IDS C   1      13.025 -33.391  23.7200  0.00  0.00     0.000 O
ATOM     12   S  IDS C   1      12.604 -31.954  24.2770  0.00  0.00     0.000 S
ATOM     13   O  IDS C   1      11.940 -31.365  23.1350  0.00  0.00     0.000 OA
ATOM     14   O  IDS C   1      13.787 -31.230  24.6770  0.00  0.00     0.000 OA
ATOM     15   O  IDS C   1      11.714 -32.237  25.3750  0.00  0.00     0.000 OA
ENDBRANCH 2 11
BRANCH 5 16
ATOM     16   C  IDS C   1      12.272 -37.294  26.0630  0.00  0.00     0.000 C
ATOM     17   O  IDS C   1      11.815 -37.019  27.1520  0.00  0.00     0.000 OA
ATOM     18   O  IDS C   1      11.875 -38.255  25.4630  0.00  0.00     0.000 OA
ENDBRANCH 5 16
BRANCH 1 19
ATOM     19  O4  SGN C   2      15.427 -34.425  26.3080  0.00  0.00     0.000 O
BRANCH 19 23
ATOM     20  C1  SGN C   2      17.690 -33.444  29.6750  0.00  0.00     0.000 C
ATOM     21  C2  SGN C   2      16.464 -34.333  29.9100  0.00  0.00     0.000 C
ATOM     22  C3  SGN C   2      16.013 -34.949  28.5890  0.00  0.00     0.000 C
ATOM     23  C4  SGN C   2      15.731 -33.844  27.5770  0.00  0.00     0.000 C
ATOM     24  C5  SGN C   2      16.956 -32.935  27.4460  0.00  0.00     0.000 C
ATOM     25  O5  SGN C   2      17.335 -32.437  28.7420  0.00  0.00     0.000 O
ATOM     26   O  SGN C   2      14.865 -35.767  28.7860  0.00  0.00     0.000 O
ATOM     28  HD  SGN C   2      14.214 -36.296  29.0010  0.00  0.00     0.000 HD
BRANCH 21 30
ATOM     28   N  SGN C   2      16.274 -33.958  31.3180  0.00  0.00     0.000 N
ATOM     30  HD  SGN C   2      16.979 -33.792  31.7920  0.00  0.00     0.000 HD
ATOM     30   S  SGN C   2      16.341 -35.052  32.4840  0.00  0.00     0.000 S
ATOM     31   O  SGN C   2      17.589 -35.715  32.3060  0.00  0.00     0.000 OA
ATOM     32   O  SGN C   2      16.047 -34.415  33.7140  0.00  0.00     0.000 OA
ATOM     33   O  SGN C   2      15.147 -36.016  32.1700  0.00  0.00     0.000 OA
ENDBRANCH 21 30
BRANCH 24 34
ATOM     34   C  SGN C   2      16.721 -31.723  26.5760  0.00  0.00     0.000 C
ATOM     35   O  SGN C   2      17.773 -31.638  25.5980  0.00  0.00     0.000 O
ATOM     36   S  SGN C   2      18.000 -30.222  24.8980  0.00  0.00     0.000 S
ATOM     37   O  SGN C   2      18.165 -29.289  25.9950  0.00  0.00     0.000 OA
ATOM     38   O  SGN C   2      19.186 -30.373  24.0900  0.00  0.00     0.000 OA
ATOM     39   O  SGN C   2      16.796 -30.016  24.1300  0.00  0.00     0.000 OA
ENDBRANCH 24 34
BRANCH 20 40
ATOM     40  O4  IDS C   3      18.812 -34.036  29.2740  0.00  0.00     0.000 O
BRANCH 40 44
ATOM     41  C1  IDS C   3      21.836 -35.801  28.8620  0.00  0.00     0.000 C
ATOM     42  C2  IDS C   3      21.002 -35.933  30.1330  0.00  0.00     0.000 C
ATOM     43  C3  IDS C   3      20.686 -34.554  30.7060  0.00  0.00     0.000 C
ATOM     44  C4  IDS C   3      20.128 -33.618  29.6450  0.00  0.00     0.000 C
ATOM     45  C5  IDS C   3      21.045 -33.624  28.4040  0.00  0.00     0.000 C
ATOM     46  O5  IDS C   3      21.178 -34.961  27.9170  0.00  0.00     0.000 O
ATOM     47   O  IDS C   3      21.868 -33.995  31.2740  0.00  0.00     0.000 O
ATOM     49  HD  IDS C   3      21.198 -34.543  31.2820  0.00  0.00     0.000 HD
BRANCH 42 49
ATOM     49   O  IDS C   3      19.727 -36.627  29.8370  0.00  0.00     0.000 O
ATOM     50   S  IDS C   3      19.588 -38.194  30.1370  0.00  0.00     0.000 S
ATOM     51   O  IDS C   3      19.537 -38.254  31.5810  0.00  0.00     0.000 OA
ATOM     52   O  IDS C   3      20.739 -38.894  29.5900  0.00  0.00     0.000 OA
ATOM     53   O  IDS C   3      18.351 -38.611  29.5110  0.00  0.00     0.000 OA
ENDBRANCH 42 49
BRANCH 45 54
ATOM     54   C  IDS C   3      20.538 -32.741  27.2750  0.00  0.00     0.000 C
ATOM     55   O  IDS C   3      20.380 -33.209  26.1770  0.00  0.00     0.000 OA
ATOM     56   O  IDS C   3      20.309 -31.565  27.4810  0.00  0.00     0.000 OA
ENDBRANCH 45 54
BRANCH 41 57
ATOM     57  O4  SGN C   4      23.097 -35.564  29.2430  0.00  0.00     0.000 O
BRANCH 57 61
ATOM     58  C1  SGN C   4      26.654 -34.189  27.5140  0.00  0.00     0.000 C
ATOM     59  C2  SGN C   4      25.396 -33.337  27.2790  0.00  0.00     0.000 C
ATOM     60  C3  SGN C   4      24.285 -33.701  28.2740  0.00  0.00     0.000 C
ATOM     61  C4  SGN C   4      24.021 -35.196  28.2140  0.00  0.00     0.000 C
ATOM     62  C5  SGN C   4      25.316 -35.979  28.4260  0.00  0.00     0.000 C
ATOM     63  O5  SGN C   4      26.318 -35.568  27.4760  0.00  0.00     0.000 O
BRANCH 59 66
ATOM     64   N  SGN C   4      25.836 -31.938  27.3030  0.00  0.00     0.000 N
ATOM     66  HD  SGN C   4      25.355 -32.658  27.3080  0.00  0.00     0.000 HD
ATOM     66   O  SGN C   4      26.142 -29.726  26.3300  0.00  0.00     0.000 OA
ATOM     67   O  SGN C   4      26.523 -31.732  24.9610  0.00  0.00     0.000 OA
ATOM     68   S  SGN C   4      25.613 -31.009  26.0140  0.00  0.00     0.000 S
ATOM     69   O  SGN C   4      24.259 -31.123  25.6090  0.00  0.00     0.000 OA
ENDBRANCH 59 66
BRANCH 62 70
ATOM     70   C  SGN C   4      25.105 -37.460  28.2380  0.00  0.00     0.000 C
ATOM     71   S  SGN C   4      25.967 -39.767  28.9510  0.00  0.00     0.000 S
ATOM     72   O  SGN C   4      24.598 -40.204  29.1390  0.00  0.00     0.000 OA
ATOM     73   O  SGN C   4      26.459 -39.985  27.6050  0.00  0.00     0.000 OA
ATOM     74   O  SGN C   4      26.868 -40.227  29.9820  0.00  0.00     0.000 OA
ATOM     75   O  SGN C   4      25.922 -38.193  29.1590  0.00  0.00     0.000 O
ENDBRANCH 62 70
ENDBRANCH 57 61
ENDBRANCH 41 57
ENDBRANCH 40 44
ENDBRANCH 20 40
ENDBRANCH 19 23
ENDBRANCH 1 19
TORSDOF 14
ENDMDL
MODEL 10
REMARK VINA RESULT:      -8.1     30.909     35.864
ROOT
ATOM      1  C1  IDS C   1      41.621 -59.255  32.2660  0.00  0.00     0.000 C
ATOM      2  C2  IDS C   1      40.649 -58.609  33.2380  0.00  0.00     0.000 C
ATOM      3  C3  IDS C   1      40.456 -57.134  32.9090  0.00  0.00     0.000 C
ATOM      4  C4  IDS C   1      40.109 -56.938  31.4330  0.00  0.00     0.000 C
ATOM      5  C5  IDS C   1      41.103 -57.713  30.5440  0.00  0.00     0.000 C
ATOM      6  O5  IDS C   1      41.153 -59.082  30.9300  0.00  0.00     0.000 O
ATOM      7   O  IDS C   1      41.643 -56.412  33.2430  0.00  0.00     0.000 O
ATOM      9  HD  IDS C   1      41.322 -55.909  32.6150  0.00  0.00     0.000 HD
ATOM      9   O  IDS C   1      38.779 -57.426  31.1990  0.00  0.00     0.000 O
ATOM     11  HD  IDS C   1      38.458 -56.924  30.5710  0.00  0.00     0.000 HD
ENDROOT
BRANCH 2 11
ATOM     11   O  IDS C   1      39.326 -59.266  33.1510  0.00  0.00     0.000 O
ATOM     12   S  IDS C   1      38.474 -59.559  34.4710  0.00  0.00     0.000 S
ATOM     13   O  IDS C   1      37.117 -59.377  34.0060  0.00  0.00     0.000 OA
ATOM     14   O  IDS C   1      38.848 -58.619  35.5000  0.00  0.00     0.000 OA
ATOM     15   O  IDS C   1      38.787 -60.925  34.8090  0.00  0.00     0.000 OA
ENDBRANCH 2 11
BRANCH 5 16
ATOM     16   C  IDS C   1      40.753 -57.660  29.0680  0.00  0.00     0.000 C
ATOM     17   O  IDS C   1      40.364 -56.613  28.5960  0.00  0.00     0.000 OA
ATOM     18   O  IDS C   1      40.842 -58.639  28.3790  0.00  0.00     0.000 OA
ENDBRANCH 5 16
BRANCH 1 19
ATOM     19  O4  SGN C   2      42.933 -59.087  32.4520  0.00  0.00     0.000 O
BRANCH 19 23
ATOM     20  C1  SGN C   2      46.701 -60.703  31.6660  0.00  0.00     0.000 C
ATOM     21  C2  SGN C   2      46.118 -59.771  30.5960  0.00  0.00     0.000 C
ATOM     22  C3  SGN C   2      44.987 -58.940  31.1960  0.00  0.00     0.000 C
ATOM     23  C4  SGN C   2      43.928 -59.865  31.7860  0.00  0.00     0.000 C
ATOM     24  C5  SGN C   2      44.578 -60.831  32.7810  0.00  0.00     0.000 C
ATOM     25  O5  SGN C   2      45.658 -61.536  32.1430  0.00  0.00     0.000 O
ATOM     26   O  SGN C   2      44.424 -58.081  30.2120  0.00  0.00     0.000 O
ATOM     28  HD  SGN C   2      44.186 -57.543  29.5760  0.00  0.00     0.000 HD
BRANCH 21 30
ATOM     28   N  SGN C   2      47.514 -59.782  30.1390  0.00  0.00     0.000 N
ATOM     30  HD  SGN C   2      47.950 -59.034  30.1480  0.00  0.00     0.000 HD
ATOM     30   S  SGN C   2      47.895 -59.425  28.6270  0.00  0.00     0.000 S
ATOM     31   O  SGN C   2      47.296 -58.157  28.3770  0.00  0.00     0.000 OA
ATOM     32   O  SGN C   2      49.291 -59.592  28.4630  0.00  0.00     0.000 OA
ATOM     33   O  SGN C   2      47.197 -60.547  27.7840  0.00  0.00     0.000 OA
ENDBRANCH 21 30
BRANCH 24 34
ATOM     34   C  SGN C   2      43.632 -61.885  33.3080  0.00  0.00     0.000 C
ATOM     35   O  SGN C   2      43.068 -61.427  34.5500  0.00  0.00     0.000 O
ATOM     36   S  SGN C   2      42.431 -62.534  35.5080  0.00  0.00     0.000 S
ATOM     37   O  SGN C   2      43.482 -63.516  35.6870  0.00  0.00     0.000 OA
ATOM     38   O  SGN C   2      42.080 -61.840  36.7240  0.00  0.00     0.000 OA
ATOM     39   O  SGN C   2      41.293 -63.022  34.7680  0.00  0.00     0.000 OA
ENDBRANCH 24 34
BRANCH 20 40
ATOM     40  O4  IDS C   3      47.320 -60.140  32.7010  0.00  0.00     0.000 O
BRANCH 40 44
ATOM     41  C1  IDS C   3      49.126 -58.759  35.3950  0.00  0.00     0.000 C
ATOM     42  C2  IDS C   3      49.452 -58.400  33.9480  0.00  0.00     0.000 C
ATOM     43  C3  IDS C   3      49.650 -59.666  33.1180  0.00  0.00     0.000 C
ATOM     44  C4  IDS C   3      48.507 -60.650  33.3120  0.00  0.00     0.000 C
ATOM     45  C5  IDS C   3      48.260 -60.879  34.8180  0.00  0.00     0.000 C
ATOM     46  O5  IDS C   3      47.996 -59.626  35.4530  0.00  0.00     0.000 O
ATOM     47   O  IDS C   3      50.885 -60.279  33.4780  0.00  0.00     0.000 O
ATOM     49  HD  IDS C   3      50.420 -59.666  33.0810  0.00  0.00     0.000 HD
BRANCH 42 49
ATOM     49   O  IDS C   3      48.345 -57.613  33.3570  0.00  0.00     0.000 O
ATOM     50   S  IDS C   3      48.654 -56.564  32.1870  0.00  0.00     0.000 S
ATOM     51   O  IDS C   3      48.950 -57.409  31.0510  0.00  0.00     0.000 OA
ATOM     52   O  IDS C   3      49.781 -55.730  32.5710  0.00  0.00     0.000 OA
ATOM     53   O  IDS C   3      47.441 -55.793  32.0140  0.00  0.00     0.000 OA
ENDBRANCH 42 49
BRANCH 45 54
ATOM     54   C  IDS C   3      47.103 -61.824  35.1020  0.00  0.00     0.000 C
ATOM     55   O  IDS C   3      46.178 -61.449  35.7750  0.00  0.00     0.000 OA
ATOM     56   O  IDS C   3      47.124 -62.957  34.6640  0.00  0.00     0.000 OA
ENDBRANCH 45 54
BRANCH 41 57
ATOM     57  O4  SGN C   4      50.281 -59.084  35.9880  0.00  0.00     0.000 O
BRANCH 57 61
ATOM     58  C1  SGN C   4      51.797 -59.486  39.8700  0.00  0.00     0.000 C
ATOM     59  C2  SGN C   4      50.670 -60.449  39.4650  0.00  0.00     0.000 C
ATOM     60  C3  SGN C   4      50.492 -60.486  37.9410  0.00  0.00     0.000 C
ATOM     61  C4  SGN C   4      50.295 -59.072  37.4190  0.00  0.00     0.000 C
ATOM     62  C5  SGN C   4      51.434 -58.166  37.8830  0.00  0.00     0.000 C
ATOM     63  O5  SGN C   4      51.558 -58.200  39.3170  0.00  0.00     0.000 O
BRANCH 59 66
ATOM     64   N  SGN C   4      51.023 -61.652  40.2260  0.00  0.00     0.000 N
ATOM     66  HD  SGN C   4      50.738 -61.109  39.6140  0.00  0.00     0.000 HD
ATOM     66   O  SGN C   4      50.510 -63.607  41.5850  0.00  0.00     0.000 OA
ATOM     67   O  SGN C   4      49.305 -61.499  41.9660  0.00  0.00     0.000 OA
ATOM     68   S  SGN C   4      49.869 -62.524  40.9210  0.00  0.00     0.000 S
ATOM     69   O  SGN C   4      48.868 -62.794  39.9540  0.00  0.00     0.000 OA
ENDBRANCH 59 66
BRANCH 62 70
ATOM     70   C  SGN C   4      51.194 -56.729  37.4910  0.00  0.00     0.000 C
ATOM     71   S  SGN C   4      49.358 -54.981  37.1080  0.00  0.00     0.000 S
ATOM     72   O  SGN C   4      50.138 -54.018  37.8600  0.00  0.00     0.000 OA
ATOM     73   O  SGN C   4      49.665 -54.987  35.6910  0.00  0.00     0.000 OA
ATOM     74   O  SGN C   4      47.944 -54.932  37.3970  0.00  0.00     0.000 OA
ATOM     75   O  SGN C   4      49.812 -56.396  37.6680  0.00  0.00     0.000 O
ENDBRANCH 62 70
ENDBRANCH 57 61
ENDBRANCH 41 57
ENDBRANCH 40 44
ENDBRANCH 20 40
ENDBRANCH 19 23
ENDBRANCH 1 19
TORSDOF 14
ENDMDL
MODEL 11
REMARK VINA RESULT:      -8.0     29.246     34.354
ROOT
ATOM      1  C1  IDS C   1      38.330 -57.463  29.1060  0.00  0.00     0.000 C
ATOM      2  C2  IDS C   1      37.545 -58.178  28.0200  0.00  0.00     0.000 C
ATOM      3  C3  IDS C   1      36.065 -58.242  28.3780  0.00  0.00     0.000 C
ATOM      4  C4  IDS C   1      35.527 -56.862  28.7530  0.00  0.00     0.000 C
ATOM      5  C5  IDS C   1      36.451 -56.192  29.7890  0.00  0.00     0.000 C
ATOM      6  O5  IDS C   1      37.792 -56.158  29.3120  0.00  0.00     0.000 O
ATOM      7   O  IDS C   1      35.875 -59.163  29.4540  0.00  0.00     0.000 O
ATOM      9  HD  IDS C   1      35.198 -58.636  29.5720  0.00  0.00     0.000 HD
ATOM      9   O  IDS C   1      35.467 -56.048  27.5710  0.00  0.00     0.000 O
ATOM     11  HD  IDS C   1      34.790 -55.521  27.6900  0.00  0.00     0.000 HD
ENDROOT
BRANCH 2 11
ATOM     11   O  IDS C   1      37.666 -57.449  26.7380  0.00  0.00     0.000 O
ATOM     12   S  IDS C   1      37.894 -58.242  25.3700  0.00  0.00     0.000 S
ATOM     13   O  IDS C   1      37.161 -57.432  24.4210  0.00  0.00     0.000 OA
ATOM     14   O  IDS C   1      37.365 -59.578  25.4970  0.00  0.00     0.000 OA
ATOM     15   O  IDS C   1      39.321 -58.213  25.1670  0.00  0.00     0.000 OA
ENDBRANCH 2 11
BRANCH 5 16
ATOM     16   C  IDS C   1      36.044 -54.769  30.1250  0.00  0.00     0.000 C
ATOM     17   O  IDS C   1      36.578 -53.853  29.5360  0.00  0.00     0.000 OA
ATOM     18   O  IDS C   1      35.220 -54.548  30.9690  0.00  0.00     0.000 OA
ENDBRANCH 5 16
BRANCH 1 19
ATOM     19  O4  SGN C   2      38.671 -58.136  30.2090  0.00  0.00     0.000 O
BRANCH 19 23
ATOM     20  C1  SGN C   2      40.966 -57.960  33.6920  0.00  0.00     0.000 C
ATOM     21  C2  SGN C   2      39.532 -57.425  33.7890  0.00  0.00     0.000 C
ATOM     22  C3  SGN C   2      38.708 -57.944  32.6140  0.00  0.00     0.000 C
ATOM     23  C4  SGN C   2      39.377 -57.547  31.3030  0.00  0.00     0.000 C
ATOM     24  C5  SGN C   2      40.830 -58.029  31.2950  0.00  0.00     0.000 C
ATOM     25  O5  SGN C   2      41.516 -57.531  32.4570  0.00  0.00     0.000 O
ATOM     26   O  SGN C   2      37.377 -57.444  32.6790  0.00  0.00     0.000 O
ATOM     28  HD  SGN C   2      36.575 -57.154  32.8300  0.00  0.00     0.000 HD
BRANCH 21 30
ATOM     28   N  SGN C   2      38.571 -57.303  34.8930  0.00  0.00     0.000 N
ATOM     30  HD  SGN C   2      38.158 -56.548  34.9890  0.00  0.00     0.000 HD
ATOM     30   S  SGN C   2      39.005 -56.691  36.3060  0.00  0.00     0.000 S
ATOM     31   O  SGN C   2      39.586 -55.426  36.0060  0.00  0.00     0.000 OA
ATOM     32   O  SGN C   2      37.900 -56.770  37.1880  0.00  0.00     0.000 OA
ATOM     33   O  SGN C   2      40.088 -57.691  36.8370  0.00  0.00     0.000 OA
ENDBRANCH 21 30
BRANCH 24 34
ATOM     34   C  SGN C   2      41.620 -57.555  30.0970  0.00  0.00     0.000 C
ATOM     35   O  SGN C   2      42.105 -58.700  29.3740  0.00  0.00     0.000 O
ATOM     36   S  SGN C   2      43.328 -58.462  28.3760  0.00  0.00     0.000 S
ATOM     37   O  SGN C   2      44.348 -57.827  29.1870  0.00  0.00     0.000 OA
ATOM     38   O  SGN C   2      43.705 -59.773  27.9030  0.00  0.00     0.000 OA
ATOM     39   O  SGN C   2      42.780 -57.609  27.3500  0.00  0.00     0.000 OA
ENDBRANCH 24 34
BRANCH 20 40
ATOM     40  O4  IDS C   3      41.143 -59.273  33.8160  0.00  0.00     0.000 O
BRANCH 40 44
ATOM     41  C1  IDS C   3      41.664 -62.707  34.4200  0.00  0.00     0.000 C
ATOM     42  C2  IDS C   3      40.882 -61.835  35.3970  0.00  0.00     0.000 C
ATOM     43  C3  IDS C   3      41.689 -60.592  35.7630  0.00  0.00     0.000 C
ATOM     44  C4  IDS C   3      42.222 -59.883  34.5280  0.00  0.00     0.000 C
ATOM     45  C5  IDS C   3      42.944 -60.895  33.6130  0.00  0.00     0.000 C
ATOM     46  O5  IDS C   3      42.046 -61.953  33.2720  0.00  0.00     0.000 O
ATOM     47   O  IDS C   3      42.770 -60.963  36.6150  0.00  0.00     0.000 O
ATOM     49  HD  IDS C   3      41.932 -60.808  36.4620  0.00  0.00     0.000 HD
BRANCH 42 49
ATOM     49   O  IDS C   3      39.602 -61.406  34.7860  0.00  0.00     0.000 O
ATOM     50   S  IDS C   3      38.252 -61.468  35.6460  0.00  0.00     0.000 S
ATOM     51   O  IDS C   3      38.411 -60.389  36.5950  0.00  0.00     0.000 OA
ATOM     52   O  IDS C   3      38.149 -62.767  36.2900  0.00  0.00     0.000 OA
ATOM     53   O  IDS C   3      37.172 -61.240  34.7080  0.00  0.00     0.000 OA
ENDBRANCH 42 49
BRANCH 45 54
ATOM     54   C  IDS C   3      43.475 -60.274  32.3300  0.00  0.00     0.000 C
ATOM     55   O  IDS C   3      44.154 -59.281  32.3850  0.00  0.00     0.000 OA
ATOM     56   O  IDS C   3      43.200 -60.771  31.2560  0.00  0.00     0.000 OA
ENDBRANCH 45 54
BRANCH 41 57
ATOM     57  O4  SGN C   4      42.567 -63.386  35.1370  0.00  0.00     0.000 O
BRANCH 57 61
ATOM     58  C1  SGN C   4      45.747 -65.851  33.9790  0.00  0.00     0.000 C
ATOM     59  C2  SGN C   4      45.084 -65.013  32.8740  0.00  0.00     0.000 C
ATOM     60  C3  SGN C   4      44.241 -63.877  33.4700  0.00  0.00     0.000 C
ATOM     61  C4  SGN C   4      43.250 -64.451  34.4680  0.00  0.00     0.000 C
ATOM     62  C5  SGN C   4      43.973 -65.294  35.5180  0.00  0.00     0.000 C
ATOM     63  O5  SGN C   4      44.762 -66.321  34.8870  0.00  0.00     0.000 O
BRANCH 59 66
ATOM     64   N  SGN C   4      45.744 -65.166  31.5730  0.00  0.00     0.000 N
ATOM     66  HD  SGN C   4      45.574 -65.149  32.4220  0.00  0.00     0.000 HD
ATOM     66   O  SGN C   4      47.285 -64.491  29.8110  0.00  0.00     0.000 OA
ATOM     67   O  SGN C   4      45.948 -62.796  30.9880  0.00  0.00     0.000 OA
ATOM     68   S  SGN C   4      46.832 -64.086  31.0990  0.00  0.00     0.000 S
ATOM     69   O  SGN C   4      47.774 -63.911  32.1450  0.00  0.00     0.000 OA
ENDBRANCH 59 66
BRANCH 62 70
ATOM     70   C  SGN C   4      43.001 -65.984  36.4410  0.00  0.00     0.000 C
ATOM     71   S  SGN C   4      41.746 -68.185  36.8350  0.00  0.00     0.000 S
ATOM     72   O  SGN C   4      42.108 -68.123  38.2380  0.00  0.00     0.000 OA
ATOM     73   O  SGN C   4      40.498 -67.513  36.5340  0.00  0.00     0.000 OA
ATOM     74   O  SGN C   4      41.845 -69.511  36.2710  0.00  0.00     0.000 OA
ATOM     75   O  SGN C   4      42.884 -67.368  36.0880  0.00  0.00     0.000 O
ENDBRANCH 62 70
ENDBRANCH 57 61
ENDBRANCH 41 57
ENDBRANCH 40 44
ENDBRANCH 20 40
ENDBRANCH 19 23
ENDBRANCH 1 19
TORSDOF 14
ENDMDL
MODEL 12
REMARK VINA RESULT:      -8.0      5.900     13.423
ROOT
ATOM      1  C1  IDS C   1      22.330 -33.998  29.0430  0.00  0.00     0.000 C
ATOM      2  C2  IDS C   1      22.998 -35.010  29.9570  0.00  0.00     0.000 C
ATOM      3  C3  IDS C   1      23.456 -36.231  29.1690  0.00  0.00     0.000 C
ATOM      4  C4  IDS C   1      24.286 -35.823  27.9520  0.00  0.00     0.000 C
ATOM      5  C5  IDS C   1      23.555 -34.728  27.1500  0.00  0.00     0.000 C
ATOM      6  O5  IDS C   1      23.224 -33.630  27.9940  0.00  0.00     0.000 O
ATOM      7   O  IDS C   1      22.317 -36.992  28.7660  0.00  0.00     0.000 O
ATOM      9  HD  IDS C   1      22.881 -37.207  28.1450  0.00  0.00     0.000 HD
ATOM      9   O  IDS C   1      25.554 -35.320  28.3990  0.00  0.00     0.000 O
ATOM     11  HD  IDS C   1      26.118 -35.535  27.7780  0.00  0.00     0.000 HD
ENDROOT
BRANCH 2 11
ATOM     11   O  IDS C   1      24.193 -34.411  30.5940  0.00  0.00     0.000 O
ATOM     12   S  IDS C   1      24.267 -34.234  32.1800  0.00  0.00     0.000 S
ATOM     13   O  IDS C   1      25.672 -34.452  32.4470  0.00  0.00     0.000 OA
ATOM     14   O  IDS C   1      23.415 -35.212  32.8110  0.00  0.00     0.000 OA
ATOM     15   O  IDS C   1      23.842 -32.876  32.4140  0.00  0.00     0.000 OA
ENDBRANCH 2 11
BRANCH 5 16
ATOM     16   C  IDS C   1      24.370 -34.189  25.9890  0.00  0.00     0.000 C
ATOM     17   O  IDS C   1      25.456 -34.679  25.7610  0.00  0.00     0.000 OA
ATOM     18   O  IDS C   1      23.959 -33.285  25.3160  0.00  0.00     0.000 OA
ENDBRANCH 5 16
BRANCH 1 19
ATOM     19  O4  SGN C   2      21.057 -34.190  28.6840  0.00  0.00     0.000 O
BRANCH 19 23
ATOM     20  C1  SGN C   2      17.440 -32.322  27.7580  0.00  0.00     0.000 C
ATOM     21  C2  SGN C   2      18.666 -31.878  26.9510  0.00  0.00     0.000 C
ATOM     22  C3  SGN C   2      19.775 -32.919  27.0840  0.00  0.00     0.000 C
ATOM     23  C4  SGN C   2      20.107 -33.130  28.5560  0.00  0.00     0.000 C
ATOM     24  C5  SGN C   2      18.835 -33.485  29.3300  0.00  0.00     0.000 C
ATOM     25  O5  SGN C   2      17.833 -32.475  29.1120  0.00  0.00     0.000 O
ATOM     26   O  SGN C   2      20.927 -32.516  26.3530  0.00  0.00     0.000 O
ATOM     28  HD  SGN C   2      21.557 -32.232  25.8310  0.00  0.00     0.000 HD
BRANCH 21 30
ATOM     28   N  SGN C   2      18.545 -31.515  25.5330  0.00  0.00     0.000 N
ATOM     30  HD  SGN C   2      19.185 -31.053  25.1770  0.00  0.00     0.000 HD
ATOM     30   S  SGN C   2      17.935 -30.104  25.0880  0.00  0.00     0.000 S
ATOM     31   O  SGN C   2      18.694 -29.127  25.7930  0.00  0.00     0.000 OA
ATOM     32   O  SGN C   2      17.874 -30.068  23.6740  0.00  0.00     0.000 OA
ATOM     33   O  SGN C   2      16.459 -30.147  25.6100  0.00  0.00     0.000 OA
ENDBRANCH 21 30
BRANCH 24 34
ATOM     34   C  SGN C   2      19.037 -33.569  30.8250  0.00  0.00     0.000 C
ATOM     35   O  SGN C   2      18.648 -32.319  31.4200  0.00  0.00     0.000 O
ATOM     36   S  SGN C   2      19.206 -32.008  32.8830  0.00  0.00     0.000 S
ATOM     37   O  SGN C   2      20.643 -32.163  32.7710  0.00  0.00     0.000 OA
ATOM     38   O  SGN C   2      18.796 -30.655  33.1760  0.00  0.00     0.000 OA
ATOM     39   O  SGN C   2      18.573 -33.001  33.7160  0.00  0.00     0.000 OA
ENDBRANCH 24 34
BRANCH 20 40
ATOM     40  O4  IDS C   3      16.806 -33.422  27.3590  0.00  0.00     0.000 O
BRANCH 40 44
ATOM     41  C1  IDS C   3      14.464 -35.306  25.5180  0.00  0.00     0.000 C
ATOM     42  C2  IDS C   3      14.540 -33.787  25.3940  0.00  0.00     0.000 C
ATOM     43  C3  IDS C   3      14.481 -33.138  26.7740  0.00  0.00     0.000 C
ATOM     44  C4  IDS C   3      15.473 -33.772  27.7370  0.00  0.00     0.000 C
ATOM     45  C5  IDS C   3      15.313 -35.307  27.7210  0.00  0.00     0.000 C
ATOM     46  O5  IDS C   3      15.486 -35.789  26.3860  0.00  0.00     0.000 O
ATOM     47   O  IDS C   3      13.159 -33.251  27.2940  0.00  0.00     0.000 O
ATOM     49  HD  IDS C   3      13.748 -32.901  26.7640  0.00  0.00     0.000 HD
BRANCH 42 49
ATOM     49   O  IDS C   3      15.809 -33.393  24.7380  0.00  0.00     0.000 O
ATOM     50   S  IDS C   3      15.817 -33.030  23.1780  0.00  0.00     0.000 S
ATOM     51   O  IDS C   3      15.142 -31.752  23.1290  0.00  0.00     0.000 OA
ATOM     52   O  IDS C   3      15.111 -34.063  22.4380  0.00  0.00     0.000 OA
ATOM     53   O  IDS C   3      17.211 -32.945  22.7960  0.00  0.00     0.000 OA
ENDBRANCH 42 49
BRANCH 45 54
ATOM     54   C  IDS C   3      16.298 -36.025  28.6300  0.00  0.00     0.000 C
ATOM     55   O  IDS C   3      17.138 -36.742  28.1520  0.00  0.00     0.000 OA
ATOM     56   O  IDS C   3      16.222 -35.886  29.8360  0.00  0.00     0.000 OA
ENDBRANCH 45 54
BRANCH 41 57
ATOM     57  O4  SGN C   4      13.178 -35.619  25.7170  0.00  0.00     0.000 O
BRANCH 57 61
ATOM     58  C1  SGN C   4      10.594 -38.796  24.8460  0.00  0.00     0.000 C
ATOM     59  C2  SGN C   4      11.521 -38.972  26.0600  0.00  0.00     0.000 C
ATOM     60  C3  SGN C   4      12.101 -37.625  26.5150  0.00  0.00     0.000 C
ATOM     61  C4  SGN C   4      12.771 -36.937  25.3370  0.00  0.00     0.000 C
ATOM     62  C5  SGN C   4      11.803 -36.823  24.1610  0.00  0.00     0.000 C
ATOM     63  O5  SGN C   4      11.282 -38.118  23.8050  0.00  0.00     0.000 O
BRANCH 59 66
ATOM     64   N  SGN C   4      10.710 -39.745  27.0050  0.00  0.00     0.000 N
ATOM     66  HD  SGN C   4      11.301 -39.218  26.6540  0.00  0.00     0.000 HD
ATOM     66   O  SGN C   4      10.316 -41.587  28.5500  0.00  0.00     0.000 OA
ATOM     67   O  SGN C   4      11.551 -41.981  26.4610  0.00  0.00     0.000 OA
ATOM     68   S  SGN C   4      11.327 -41.051  27.7040  0.00  0.00     0.000 S
ATOM     69   O  SGN C   4      12.588 -40.709  28.2570  0.00  0.00     0.000 OA
ENDBRANCH 59 66
BRANCH 62 70
ATOM     70   C  SGN C   4      12.483 -36.266  22.9350  0.00  0.00     0.000 C
ATOM     71   S  SGN C   4      12.473 -36.322  20.3720  0.00  0.00     0.000 S
ATOM     72   O  SGN C   4      12.582 -34.877  20.3540  0.00  0.00     0.000 OA
ATOM     73   O  SGN C   4      13.757 -36.994  20.3940  0.00  0.00     0.000 OA
ATOM     74   O  SGN C   4      11.558 -36.846  19.3840  0.00  0.00     0.000 OA
ATOM     75   O  SGN C   4      11.770 -36.659  21.7560  0.00  0.00     0.000 O
ENDBRANCH 62 70
ENDBRANCH 57 61
ENDBRANCH 41 57
ENDBRANCH 40 44
ENDBRANCH 20 40
ENDBRANCH 19 23
ENDBRANCH 1 19
TORSDOF 14
ENDMDL
MODEL 13
REMARK VINA RESULT:      -8.0      9.177     15.595
ROOT
ATOM      1  C1  IDS C   1      25.835 -42.221  34.0370  0.00  0.00     0.000 C
ATOM      2  C2  IDS C   1      26.936 -41.366  34.6390  0.00  0.00     0.000 C
ATOM      3  C3  IDS C   1      26.561 -40.913  36.0450  0.00  0.00     0.000 C
ATOM      4  C4  IDS C   1      26.127 -42.097  36.9090  0.00  0.00     0.000 C
ATOM      5  C5  IDS C   1      25.079 -42.947  36.1620  0.00  0.00     0.000 C
ATOM      6  O5  IDS C   1      25.572 -43.338  34.8850  0.00  0.00     0.000 O
ATOM      7   O  IDS C   1      25.518 -39.940  35.9690  0.00  0.00     0.000 O
ATOM      9  HD  IDS C   1      25.370 -40.272  36.7550  0.00  0.00     0.000 HD
ATOM      9   O  IDS C   1      27.275 -42.908  37.2020  0.00  0.00     0.000 O
ATOM     11  HD  IDS C   1      27.128 -43.240  37.9880  0.00  0.00     0.000 HD
ENDROOT
BRANCH 2 11
ATOM     11   O  IDS C   1      28.191 -42.144  34.7370  0.00  0.00     0.000 O
ATOM     12   S  IDS C   1      29.579 -41.512  34.2590  0.00  0.00     0.000 S
ATOM     13   O  IDS C   1      30.517 -42.089  35.1970  0.00  0.00     0.000 OA
ATOM     14   O  IDS C   1      29.506 -40.074  34.3470  0.00  0.00     0.000 OA
ATOM     15   O  IDS C   1      29.750 -41.990  32.9100  0.00  0.00     0.000 OA
ENDBRANCH 2 11
BRANCH 5 16
ATOM     16   C  IDS C   1      24.683 -44.206  36.9110  0.00  0.00     0.000 C
ATOM     17   O  IDS C   1      24.967 -44.301  38.0860  0.00  0.00     0.000 OA
ATOM     18   O  IDS C   1      24.115 -45.102  36.3510  0.00  0.00     0.000 OA
ENDBRANCH 5 16
BRANCH 1 19
ATOM     19  O4  SGN C   2      24.762 -41.623  33.5110  0.00  0.00     0.000 O
BRANCH 19 23
ATOM     20  C1  SGN C   2      21.734 -41.971  30.6590  0.00  0.00     0.000 C
ATOM     21  C2  SGN C   2      22.027 -43.217  31.5030  0.00  0.00     0.000 C
ATOM     22  C3  SGN C   2      22.813 -42.823  32.7500  0.00  0.00     0.000 C
ATOM     23  C4  SGN C   2      24.090 -42.097  32.3430  0.00  0.00     0.000 C
ATOM     24  C5  SGN C   2      23.748 -40.915  31.4320  0.00  0.00     0.000 C
ATOM     25  O5  SGN C   2      22.971 -41.372  30.3100  0.00  0.00     0.000 O
ATOM     26   O  SGN C   2      23.107 -43.970  33.5380  0.00  0.00     0.000 O
ATOM     28  HD  SGN C   2      23.184 -44.705  33.9900  0.00  0.00     0.000 HD
BRANCH 21 30
ATOM     28   N  SGN C   2      20.802 -43.645  30.8140  0.00  0.00     0.000 N
ATOM     30  HD  SGN C   2      20.065 -43.659  31.2680  0.00  0.00     0.000 HD
ATOM     30   S  SGN C   2      20.302 -45.164  30.8790  0.00  0.00     0.000 S
ATOM     31   O  SGN C   2      20.232 -45.478  32.2660  0.00  0.00     0.000 OA
ATOM     32   O  SGN C   2      19.150 -45.292  30.0650  0.00  0.00     0.000 OA
ATOM     33   O  SGN C   2      21.448 -45.972  30.1800  0.00  0.00     0.000 OA
ENDBRANCH 21 30
BRANCH 24 34
ATOM     34   C  SGN C   2      24.961 -40.221  30.8570  0.00  0.00     0.000 C
ATOM     35   O  SGN C   2      25.111 -40.609  29.4790  0.00  0.00     0.000 O
ATOM     36   S  SGN C   2      26.547 -40.391  28.8170  0.00  0.00     0.000 S
ATOM     37   O  SGN C   2      27.470 -41.071  29.7050  0.00  0.00     0.000 OA
ATOM     38   O  SGN C   2      26.466 -40.988  27.5060  0.00  0.00     0.000 OA
ATOM     39   O  SGN C   2      26.706 -38.957  28.7940  0.00  0.00     0.000 OA
ENDBRANCH 24 34
BRANCH 20 40
ATOM     40  O4  IDS C   3      20.933 -41.047  31.1830  0.00  0.00     0.000 O
BRANCH 40 44
ATOM     41  C1  IDS C   3      17.948 -39.301  31.8700  0.00  0.00     0.000 C
ATOM     42  C2  IDS C   3      17.966 -40.521  30.9540  0.00  0.00     0.000 C
ATOM     43  C3  IDS C   3      19.029 -40.356  29.8700  0.00  0.00     0.000 C
ATOM     44  C4  IDS C   3      20.372 -39.951  30.4560  0.00  0.00     0.000 C
ATOM     45  C5  IDS C   3      20.192 -38.741  31.3960  0.00  0.00     0.000 C
ATOM     46  O5  IDS C   3      19.244 -39.065  32.4150  0.00  0.00     0.000 O
ATOM     47   O  IDS C   3      18.595 -39.379  28.9270  0.00  0.00     0.000 O
ATOM     49  HD  IDS C   3      18.570 -40.170  29.2800  0.00  0.00     0.000 HD
BRANCH 42 49
ATOM     49   O  IDS C   3      18.273 -41.741  31.7370  0.00  0.00     0.000 O
ATOM     50   S  IDS C   3      17.086 -42.729  32.1640  0.00  0.00     0.000 S
ATOM     51   O  IDS C   3      16.712 -43.360  30.9180  0.00  0.00     0.000 OA
ATOM     52   O  IDS C   3      16.001 -41.957  32.7470  0.00  0.00     0.000 OA
ATOM     53   O  IDS C   3      17.664 -43.657  33.1140  0.00  0.00     0.000 OA
ENDBRANCH 42 49
BRANCH 45 54
ATOM     54   C  IDS C   3      21.486 -38.294  32.0570  0.00  0.00     0.000 C
ATOM     55   O  IDS C   3      22.325 -37.726  31.4060  0.00  0.00     0.000 OA
ATOM     56   O  IDS C   3      21.677 -38.526  33.2350  0.00  0.00     0.000 OA
ENDBRANCH 45 54
BRANCH 41 57
ATOM     57  O4  SGN C   4      17.280 -38.337  31.2250  0.00  0.00     0.000 O
BRANCH 57 61
ATOM     58  C1  SGN C   4      15.777 -34.510  32.0170  0.00  0.00     0.000 C
ATOM     59  C2  SGN C   4      17.299 -34.695  32.1400  0.00  0.00     0.000 C
ATOM     60  C3  SGN C   4      17.759 -35.982  31.4430  0.00  0.00     0.000 C
ATOM     61  C4  SGN C   4      16.963 -37.161  31.9770  0.00  0.00     0.000 C
ATOM     62  C5  SGN C   4      15.464 -36.897  31.8500  0.00  0.00     0.000 C
ATOM     63  O5  SGN C   4      15.109 -35.665  32.5050  0.00  0.00     0.000 O
BRANCH 59 66
ATOM     64   N  SGN C   4      17.768 -33.363  31.7460  0.00  0.00     0.000 N
ATOM     66  HD  SGN C   4      17.688 -34.219  31.8500  0.00  0.00     0.000 HD
ATOM     66   O  SGN C   4      19.267 -31.447  31.8730  0.00  0.00     0.000 OA
ATOM     67   O  SGN C   4      18.570 -32.598  33.9300  0.00  0.00     0.000 OA
ATOM     68   S  SGN C   4      19.066 -32.733  32.4490  0.00  0.00     0.000 S
ATOM     69   O  SGN C   4      20.111 -33.691  32.3970  0.00  0.00     0.000 OA
ENDBRANCH 59 66
BRANCH 62 70
ATOM     70   C  SGN C   4      14.652 -37.993  32.4950  0.00  0.00     0.000 C
ATOM     71   S  SGN C   4      13.572 -38.727  34.7010  0.00  0.00     0.000 S
ATOM     72   O  SGN C   4      12.368 -39.083  33.9760  0.00  0.00     0.000 OA
ATOM     73   O  SGN C   4      14.528 -39.812  34.7940  0.00  0.00     0.000 OA
ATOM     74   O  SGN C   4      13.314 -38.067  35.9600  0.00  0.00     0.000 OA
ATOM     75   O  SGN C   4      14.259 -37.602  33.8160  0.00  0.00     0.000 O
ENDBRANCH 62 70
ENDBRANCH 57 61
ENDBRANCH 41 57
ENDBRANCH 40 44
ENDBRANCH 20 40
ENDBRANCH 19 23
ENDBRANCH 1 19
TORSDOF 14
ENDMDL
MODEL 14
REMARK VINA RESULT:      -7.9      6.100     10.911
ROOT
ATOM      1  C1  IDS C   1      17.575 -32.758  26.2430  0.00  0.00     0.000 C
ATOM      2  C2  IDS C   1      17.991 -32.729  24.7830  0.00  0.00     0.000 C
ATOM      3  C3  IDS C   1      17.153 -33.701  23.9620  0.00  0.00     0.000 C
ATOM      4  C4  IDS C   1      15.660 -33.484  24.2050  0.00  0.00     0.000 C
ATOM      5  C5  IDS C   1      15.367 -33.438  25.7180  0.00  0.00     0.000 C
ATOM      6  O5  IDS C   1      16.184 -32.461  26.3540  0.00  0.00     0.000 O
ATOM      7   O  IDS C   1      17.524 -35.042  24.2880  0.00  0.00     0.000 O
ATOM      9  HD  IDS C   1      16.704 -35.160  24.0340  0.00  0.00     0.000 HD
ATOM      9   O  IDS C   1      15.265 -32.241  23.6050  0.00  0.00     0.000 O
ATOM     11  HD  IDS C   1      14.446 -32.358  23.3510  0.00  0.00     0.000 HD
ENDROOT
BRANCH 2 11
ATOM     11   O  IDS C   1      17.788 -31.375  24.2210  0.00  0.00     0.000 O
ATOM     12   S  IDS C   1      19.010 -30.567  23.5810  0.00  0.00     0.000 S
ATOM     13   O  IDS C   1      18.369 -29.841  22.5080  0.00  0.00     0.000 OA
ATOM     14   O  IDS C   1      20.007 -31.500  23.1140  0.00  0.00     0.000 OA
ATOM     15   O  IDS C   1      19.482 -29.719  24.6470  0.00  0.00     0.000 OA
ENDBRANCH 2 11
BRANCH 5 16
ATOM     16   C  IDS C   1      13.920 -33.110  26.0390  0.00  0.00     0.000 C
ATOM     17   O  IDS C   1      13.628 -32.803  27.1760  0.00  0.00     0.000 OA
ATOM     18   O  IDS C   1      13.073 -33.169  25.1910  0.00  0.00     0.000 OA
ENDBRANCH 5 16
BRANCH 1 19
ATOM     19  O4  SGN C   2      18.027 -33.741  27.0270  0.00  0.00     0.000 O
BRANCH 19 23
ATOM     20  C1  SGN C   2      19.488 -34.701  30.8180  0.00  0.00     0.000 C
ATOM     21  C2  SGN C   2      17.983 -34.428  30.7130  0.00  0.00     0.000 C
ATOM     22  C3  SGN C   2      17.541 -34.527  29.2550  0.00  0.00     0.000 C
ATOM     23  C4  SGN C   2      18.357 -33.560  28.4050  0.00  0.00     0.000 C
ATOM     24  C5  SGN C   2      19.852 -33.818  28.6140  0.00  0.00     0.000 C
ATOM     25  O5  SGN C   2      20.168 -33.749  30.0160  0.00  0.00     0.000 O
ATOM     26   O  SGN C   2      16.148 -34.261  29.1380  0.00  0.00     0.000 O
ATOM     28  HD  SGN C   2      15.289 -34.155  29.1620  0.00  0.00     0.000 HD
BRANCH 21 30
ATOM     28   N  SGN C   2      17.749 -33.991  32.0960  0.00  0.00     0.000 N
ATOM     30  HD  SGN C   2      18.256 -34.319  32.7160  0.00  0.00     0.000 HD
ATOM     30   S  SGN C   2      16.818 -34.835  33.0860  0.00  0.00     0.000 S
ATOM     31   O  SGN C   2      17.344 -36.158  33.0610  0.00  0.00     0.000 OA
ATOM     32   O  SGN C   2      16.719 -34.137  34.3130  0.00  0.00     0.000 OA
ATOM     33   O  SGN C   2      15.404 -34.784  32.4140  0.00  0.00     0.000 OA
ENDBRANCH 21 30
BRANCH 24 34
ATOM     34   C  SGN C   2      20.743 -32.812  27.9250  0.00  0.00     0.000 C
ATOM     35   O  SGN C   2      21.159 -33.346  26.6560  0.00  0.00     0.000 O
ATOM     36   S  SGN C   2      22.449 -32.692  25.9810  0.00  0.00     0.000 S
ATOM     37   O  SGN C   2      23.479 -32.773  26.9990  0.00  0.00     0.000 OA
ATOM     38   O  SGN C   2      22.730 -33.497  24.8170  0.00  0.00     0.000 OA
ATOM     39   O  SGN C   2      22.036 -31.345  25.6720  0.00  0.00     0.000 OA
ENDBRANCH 24 34
BRANCH 20 40
ATOM     40  O4  IDS C   3      19.915 -35.922  30.5040  0.00  0.00     0.000 O
BRANCH 40 44
ATOM     41  C1  IDS C   3      20.925 -39.272  30.0770  0.00  0.00     0.000 C
ATOM     42  C2  IDS C   3      19.871 -38.882  31.1090  0.00  0.00     0.000 C
ATOM     43  C3  IDS C   3      20.390 -37.756  32.0000  0.00  0.00     0.000 C
ATOM     44  C4  IDS C   3      20.968 -36.612  31.1820  0.00  0.00     0.000 C
ATOM     45  C5  IDS C   3      21.978 -37.161  30.1520  0.00  0.00     0.000 C
ATOM     46  O5  IDS C   3      21.335 -38.133  29.3250  0.00  0.00     0.000 O
ATOM     47   O  IDS C   3      21.383 -38.272  32.8830  0.00  0.00     0.000 O
ATOM     49  HD  IDS C   3      20.562 -38.170  32.6270  0.00  0.00     0.000 HD
BRANCH 42 49
ATOM     49   O  IDS C   3      18.639 -38.418  30.4280  0.00  0.00     0.000 O
ATOM     50   S  IDS C   3      17.345 -39.361  30.4000  0.00  0.00     0.000 S
ATOM     51   O  IDS C   3      16.868 -39.314  31.7640  0.00  0.00     0.000 OA
ATOM     52   O  IDS C   3      17.732 -40.701  29.9890  0.00  0.00     0.000 OA
ATOM     53   O  IDS C   3      16.427 -38.749  29.4620  0.00  0.00     0.000 OA
ENDBRANCH 42 49
BRANCH 45 54
ATOM     54   C  IDS C   3      22.576 -36.083  29.2620  0.00  0.00     0.000 C
ATOM     55   O  IDS C   3      22.455 -36.160  28.0670  0.00  0.00     0.000 OA
ATOM     56   O  IDS C   3      23.188 -35.157  29.7580  0.00  0.00     0.000 OA
ENDBRANCH 45 54
BRANCH 41 57
ATOM     57  O4  SGN C   4      21.817 -40.049  30.7040  0.00  0.00     0.000 O
BRANCH 57 61
ATOM     58  C1  SGN C   4      24.633 -42.985  29.7140  0.00  0.00     0.000 C
ATOM     59  C2  SGN C   4      24.984 -41.536  29.3380  0.00  0.00     0.000 C
ATOM     60  C3  SGN C   4      24.102 -40.537  30.1000  0.00  0.00     0.000 C
ATOM     61  C4  SGN C   4      22.638 -40.880  29.8780  0.00  0.00     0.000 C
ATOM     62  C5  SGN C   4      22.368 -42.339  30.2420  0.00  0.00     0.000 C
ATOM     63  O5  SGN C   4      23.246 -43.216  29.5100  0.00  0.00     0.000 O
BRANCH 59 66
ATOM     64   N  SGN C   4      26.441 -41.511  29.5030  0.00  0.00     0.000 N
ATOM     66  HD  SGN C   4      25.604 -41.290  29.4670  0.00  0.00     0.000 HD
ATOM     66   O  SGN C   4      28.708 -40.942  28.8180  0.00  0.00     0.000 OA
ATOM     67   O  SGN C   4      27.076 -41.704  27.1450  0.00  0.00     0.000 OA
ATOM     68   S  SGN C   4      27.357 -40.799  28.3950  0.00  0.00     0.000 S
ATOM     69   O  SGN C   4      26.837 -39.502  28.1510  0.00  0.00     0.000 OA
ENDBRANCH 59 66
BRANCH 62 70
ATOM     70   C  SGN C   4      20.955 -42.743  29.9050  0.00  0.00     0.000 C
ATOM     71   S  SGN C   4      19.414 -44.766  29.5850  0.00  0.00     0.000 S
ATOM     72   O  SGN C   4      18.397 -44.098  30.3750  0.00  0.00     0.000 OA
ATOM     73   O  SGN C   4      19.331 -44.465  28.1700  0.00  0.00     0.000 OA
ATOM     74   O  SGN C   4      19.536 -46.176  29.8750  0.00  0.00     0.000 OA
ATOM     75   O  SGN C   4      20.788 -44.153  30.0930  0.00  0.00     0.000 O
ENDBRANCH 62 70
ENDBRANCH 57 61
ENDBRANCH 41 57
ENDBRANCH 40 44
ENDBRANCH 20 40
ENDBRANCH 19 23
ENDBRANCH 1 19
TORSDOF 14
ENDMDL
MODEL 15
REMARK VINA RESULT:      -7.8     23.463     29.411
ROOT
ATOM      1  C1  IDS C   1      -0.928 -12.240  26.5950  0.00  0.00     0.000 C
ATOM      2  C2  IDS C   1      -0.739 -12.372  25.0940  0.00  0.00     0.000 C
ATOM      3  C3  IDS C   1      -1.688 -13.415  24.5190  0.00  0.00     0.000 C
ATOM      4  C4  IDS C   1      -3.128 -13.155  24.9610  0.00  0.00     0.000 C
ATOM      5  C5  IDS C   1      -3.187 -12.945  26.4880  0.00  0.00     0.000 C
ATOM      6  O5  IDS C   1      -2.287 -11.916  26.8840  0.00  0.00     0.000 O
ATOM      7   O  IDS C   1      -1.267 -14.718  24.9260  0.00  0.00     0.000 O
ATOM      9  HD  IDS C   1      -2.116 -14.852  24.8140  0.00  0.00     0.000 HD
ATOM      9   O  IDS C   1      -3.615 -11.978  24.2990  0.00  0.00     0.000 O
ATOM     11  HD  IDS C   1      -4.463 -12.112  24.1860  0.00  0.00     0.000 HD
ENDROOT
BRANCH 2 11
ATOM     11   O  IDS C   1      -1.031 -11.082  24.4280  0.00  0.00     0.000 O
ATOM     12   S  IDS C   1       0.121  -9.994  24.2210  0.00  0.00     0.000 S
ATOM     13   O  IDS C   1      -0.244  -9.398  22.9550  0.00  0.00     0.000 OA
ATOM     14   O  IDS C   1       1.403 -10.655  24.1850  0.00  0.00     0.000 OA
ATOM     15   O  IDS C   1      -0.024  -9.096  25.3410  0.00  0.00     0.000 OA
ENDBRANCH 2 11
BRANCH 5 16
ATOM     16   C  IDS C   1      -4.570 -12.567  26.9880  0.00  0.00     0.000 C
ATOM     17   O  IDS C   1      -5.494 -12.559  26.2020  0.00  0.00     0.000 OA
ATOM     18   O  IDS C   1      -4.748 -12.265  28.1360  0.00  0.00     0.000 OA
ENDBRANCH 5 16
BRANCH 1 19
ATOM     19  O4  SGN C   2      -0.358 -13.140  27.4010  0.00  0.00     0.000 O
BRANCH 19 23
ATOM     20  C1  SGN C   2       1.224 -13.819  31.2040  0.00  0.00     0.000 C
ATOM     21  C2  SGN C   2      -0.220 -13.307  31.1450  0.00  0.00     0.000 C
ATOM     22  C3  SGN C   2      -0.786 -13.523  29.7440  0.00  0.00     0.000 C
ATOM     23  C4  SGN C   2       0.106 -12.835  28.7180  0.00  0.00     0.000 C
ATOM     24  C5  SGN C   2       1.550 -13.317  28.8780  0.00  0.00     0.000 C
ATOM     25  O5  SGN C   2       1.984 -13.115  30.2360  0.00  0.00     0.000 O
ATOM     26   O  SGN C   2      -2.122 -13.039  29.6660  0.00  0.00     0.000 O
ATOM     28  HD  SGN C   2      -2.948 -12.785  29.7230  0.00  0.00     0.000 HD
BRANCH 21 30
ATOM     28   N  SGN C   2      -0.111 -13.629  32.5740  0.00  0.00     0.000 N
ATOM     30  HD  SGN C   2      -0.503 -14.347  32.8590  0.00  0.00     0.000 HD
ATOM     30   S  SGN C   2      -1.243 -13.184  33.6130  0.00  0.00     0.000 S
ATOM     31   O  SGN C   2      -2.464 -13.685  33.0780  0.00  0.00     0.000 OA
ATOM     32   O  SGN C   2      -0.833 -13.563  34.9140  0.00  0.00     0.000 OA
ATOM     33   O  SGN C   2      -1.212 -11.618  33.5610  0.00  0.00     0.000 OA
ENDBRANCH 21 30
BRANCH 24 34
ATOM     34   C  SGN C   2       2.537 -12.581  28.0020  0.00  0.00     0.000 C
ATOM     35   O  SGN C   2       3.378 -11.760  28.8310  0.00  0.00     0.000 O
ATOM     36   S  SGN C   2       4.154 -10.562  28.1170  0.00  0.00     0.000 S
ATOM     37   O  SGN C   2       3.122  -9.810  27.4310  0.00  0.00     0.000 OA
ATOM     38   O  SGN C   2       4.793  -9.824  29.1790  0.00  0.00     0.000 OA
ATOM     39   O  SGN C   2       5.080 -11.226  27.2320  0.00  0.00     0.000 OA
ENDBRANCH 24 34
BRANCH 20 40
ATOM     40  O4  IDS C   3       1.421 -15.126  31.0500  0.00  0.00     0.000 O
BRANCH 40 44
ATOM     41  C1  IDS C   3       2.014 -18.410  32.1840  0.00  0.00     0.000 C
ATOM     42  C2  IDS C   3       1.966 -17.229  33.1490  0.00  0.00     0.000 C
ATOM     43  C3  IDS C   3       2.901 -16.119  32.6770  0.00  0.00     0.000 C
ATOM     44  C4  IDS C   3       2.681 -15.782  31.2110  0.00  0.00     0.000 C
ATOM     45  C5  IDS C   3       2.707 -17.073  30.3660  0.00  0.00     0.000 C
ATOM     46  O5  IDS C   3       1.721 -17.984  30.8560  0.00  0.00     0.000 O
ATOM     47   O  IDS C   3       4.253 -16.519  32.8860  0.00  0.00     0.000 O
ATOM     49  HD  IDS C   3       3.484 -16.237  33.1670  0.00  0.00     0.000 HD
BRANCH 42 49
ATOM     49   O  IDS C   3       0.588 -16.689  33.2240  0.00  0.00     0.000 O
ATOM     50   S  IDS C   3      -0.427 -17.253  34.3270  0.00  0.00     0.000 S
ATOM     51   O  IDS C   3       0.087 -16.708  35.5640  0.00  0.00     0.000 OA
ATOM     52   O  IDS C   3      -0.404 -18.707  34.3060  0.00  0.00     0.000 OA
ATOM     53   O  IDS C   3      -1.729 -16.726  33.9760  0.00  0.00     0.000 OA
ENDBRANCH 42 49
BRANCH 45 54
ATOM     54   C  IDS C   3       2.454 -16.830  28.8860  0.00  0.00     0.000 C
ATOM     55   O  IDS C   3       3.311 -16.322  28.2100  0.00  0.00     0.000 OA
ATOM     56   O  IDS C   3       1.383 -17.132  28.3960  0.00  0.00     0.000 OA
ENDBRANCH 45 54
BRANCH 41 57
ATOM     57  O4  SGN C   4       3.129 -19.098  32.4630  0.00  0.00     0.000 O
BRANCH 57 61
ATOM     58  C1  SGN C   4       4.474 -23.054  32.1980  0.00  0.00     0.000 C
ATOM     59  C2  SGN C   4       3.799 -22.468  30.9470  0.00  0.00     0.000 C
ATOM     60  C3  SGN C   4       3.730 -20.936  31.0200  0.00  0.00     0.000 C
ATOM     61  C4  SGN C   4       3.059 -20.520  32.3180  0.00  0.00     0.000 C
ATOM     62  C5  SGN C   4       3.762 -21.161  33.5140  0.00  0.00     0.000 C
ATOM     63  O5  SGN C   4       3.811 -22.592  33.3660  0.00  0.00     0.000 O
BRANCH 59 66
ATOM     64   N  SGN C   4       4.522 -23.170  29.8820  0.00  0.00     0.000 N
ATOM     66  HD  SGN C   4       4.105 -22.572  30.3480  0.00  0.00     0.000 HD
ATOM     66   O  SGN C   4       4.690 -24.289  27.7240  0.00  0.00     0.000 OA
ATOM     67   O  SGN C   4       2.728 -24.672  29.1560  0.00  0.00     0.000 OA
ATOM     68   S  SGN C   4       3.741 -23.634  28.5590  0.00  0.00     0.000 S
ATOM     69   O  SGN C   4       3.018 -22.523  28.0540  0.00  0.00     0.000 OA
ENDBRANCH 59 66
BRANCH 62 70
ATOM     70   C  SGN C   4       3.035 -20.872  34.8040  0.00  0.00     0.000 C
ATOM     71   S  SGN C   4       3.292 -19.786  37.1120  0.00  0.00     0.000 S
ATOM     72   O  SGN C   4       2.001 -19.149  36.9400  0.00  0.00     0.000 OA
ATOM     73   O  SGN C   4       3.209 -21.096  37.7250  0.00  0.00     0.000 OA
ATOM     74   O  SGN C   4       4.286 -18.924  37.7100  0.00  0.00     0.000 OA
ATOM     75   O  SGN C   4       3.829 -20.017  35.6350  0.00  0.00     0.000 O
ENDBRANCH 62 70
ENDBRANCH 57 61
ENDBRANCH 41 57
ENDBRANCH 40 44
ENDBRANCH 20 40
ENDBRANCH 19 23
ENDBRANCH 1 19
TORSDOF 14
ENDMDL
MODEL 16
REMARK VINA RESULT:      -7.7      5.314     10.153
ROOT
ATOM      1  C1  IDS C   1      21.461 -32.253  25.2430  0.00  0.00     0.000 C
ATOM      2  C2  IDS C   1      22.357 -32.192  24.0180  0.00  0.00     0.000 C
ATOM      3  C3  IDS C   1      21.823 -33.093  22.9120  0.00  0.00     0.000 C
ATOM      4  C4  IDS C   1      20.345 -32.815  22.6380  0.00  0.00     0.000 C
ATOM      5  C5  IDS C   1      19.549 -32.809  23.9580  0.00  0.00     0.000 C
ATOM      6  O5  IDS C   1      20.127 -31.895  24.8840  0.00  0.00     0.000 O
ATOM      7   O  IDS C   1      22.014 -34.461  23.2780  0.00  0.00     0.000 O
ATOM      9  HD  IDS C   1      21.330 -34.531  22.7530  0.00  0.00     0.000 HD
ATOM      9   O  IDS C   1      20.222 -31.533  22.0010  0.00  0.00     0.000 O
ATOM     11  HD  IDS C   1      19.538 -31.603  21.4750  0.00  0.00     0.000 HD
ENDROOT
BRANCH 2 11
ATOM     11   O  IDS C   1      22.404 -30.810  23.4890  0.00  0.00     0.000 O
ATOM     12   S  IDS C   1      23.488 -29.768  24.0290  0.00  0.00     0.000 S
ATOM     13   O  IDS C   1      23.779 -28.988  22.8470  0.00  0.00     0.000 OA
ATOM     14   O  IDS C   1      24.636 -30.487  24.5260  0.00  0.00     0.000 OA
ATOM     15   O  IDS C   1      22.797 -29.024  25.0530  0.00  0.00     0.000 OA
ENDBRANCH 2 11
BRANCH 5 16
ATOM     16   C  IDS C   1      18.092 -32.425  23.7780  0.00  0.00     0.000 C
ATOM     17   O  IDS C   1      17.504 -31.910  24.7060  0.00  0.00     0.000 OA
ATOM     18   O  IDS C   1      17.522 -32.639  22.7440  0.00  0.00     0.000 OA
ENDBRANCH 5 16
BRANCH 1 19
ATOM     19  O4  SGN C   2      21.583 -33.284  26.0840  0.00  0.00     0.000 O
BRANCH 19 23
ATOM     20  C1  SGN C   2      21.733 -34.443  30.0920  0.00  0.00     0.000 C
ATOM     21  C2  SGN C   2      20.462 -33.715  29.6370  0.00  0.00     0.000 C
ATOM     22  C3  SGN C   2      20.365 -33.751  28.1140  0.00  0.00     0.000 C
ATOM     23  C4  SGN C   2      21.622 -33.140  27.5050  0.00  0.00     0.000 C
ATOM     24  C5  SGN C   2      22.863 -33.844  28.0590  0.00  0.00     0.000 C
ATOM     25  O5  SGN C   2      22.849 -33.800  29.4970  0.00  0.00     0.000 O
ATOM     26   O  SGN C   2      19.198 -33.066  27.6730  0.00  0.00     0.000 O
ATOM     28  HD  SGN C   2      18.437 -32.694  27.4930  0.00  0.00     0.000 HD
BRANCH 21 30
ATOM     28   N  SGN C   2      20.195 -33.755  31.0800  0.00  0.00     0.000 N
ATOM     30  HD  SGN C   2      19.969 -34.514  31.4310  0.00  0.00     0.000 HD
ATOM     30   S  SGN C   2      18.708 -33.601  31.6530  0.00  0.00     0.000 S
ATOM     31   O  SGN C   2      17.940 -34.589  30.9730  0.00  0.00     0.000 OA
ATOM     32   O  SGN C   2      18.769 -33.602  33.0670  0.00  0.00     0.000 OA
ATOM     33   O  SGN C   2      18.278 -32.160  31.2130  0.00  0.00     0.000 OA
ENDBRANCH 21 30
BRANCH 24 34
ATOM     34   C  SGN C   2      24.164 -33.210  27.6260  0.00  0.00     0.000 C
ATOM     35   O  SGN C   2      24.848 -34.108  26.7350  0.00  0.00     0.000 O
ATOM     36   S  SGN C   2      26.415 -33.875  26.5320  0.00  0.00     0.000 S
ATOM     37   O  SGN C   2      26.965 -33.874  27.8730  0.00  0.00     0.000 OA
ATOM     38   O  SGN C   2      26.871 -34.981  25.7250  0.00  0.00     0.000 OA
ATOM     39   O  SGN C   2      26.493 -32.598  25.8660  0.00  0.00     0.000 OA
ENDBRANCH 24 34
BRANCH 20 40
ATOM     40  O4  IDS C   3      21.808 -35.752  29.8630  0.00  0.00     0.000 O
BRANCH 40 44
ATOM     41  C1  IDS C   3      21.727 -39.269  29.6490  0.00  0.00     0.000 C
ATOM     42  C2  IDS C   3      20.673 -38.493  30.4340  0.00  0.00     0.000 C
ATOM     43  C3  IDS C   3      21.343 -37.537  31.4190  0.00  0.00     0.000 C
ATOM     44  C4  IDS C   3      22.417 -36.697  30.7460  0.00  0.00     0.000 C
ATOM     45  C5  IDS C   3      23.376 -37.608  29.9530  0.00  0.00     0.000 C
ATOM     46  O5  IDS C   3      22.631 -38.375  29.0050  0.00  0.00     0.000 O
ATOM     47   O  IDS C   3      21.911 -38.284  32.4910  0.00  0.00     0.000 O
ATOM     49  HD  IDS C   3      21.239 -37.941  32.0670  0.00  0.00     0.000 HD
BRANCH 42 49
ATOM     49   O  IDS C   3      19.827 -37.704  29.5090  0.00  0.00     0.000 O
ATOM     50   S  IDS C   3      18.319 -38.164  29.2260  0.00  0.00     0.000 S
ATOM     51   O  IDS C   3      17.637 -37.852  30.4620  0.00  0.00     0.000 OA
ATOM     52   O  IDS C   3      18.297 -39.585  28.9200  0.00  0.00     0.000 OA
ATOM     53   O  IDS C   3      17.861 -37.362  28.1120  0.00  0.00     0.000 OA
ENDBRANCH 42 49
BRANCH 45 54
ATOM     54   C  IDS C   3      24.462 -36.841  29.2140  0.00  0.00     0.000 C
ATOM     55   O  IDS C   3      25.155 -36.061  29.8140  0.00  0.00     0.000 OA
ATOM     56   O  IDS C   3      24.615 -37.006  28.0190  0.00  0.00     0.000 OA
ENDBRANCH 45 54
BRANCH 41 57
ATOM     57  O4  SGN C   4      22.169 -40.248  30.4490  0.00  0.00     0.000 O
BRANCH 57 61
ATOM     58  C1  SGN C   4      25.246 -43.076  30.2010  0.00  0.00     0.000 C
ATOM     59  C2  SGN C   4      25.424 -41.787  29.3820  0.00  0.00     0.000 C
ATOM     60  C3  SGN C   4      24.468 -40.687  29.8650  0.00  0.00     0.000 C
ATOM     61  C4  SGN C   4      23.043 -41.214  29.8580  0.00  0.00     0.000 C
ATOM     62  C5  SGN C   4      22.946 -42.509  30.6640  0.00  0.00     0.000 C
ATOM     63  O5  SGN C   4      23.886 -43.484  30.1730  0.00  0.00     0.000 O
BRANCH 59 66
ATOM     64   N  SGN C   4      26.888 -41.703  29.3840  0.00  0.00     0.000 N
ATOM     66  HD  SGN C   4      26.044 -41.515  29.4420  0.00  0.00     0.000 HD
ATOM     66   O  SGN C   4      29.040 -41.044  28.4520  0.00  0.00     0.000 OA
ATOM     67   O  SGN C   4      27.264 -41.876  26.9700  0.00  0.00     0.000 OA
ATOM     68   S  SGN C   4      27.645 -40.957  28.1820  0.00  0.00     0.000 S
ATOM     69   O  SGN C   4      27.050 -39.683  28.0000  0.00  0.00     0.000 OA
ENDBRANCH 59 66
BRANCH 62 70
ATOM     70   C  SGN C   4      21.573 -43.124  30.5630  0.00  0.00     0.000 C
ATOM     71   S  SGN C   4      19.915 -44.196  28.9280  0.00  0.00     0.000 S
ATOM     72   O  SGN C   4      19.655 -45.240  29.8990  0.00  0.00     0.000 OA
ATOM     73   O  SGN C   4      19.046 -43.047  29.0740  0.00  0.00     0.000 OA
ATOM     74   O  SGN C   4      20.016 -44.682  27.5710  0.00  0.00     0.000 OA
ATOM     75   O  SGN C   4      21.383 -43.690  29.2610  0.00  0.00     0.000 O
ENDBRANCH 62 70
ENDBRANCH 57 61
ENDBRANCH 41 57
ENDBRANCH 40 44
ENDBRANCH 20 40
ENDBRANCH 19 23
ENDBRANCH 1 19
TORSDOF 14
ENDMDL
MODEL 17
REMARK VINA RESULT:      -7.7     18.773     21.866
ROOT
ATOM      1  C1  IDS C   1      12.814 -39.967  11.3650  0.00  0.00     0.000 C
ATOM      2  C2  IDS C   1      12.153 -41.097  12.1350  0.00  0.00     0.000 C
ATOM      3  C3  IDS C   1      12.440 -40.976  13.6260  0.00  0.00     0.000 C
ATOM      4  C4  IDS C   1      12.110 -39.574  14.1400  0.00  0.00     0.000 C
ATOM      5  C5  IDS C   1      12.754 -38.508  13.2310  0.00  0.00     0.000 C
ATOM      6  O5  IDS C   1      12.370 -38.710  11.8750  0.00  0.00     0.000 O
ATOM      7   O  IDS C   1      13.811 -41.289  13.8740  0.00  0.00     0.000 O
ATOM      9  HD  IDS C   1      13.645 -40.762  14.5410  0.00  0.00     0.000 HD
ATOM      9   O  IDS C   1      10.685 -39.401  14.1410  0.00  0.00     0.000 O
ATOM     11  HD  IDS C   1      10.518 -38.873  14.8070  0.00  0.00     0.000 HD
ENDROOT
BRANCH 2 11
ATOM     11   O  IDS C   1      10.685 -41.047  11.9530  0.00  0.00     0.000 O
ATOM     12   S  IDS C   1       9.964 -41.995  10.8880  0.00  0.00     0.000 S
ATOM     13   O  IDS C   1       8.704 -42.283  11.5380  0.00  0.00     0.000 OA
ATOM     14   O  IDS C   1      10.769 -43.173  10.6740  0.00  0.00     0.000 OA
ATOM     15   O  IDS C   1       9.828 -41.178   9.7080  0.00  0.00     0.000 OA
ENDBRANCH 2 11
BRANCH 5 16
ATOM     16   C  IDS C   1      12.376 -37.088  13.6110  0.00  0.00     0.000 C
ATOM     17   O  IDS C   1      13.005 -36.529  14.4840  0.00  0.00     0.000 OA
ATOM     18   O  IDS C   1      11.460 -36.529  13.0720  0.00  0.00     0.000 OA
ENDBRANCH 5 16
BRANCH 1 19
ATOM     19  O4  SGN C   2      14.116 -40.053  11.0770  0.00  0.00     0.000 O
BRANCH 19 23
ATOM     20  C1  SGN C   2      17.075 -39.116   8.2850  0.00  0.00     0.000 C
ATOM     21  C2  SGN C   2      16.557 -37.960   9.1490  0.00  0.00     0.000 C
ATOM     22  C3  SGN C   2      15.835 -38.514  10.3740  0.00  0.00     0.000 C
ATOM     23  C4  SGN C   2      14.711 -39.442   9.9310  0.00  0.00     0.000 C
ATOM     24  C5  SGN C   2      15.267 -40.526   9.0030  0.00  0.00     0.000 C
ATOM     25  O5  SGN C   2      15.966 -39.915   7.9030  0.00  0.00     0.000 O
ATOM     26   O  SGN C   2      15.334 -37.453  11.1790  0.00  0.00     0.000 O
ATOM     28  HD  SGN C   2      15.124 -36.753  11.6440  0.00  0.00     0.000 HD
BRANCH 21 30
ATOM     28   N  SGN C   2      17.429 -37.208   8.2360  0.00  0.00     0.000 N
ATOM     30  HD  SGN C   2      18.284 -37.242   8.3710  0.00  0.00     0.000 HD
ATOM     30   S  SGN C   2      17.923 -35.728   8.5920  0.00  0.00     0.000 S
ATOM     31   O  SGN C   2      18.517 -35.830   9.8830  0.00  0.00     0.000 OA
ATOM     32   O  SGN C   2      18.679 -35.233   7.5030  0.00  0.00     0.000 OA
ATOM     33   O  SGN C   2      16.601 -34.890   8.6510  0.00  0.00     0.000 OA
ENDBRANCH 21 30
BRANCH 24 34
ATOM     34   C  SGN C   2      14.202 -41.407   8.3930  0.00  0.00     0.000 C
ATOM     35   O  SGN C   2      14.757 -42.090   7.2550  0.00  0.00     0.000 O
ATOM     36   S  SGN C   2      13.724 -42.690   6.1950  0.00  0.00     0.000 S
ATOM     37   O  SGN C   2      12.877 -41.570   5.8320  0.00  0.00     0.000 OA
ATOM     38   O  SGN C   2      14.529 -43.179   5.1010  0.00  0.00     0.000 OA
ATOM     39   O  SGN C   2      13.040 -43.729   6.9240  0.00  0.00     0.000 OA
ENDBRANCH 24 34
BRANCH 20 40
ATOM     40  O4  IDS C   3      18.018 -39.898   8.8050  0.00  0.00     0.000 O
BRANCH 40 44
ATOM     41  C1  IDS C   3      21.227 -41.357   8.8660  0.00  0.00     0.000 C
ATOM     42  C2  IDS C   3      20.778 -40.464   7.7130  0.00  0.00     0.000 C
ATOM     43  C3  IDS C   3      19.439 -40.945   7.1580  0.00  0.00     0.000 C
ATOM     44  C4  IDS C   3      18.417 -41.159   8.2640  0.00  0.00     0.000 C
ATOM     45  C5  IDS C   3      19.025 -42.036   9.3790  0.00  0.00     0.000 C
ATOM     46  O5  IDS C   3      20.218 -41.422   9.8700  0.00  0.00     0.000 O
ATOM     47   O  IDS C   3      19.635 -42.158   6.4350  0.00  0.00     0.000 O
ATOM     49  HD  IDS C   3      19.693 -41.298   6.5220  0.00  0.00     0.000 HD
BRANCH 42 49
ATOM     49   O  IDS C   3      20.623 -39.067   8.1810  0.00  0.00     0.000 O
ATOM     50   S  IDS C   3      21.555 -37.917   7.5690  0.00  0.00     0.000 S
ATOM     51   O  IDS C   3      21.045 -37.753   6.2260  0.00  0.00     0.000 OA
ATOM     52   O  IDS C   3      22.941 -38.356   7.5890  0.00  0.00     0.000 OA
ATOM     53   O  IDS C   3      21.343 -36.749   8.3980  0.00  0.00     0.000 OA
ENDBRANCH 42 49
BRANCH 45 54
ATOM     54   C  IDS C   3      18.078 -42.268  10.5460  0.00  0.00     0.000 C
ATOM     55   O  IDS C   3      18.328 -41.787  11.6210  0.00  0.00     0.000 OA
ATOM     56   O  IDS C   3      17.084 -42.950  10.3950  0.00  0.00     0.000 OA
ENDBRANCH 45 54
BRANCH 41 57
ATOM     57  O4  SGN C   4      21.740 -42.468   8.3240  0.00  0.00     0.000 O
BRANCH 57 61
ATOM     58  C1  SGN C   4      23.821 -45.816   9.7350  0.00  0.00     0.000 C
ATOM     59  C2  SGN C   4      22.299 -45.963   9.5800  0.00  0.00     0.000 C
ATOM     60  C3  SGN C   4      21.722 -44.853   8.6900  0.00  0.00     0.000 C
ATOM     61  C4  SGN C   4      22.145 -43.497   9.2310  0.00  0.00     0.000 C
ATOM     62  C5  SGN C   4      23.664 -43.433   9.3870  0.00  0.00     0.000 C
ATOM     63  O5  SGN C   4      24.136 -44.515  10.2110  0.00  0.00     0.000 O
BRANCH 59 66
ATOM     64   N  SGN C   4      21.986 -47.307   9.0830  0.00  0.00     0.000 N
ATOM     66  HD  SGN C   4      21.927 -46.487   9.3570  0.00  0.00     0.000 HD
ATOM     66   O  SGN C   4      21.123 -49.573   9.3070  0.00  0.00     0.000 OA
ATOM     67   O  SGN C   4      22.408 -48.563  11.1430  0.00  0.00     0.000 OA
ATOM     68   S  SGN C   4      21.292 -48.376  10.0580  0.00  0.00     0.000 S
ATOM     69   O  SGN C   4      20.161 -47.766  10.6590  0.00  0.00     0.000 OA
ENDBRANCH 59 66
BRANCH 62 70
ATOM     70   C  SGN C   4      24.099 -42.149  10.0470  0.00  0.00     0.000 C
ATOM     71   S  SGN C   4      23.505 -40.488  11.9070  0.00  0.00     0.000 S
ATOM     72   O  SGN C   4      24.897 -40.467  12.3130  0.00  0.00     0.000 OA
ATOM     73   O  SGN C   4      23.186 -39.494  10.9020  0.00  0.00     0.000 OA
ATOM     74   O  SGN C   4      22.580 -40.512  13.0170  0.00  0.00     0.000 OA
ATOM     75   O  SGN C   4      23.307 -41.903  11.2150  0.00  0.00     0.000 O
ENDBRANCH 62 70
ENDBRANCH 57 61
ENDBRANCH 41 57
ENDBRANCH 40 44
ENDBRANCH 20 40
ENDBRANCH 19 23
ENDBRANCH 1 19
TORSDOF 14
ENDMDL
MODEL 18
REMARK VINA RESULT:      -7.6     35.860     41.390
ROOT
ATOM      1  C1  IDS C   1      50.304 -57.989  36.3390  0.00  0.00     0.000 C
ATOM      2  C2  IDS C   1      49.233 -57.381  35.4490  0.00  0.00     0.000 C
ATOM      3  C3  IDS C   1      48.475 -56.285  36.1880  0.00  0.00     0.000 C
ATOM      4  C4  IDS C   1      49.436 -55.274  36.8140  0.00  0.00     0.000 C
ATOM      5  C5  IDS C   1      50.533 -56.005  37.6140  0.00  0.00     0.000 C
ATOM      6  O5  IDS C   1      51.189 -56.968  36.7960  0.00  0.00     0.000 O
ATOM      7   O  IDS C   1      47.645 -56.873  37.1910  0.00  0.00     0.000 O
ATOM      9  HD  IDS C   1      47.780 -56.090  37.5350  0.00  0.00     0.000 HD
ATOM      9   O  IDS C   1      50.045 -54.501  35.7680  0.00  0.00     0.000 O
ATOM     11  HD  IDS C   1      50.180 -53.717  36.1120  0.00  0.00     0.000 HD
ENDROOT
BRANCH 2 11
ATOM     11   O  IDS C   1      49.851 -56.771  34.2510  0.00  0.00     0.000 O
ATOM     12   S  IDS C   1      49.202 -56.980  32.8050  0.00  0.00     0.000 S
ATOM     13   O  IDS C   1      49.481 -55.717  32.1590  0.00  0.00     0.000 OA
ATOM     14   O  IDS C   1      47.790 -57.241  32.9480  0.00  0.00     0.000 OA
ATOM     15   O  IDS C   1      49.930 -58.088  32.2380  0.00  0.00     0.000 OA
ENDBRANCH 2 11
BRANCH 5 16
ATOM     16   C  IDS C   1      51.593 -55.072  38.1700  0.00  0.00     0.000 C
ATOM     17   O  IDS C   1      52.643 -55.542  38.5530  0.00  0.00     0.000 OA
ATOM     18   O  IDS C   1      51.393 -53.891  38.2480  0.00  0.00     0.000 OA
ENDBRANCH 5 16
BRANCH 1 19
ATOM     19  O4  SGN C   2      49.951 -58.905  37.2450  0.00  0.00     0.000 O
BRANCH 19 23
ATOM     20  C1  SGN C   2      50.718 -62.938  38.0020  0.00  0.00     0.000 C
ATOM     21  C2  SGN C   2      51.059 -61.953  39.1270  0.00  0.00     0.000 C
ATOM     22  C3  SGN C   2      50.340 -60.628  38.8880  0.00  0.00     0.000 C
ATOM     23  C4  SGN C   2      50.716 -60.080  37.5160  0.00  0.00     0.000 C
ATOM     24  C5  SGN C   2      50.436 -61.134  36.4410  0.00  0.00     0.000 C
ATOM     25  O5  SGN C   2      51.116 -62.359  36.7700  0.00  0.00     0.000 O
ATOM     26   O  SGN C   2      50.659 -59.696  39.9150  0.00  0.00     0.000 O
ATOM     28  HD  SGN C   2      50.849 -59.215  40.6100  0.00  0.00     0.000 HD
BRANCH 21 30
ATOM     28   N  SGN C   2      50.844 -62.383  40.5140  0.00  0.00     0.000 N
ATOM     30  HD  SGN C   2      51.191 -61.904  41.1470  0.00  0.00     0.000 HD
ATOM     30   S  SGN C   2      51.917 -63.291  41.2780  0.00  0.00     0.000 S
ATOM     31   O  SGN C   2      53.154 -62.595  41.1550  0.00  0.00     0.000 OA
ATOM     32   O  SGN C   2      51.408 -63.608  42.5600  0.00  0.00     0.000 OA
ATOM     33   O  SGN C   2      51.943 -64.623  40.4530  0.00  0.00     0.000 OA
ENDBRANCH 21 30
BRANCH 24 34
ATOM     34   C  SGN C   2      50.915 -60.738  35.0640  0.00  0.00     0.000 C
ATOM     35   O  SGN C   2      52.341 -60.908  34.9980  0.00  0.00     0.000 O
ATOM     36   S  SGN C   2      53.112 -60.125  33.8400  0.00  0.00     0.000 S
ATOM     37   O  SGN C   2      52.710 -58.741  33.9990  0.00  0.00     0.000 OA
ATOM     38   O  SGN C   2      54.516 -60.346  34.0880  0.00  0.00     0.000 OA
ATOM     39   O  SGN C   2      52.632 -60.738  32.6260  0.00  0.00     0.000 OA
ENDBRANCH 24 34
BRANCH 20 40
ATOM     40  O4  IDS C   3      49.455 -63.347  37.9060  0.00  0.00     0.000 O
BRANCH 40 44
ATOM     41  C1  IDS C   3      46.517 -65.246  38.3410  0.00  0.00     0.000 C
ATOM     42  C2  IDS C   3      47.817 -65.614  39.0500  0.00  0.00     0.000 C
ATOM     43  C3  IDS C   3      48.963 -65.706  38.0450  0.00  0.00     0.000 C
ATOM     44  C4  IDS C   3      49.025 -64.480  37.1480  0.00  0.00     0.000 C
ATOM     45  C5  IDS C   3      47.633 -64.203  36.5410  0.00  0.00     0.000 C
ATOM     46  O5  IDS C   3      46.678 -64.044  37.5920  0.00  0.00     0.000 O
ATOM     47   O  IDS C   3      48.804 -66.881  37.2540  0.00  0.00     0.000 O
ATOM     49  HD  IDS C   3      49.012 -66.473  37.9890  0.00  0.00     0.000 HD
BRANCH 42 49
ATOM     49   O  IDS C   3      48.155 -64.584  40.0600  0.00  0.00     0.000 O
ATOM     50   S  IDS C   3      48.056 -64.939  41.6190  0.00  0.00     0.000 S
ATOM     51   O  IDS C   3      49.179 -65.826  41.8310  0.00  0.00     0.000 OA
ATOM     52   O  IDS C   3      46.780 -65.580  41.8890  0.00  0.00     0.000 OA
ATOM     53   O  IDS C   3      48.192 -63.681  42.3230  0.00  0.00     0.000 OA
ENDBRANCH 42 49
BRANCH 45 54
ATOM     54   C  IDS C   3      47.597 -62.966  35.6580  0.00  0.00     0.000 C
ATOM     55   O  IDS C   3      47.027 -61.976  36.0400  0.00  0.00     0.000 OA
ATOM     56   O  IDS C   3      48.127 -62.985  34.5640  0.00  0.00     0.000 OA
ENDBRANCH 45 54
BRANCH 41 57
ATOM     57  O4  SGN C   4      46.054 -66.364  37.7690  0.00  0.00     0.000 O
BRANCH 57 61
ATOM     58  C1  SGN C   4      42.482 -67.283  35.7870  0.00  0.00     0.000 C
ATOM     59  C2  SGN C   4      42.820 -65.792  35.9480  0.00  0.00     0.000 C
ATOM     60  C3  SGN C   4      44.300 -65.594  36.3020  0.00  0.00     0.000 C
ATOM     61  C4  SGN C   4      44.645 -66.426  37.5260  0.00  0.00     0.000 C
ATOM     62  C5  SGN C   4      44.257 -67.887  37.3080  0.00  0.00     0.000 C
ATOM     63  O5  SGN C   4      42.864 -67.995  36.9560  0.00  0.00     0.000 O
BRANCH 59 66
ATOM     64   N  SGN C   4      42.291 -65.195  34.7170  0.00  0.00     0.000 N
ATOM     66  HD  SGN C   4      42.754 -65.354  35.4320  0.00  0.00     0.000 HD
ATOM     66   O  SGN C   4      41.026 -63.534  33.4620  0.00  0.00     0.000 OA
ATOM     67   O  SGN C   4      40.152 -64.388  35.5950  0.00  0.00     0.000 OA
ATOM     68   S  SGN C   4      41.396 -63.866  34.7960  0.00  0.00     0.000 S
ATOM     69   O  SGN C   4      42.083 -62.910  35.5870  0.00  0.00     0.000 OA
ENDBRANCH 59 66
BRANCH 62 70
ATOM     70   C  SGN C   4      44.465 -68.708  38.5560  0.00  0.00     0.000 C
ATOM     71   S  SGN C   4      43.350 -69.442  40.7450  0.00  0.00     0.000 S
ATOM     72   O  SGN C   4      43.796 -70.800  40.4990  0.00  0.00     0.000 OA
ATOM     73   O  SGN C   4      44.310 -68.648  41.4850  0.00  0.00     0.000 OA
ATOM     74   O  SGN C   4      42.004 -69.360  41.2620  0.00  0.00     0.000 OA
ATOM     75   O  SGN C   4      43.245 -68.784  39.3030  0.00  0.00     0.000 O
ENDBRANCH 62 70
ENDBRANCH 57 61
ENDBRANCH 41 57
ENDBRANCH 40 44
ENDBRANCH 20 40
ENDBRANCH 19 23
ENDBRANCH 1 19
TORSDOF 14
ENDMDL
MODEL 19
REMARK VINA RESULT:      -7.6      7.837     13.375
ROOT
ATOM      1  C1  IDS C   1      31.104 -31.441  33.4060  0.00  0.00     0.000 C
ATOM      2  C2  IDS C   1      30.480 -32.320  34.4750  0.00  0.00     0.000 C
ATOM      3  C3  IDS C   1      28.963 -32.179  34.4740  0.00  0.00     0.000 C
ATOM      4  C4  IDS C   1      28.390 -32.375  33.0710  0.00  0.00     0.000 C
ATOM      5  C5  IDS C   1      29.158 -31.506  32.0550  0.00  0.00     0.000 C
ATOM      6  O5  IDS C   1      30.555 -31.769  32.1300  0.00  0.00     0.000 O
ATOM      7   O  IDS C   1      28.605 -30.893  34.9850  0.00  0.00     0.000 O
ATOM      9  HD  IDS C   1      27.924 -31.059  34.4760  0.00  0.00     0.000 HD
ATOM      9   O  IDS C   1      28.516 -33.758  32.7050  0.00  0.00     0.000 O
ATOM     11  HD  IDS C   1      27.835 -33.924  32.1970  0.00  0.00     0.000 HD
ENDROOT
BRANCH 2 11
ATOM     11   O  IDS C   1      30.799 -33.742  34.2160  0.00  0.00     0.000 O
ATOM     12   S  IDS C   1      32.280 -34.298  34.4400  0.00  0.00     0.000 S
ATOM     13   O  IDS C   1      32.035 -35.645  34.9050  0.00  0.00     0.000 OA
ATOM     14   O  IDS C   1      32.956 -33.479  35.4170  0.00  0.00     0.000 OA
ATOM     15   O  IDS C   1      32.889 -34.243  33.1340  0.00  0.00     0.000 OA
ENDBRANCH 2 11
BRANCH 5 16
ATOM     16   C  IDS C   1      28.721 -31.735  30.6190  0.00  0.00     0.000 C
ATOM     17   O  IDS C   1      28.932 -30.867  29.7990  0.00  0.00     0.000 OA
ATOM     18   O  IDS C   1      28.163 -32.748  30.3000  0.00  0.00     0.000 OA
ENDBRANCH 5 16
BRANCH 1 19
ATOM     19  O4  SGN C   2      31.269 -30.138  33.6530  0.00  0.00     0.000 O
BRANCH 19 23
ATOM     20  C1  SGN C   2      33.871 -26.888  33.3420  0.00  0.00     0.000 C
ATOM     21  C2  SGN C   2      33.309 -27.444  32.0280  0.00  0.00     0.000 C
ATOM     22  C3  SGN C   2      32.079 -28.302  32.3140  0.00  0.00     0.000 C
ATOM     23  C4  SGN C   2      32.446 -29.412  33.2930  0.00  0.00     0.000 C
ATOM     24  C5  SGN C   2      33.081 -28.809  34.5480  0.00  0.00     0.000 C
ATOM     25  O5  SGN C   2      34.201 -27.983  34.1800  0.00  0.00     0.000 O
ATOM     26   O  SGN C   2      31.554 -28.839  31.1060  0.00  0.00     0.000 O
ATOM     28  HD  SGN C   2      31.259 -29.067  30.3240  0.00  0.00     0.000 HD
BRANCH 21 30
ATOM     28   N  SGN C   2      34.174 -26.372  31.5180  0.00  0.00     0.000 N
ATOM     30  HD  SGN C   2      33.845 -25.572  31.4710  0.00  0.00     0.000 HD
ATOM     30   S  SGN C   2      34.148 -25.947  29.9750  0.00  0.00     0.000 S
ATOM     31   O  SGN C   2      32.782 -25.670  29.6840  0.00  0.00     0.000 OA
ATOM     32   O  SGN C   2      35.133 -24.951  29.7670  0.00  0.00     0.000 OA
ATOM     33   O  SGN C   2      34.630 -27.233  29.2200  0.00  0.00     0.000 OA
ENDBRANCH 21 30
BRANCH 24 34
ATOM     34   C  SGN C   2      33.613 -29.841  35.5150  0.00  0.00     0.000 C
ATOM     35   O  SGN C   2      33.218 -29.479  36.8500  0.00  0.00     0.000 O
ATOM     36   S  SGN C   2      34.040 -30.133  38.0520  0.00  0.00     0.000 S
ATOM     37   O  SGN C   2      35.426 -29.822  37.7630  0.00  0.00     0.000 OA
ATOM     38   O  SGN C   2      33.548 -29.498  39.2510  0.00  0.00     0.000 OA
ATOM     39   O  SGN C   2      33.725 -31.537  37.9660  0.00  0.00     0.000 OA
ENDBRANCH 24 34
BRANCH 20 40
ATOM     40  O4  IDS C   3      33.113 -26.030  34.0200  0.00  0.00     0.000 O
BRANCH 40 44
ATOM     41  C1  IDS C   3      32.545 -22.807  35.3310  0.00  0.00     0.000 C
ATOM     42  C2  IDS C   3      33.863 -23.172  34.6540  0.00  0.00     0.000 C
ATOM     43  C3  IDS C   3      34.440 -24.445  35.2680  0.00  0.00     0.000 C
ATOM     44  C4  IDS C   3      33.404 -25.556  35.3380  0.00  0.00     0.000 C
ATOM     45  C5  IDS C   3      32.113 -25.030  35.9990  0.00  0.00     0.000 C
ATOM     46  O5  IDS C   3      31.631 -23.899  35.2690  0.00  0.00     0.000 O
ATOM     47   O  IDS C   3      34.934 -24.159  36.5740  0.00  0.00     0.000 O
ATOM     49  HD  IDS C   3      34.986 -24.128  35.7100  0.00  0.00     0.000 HD
BRANCH 42 49
ATOM     49   O  IDS C   3      33.646 -23.400  33.2070  0.00  0.00     0.000 O
ATOM     50   S  IDS C   3      33.916 -22.211  32.1670  0.00  0.00     0.000 S
ATOM     51   O  IDS C   3      35.358 -22.099  32.1550  0.00  0.00     0.000 OA
ATOM     52   O  IDS C   3      33.266 -20.999  32.6400  0.00  0.00     0.000 OA
ATOM     53   O  IDS C   3      33.375 -22.659  30.9010  0.00  0.00     0.000 OA
ENDBRANCH 42 49
BRANCH 45 54
ATOM     54   C  IDS C   3      31.007 -26.071  36.0720  0.00  0.00     0.000 C
ATOM     55   O  IDS C   3      31.181 -27.083  36.7010  0.00  0.00     0.000 OA
ATOM     56   O  IDS C   3      29.959 -25.886  35.4840  0.00  0.00     0.000 OA
ENDBRANCH 45 54
BRANCH 41 57
ATOM     57  O4  SGN C   4      32.851 -22.223  36.4960  0.00  0.00     0.000 O
BRANCH 57 61
ATOM     58  C1  SGN C   4      31.062 -19.593  39.2180  0.00  0.00     0.000 C
ATOM     59  C2  SGN C   4      30.578 -21.052  39.2470  0.00  0.00     0.000 C
ATOM     60  C3  SGN C   4      31.566 -21.978  38.5230  0.00  0.00     0.000 C
ATOM     61  C4  SGN C   4      31.819 -21.453  37.1200  0.00  0.00     0.000 C
ATOM     62  C5  SGN C   4      32.266 -19.993  37.1660  0.00  0.00     0.000 C
ATOM     63  O5  SGN C   4      31.306 -19.190  37.8780  0.00  0.00     0.000 O
BRANCH 59 66
ATOM     64   N  SGN C   4      30.326 -21.393  40.6500  0.00  0.00     0.000 N
ATOM     66  HD  SGN C   4      30.449 -21.434  39.7940  0.00  0.00     0.000 HD
ATOM     66   O  SGN C   4      28.909 -22.055  42.5180  0.00  0.00     0.000 OA
ATOM     67   O  SGN C   4      28.076 -20.447  40.8560  0.00  0.00     0.000 OA
ATOM     68   S  SGN C   4      28.844 -21.788  41.1220  0.00  0.00     0.000 S
ATOM     69   O  SGN C   4      28.346 -22.786  40.2450  0.00  0.00     0.000 OA
ENDBRANCH 59 66
BRANCH 62 70
ATOM     70   C  SGN C   4      32.394 -19.409  35.7810  0.00  0.00     0.000 C
ATOM     71   S  SGN C   4      32.692 -17.211  34.4950  0.00  0.00     0.000 S
ATOM     72   O  SGN C   4      33.698 -17.848  33.6680  0.00  0.00     0.000 OA
ATOM     73   O  SGN C   4      31.348 -17.349  33.9710  0.00  0.00     0.000 OA
ATOM     74   O  SGN C   4      33.032 -15.861  34.8810  0.00  0.00     0.000 OA
ATOM     75   O  SGN C   4      32.723 -18.017  35.8630  0.00  0.00     0.000 O
ENDBRANCH 62 70
ENDBRANCH 57 61
ENDBRANCH 41 57
ENDBRANCH 40 44
ENDBRANCH 20 40
ENDBRANCH 19 23
ENDBRANCH 1 19
TORSDOF 14
ENDMDL
MODEL 20
REMARK VINA RESULT:      -7.3     17.495     22.663
ROOT
ATOM      1  C1  IDS C   1      22.205 -46.506  14.9810  0.00  0.00     0.000 C
ATOM      2  C2  IDS C   1      21.340 -47.744  14.8170  0.00  0.00     0.000 C
ATOM      3  C3  IDS C   1      22.149 -48.895  14.2330  0.00  0.00     0.000 C
ATOM      4  C4  IDS C   1      23.441 -49.117  15.0190  0.00  0.00     0.000 C
ATOM      5  C5  IDS C   1      24.189 -47.782  15.2050  0.00  0.00     0.000 C
ATOM      6  O5  IDS C   1      23.334 -46.810  15.7990  0.00  0.00     0.000 O
ATOM      7   O  IDS C   1      22.440 -48.624  12.8600  0.00  0.00     0.000 O
ATOM      9  HD  IDS C   1      23.106 -49.138  13.0660  0.00  0.00     0.000 HD
ATOM      9   O  IDS C   1      23.116 -49.664  16.3060  0.00  0.00     0.000 O
ATOM     11  HD  IDS C   1      23.782 -50.178  16.5120  0.00  0.00     0.000 HD
ENDROOT
BRANCH 2 11
ATOM     11   O  IDS C   1      20.821 -48.182  16.1320  0.00  0.00     0.000 O
ATOM     12   S  IDS C   1      19.259 -48.448  16.3430  0.00  0.00     0.000 S
ATOM     13   O  IDS C   1      19.260 -49.547  17.2830  0.00  0.00     0.000 OA
ATOM     14   O  IDS C   1      18.657 -48.790  15.0770  0.00  0.00     0.000 OA
ATOM     15   O  IDS C   1      18.753 -47.217  16.8980  0.00  0.00     0.000 OA
ENDBRANCH 2 11
BRANCH 5 16
ATOM     16   C  IDS C   1      25.425 -47.903  16.0770  0.00  0.00     0.000 C
ATOM     17   O  IDS C   1      26.039 -48.949  16.0790  0.00  0.00     0.000 OA
ATOM     18   O  IDS C   1      25.784 -46.989  16.7670  0.00  0.00     0.000 OA
ENDBRANCH 5 16
BRANCH 1 19
ATOM     19  O4  SGN C   2      22.446 -45.738  13.9150  0.00  0.00     0.000 O
BRANCH 19 23
ATOM     20  C1  SGN C   2      24.336 -42.277  12.5470  0.00  0.00     0.000 C
ATOM     21  C2  SGN C   2      25.241 -43.478  12.8450  0.00  0.00     0.000 C
ATOM     22  C3  SGN C   2      24.402 -44.753  12.9050  0.00  0.00     0.000 C
ATOM     23  C4  SGN C   2      23.301 -44.594  13.9470  0.00  0.00     0.000 C
ATOM     24  C5  SGN C   2      22.484 -43.333  13.6520  0.00  0.00     0.000 C
ATOM     25  O5  SGN C   2      23.358 -42.193  13.5700  0.00  0.00     0.000 O
ATOM     26   O  SGN C   2      25.224 -45.877  13.1970  0.00  0.00     0.000 O
ATOM     28  HD  SGN C   2      25.801 -46.513  13.3090  0.00  0.00     0.000 HD
BRANCH 21 30
ATOM     28   N  SGN C   2      26.206 -42.945  11.8750  0.00  0.00     0.000 N
ATOM     30  HD  SGN C   2      26.603 -43.506  11.3480  0.00  0.00     0.000 HD
ATOM     30   S  SGN C   2      27.771 -42.894  12.2040  0.00  0.00     0.000 S
ATOM     31   O  SGN C   2      28.120 -44.222  12.5800  0.00  0.00     0.000 OA
ATOM     32   O  SGN C   2      28.437 -42.267  11.1240  0.00  0.00     0.000 OA
ATOM     33   O  SGN C   2      27.870 -41.923  13.4300  0.00  0.00     0.000 OA
ENDBRANCH 21 30
BRANCH 24 34
ATOM     34   C  SGN C   2      21.461 -43.010  14.7150  0.00  0.00     0.000 C
ATOM     35   O  SGN C   2      21.268 -41.586  14.7610  0.00  0.00     0.000 O
ATOM     36   S  SGN C   2      20.615 -40.985  16.0880  0.00  0.00     0.000 S
ATOM     37   O  SGN C   2      21.446 -41.483  17.1670  0.00  0.00     0.000 OA
ATOM     38   O  SGN C   2      20.672 -39.551  15.9360  0.00  0.00     0.000 OA
ATOM     39   O  SGN C   2      19.274 -41.517  16.0880  0.00  0.00     0.000 OA
ENDBRANCH 24 34
BRANCH 20 40
ATOM     40  O4  IDS C   3      23.733 -42.240  11.3610  0.00  0.00     0.000 O
BRANCH 40 44
ATOM     41  C1  IDS C   3      23.046 -41.465   7.9910  0.00  0.00     0.000 C
ATOM     42  C2  IDS C   3      24.302 -40.950   8.6880  0.00  0.00     0.000 C
ATOM     43  C3  IDS C   3      23.936 -40.258   9.9990  0.00  0.00     0.000 C
ATOM     44  C4  IDS C   3      23.013 -41.116  10.8500  0.00  0.00     0.000 C
ATOM     45  C5  IDS C   3      21.819 -41.603  10.0030  0.00  0.00     0.000 C
ATOM     46  O5  IDS C   3      22.303 -42.314   8.8620  0.00  0.00     0.000 O
ATOM     47   O  IDS C   3      23.312 -39.007   9.7150  0.00  0.00     0.000 O
ATOM     49  HD  IDS C   3      24.005 -39.525   9.7710  0.00  0.00     0.000 HD
BRANCH 42 49
ATOM     49   O  IDS C   3      25.217 -42.076   8.9870  0.00  0.00     0.000 O
ATOM     50   S  IDS C   3      26.549 -42.269   8.1170  0.00  0.00     0.000 S
ATOM     51   O  IDS C   3      27.394 -41.181   8.5550  0.00  0.00     0.000 OA
ATOM     52   O  IDS C   3      26.218 -42.185   6.7040  0.00  0.00     0.000 OA
ATOM     53   O  IDS C   3      27.073 -43.570   8.4750  0.00  0.00     0.000 OA
ENDBRANCH 42 49
BRANCH 45 54
ATOM     54   C  IDS C   3      20.864 -42.504  10.7700  0.00  0.00     0.000 C
ATOM     55   O  IDS C   3      20.882 -43.692  10.5800  0.00  0.00     0.000 OA
ATOM     56   O  IDS C   3      20.075 -42.020  11.5590  0.00  0.00     0.000 OA
ENDBRANCH 45 54
BRANCH 41 57
ATOM     57  O4  SGN C   4      22.474 -40.415   7.3890  0.00  0.00     0.000 O
BRANCH 57 61
ATOM     58  C1  SGN C   4      19.735 -39.782   4.2870  0.00  0.00     0.000 C
ATOM     59  C2  SGN C   4      19.429 -40.936   5.2550  0.00  0.00     0.000 C
ATOM     60  C3  SGN C   4      20.248 -40.809   6.5470  0.00  0.00     0.000 C
ATOM     61  C4  SGN C   4      21.723 -40.686   6.2020  0.00  0.00     0.000 C
ATOM     62  C5  SGN C   4      21.949 -39.541   5.2160  0.00  0.00     0.000 C
ATOM     63  O5  SGN C   4      21.132 -39.713   4.0420  0.00  0.00     0.000 O
BRANCH 59 66
ATOM     64   N  SGN C   4      18.118 -41.482   4.8870  0.00  0.00     0.000 N
ATOM     66  HD  SGN C   4      18.777 -40.947   5.0610  0.00  0.00     0.000 HD
ATOM     66   O  SGN C   4      15.768 -41.983   5.2900  0.00  0.00     0.000 OA
ATOM     67   O  SGN C   4      17.406 -42.243   7.1040  0.00  0.00     0.000 OA
ATOM     68   S  SGN C   4      16.889 -41.365   5.9130  0.00  0.00     0.000 S
ATOM     69   O  SGN C   4      16.791 -40.016   6.3410  0.00  0.00     0.000 OA
ENDBRANCH 59 66
BRANCH 62 70
ATOM     70   C  SGN C   4      23.384 -39.482   4.7550  0.00  0.00     0.000 C
ATOM     71   S  SGN C   4      24.955 -40.126   2.8340  0.00  0.00     0.000 S
ATOM     72   O  SGN C   4      25.549 -38.805   2.8960  0.00  0.00     0.000 OA
ATOM     73   O  SGN C   4      25.602 -41.088   3.7020  0.00  0.00     0.000 OA
ATOM     74   O  SGN C   4      24.748 -40.603   1.4860  0.00  0.00     0.000 OA
ATOM     75   O  SGN C   4      23.483 -39.935   3.3990  0.00  0.00     0.000 O
ENDBRANCH 62 70
ENDBRANCH 57 61
ENDBRANCH 41 57
ENDBRANCH 40 44
ENDBRANCH 20 40
ENDBRANCH 19 23
ENDBRANCH 1 19
TORSDOF 14
ENDMDL
MODEL 21
REMARK VINA RESULT:      -7.2      7.902     13.633
ROOT
ATOM      1  C1  IDS C   1      17.009 -32.736  26.4850  0.00  0.00     0.000 C
ATOM      2  C2  IDS C   1      18.180 -32.471  25.5560  0.00  0.00     0.000 C
ATOM      3  C3  IDS C   1      17.880 -32.978  24.1500  0.00  0.00     0.000 C
ATOM      4  C4  IDS C   1      16.535 -32.453  23.6490  0.00  0.00     0.000 C
ATOM      5  C5  IDS C   1      15.441 -32.690  24.7100  0.00  0.00     0.000 C
ATOM      6  O5  IDS C   1      15.829 -32.130  25.9600  0.00  0.00     0.000 O
ATOM      7   O  IDS C   1      17.891 -34.407  24.1470  0.00  0.00     0.000 O
ATOM      9  HD  IDS C   1      17.354 -34.250  23.4870  0.00  0.00     0.000 HD
ATOM      9   O  IDS C   1      16.651 -31.045  23.3910  0.00  0.00     0.000 O
ATOM     11  HD  IDS C   1      16.113 -30.888  22.7310  0.00  0.00     0.000 HD
ENDROOT
BRANCH 2 11
ATOM     11   O  IDS C   1      18.440 -31.017  25.4630  0.00  0.00     0.000 O
ATOM     12   S  IDS C   1      19.049 -30.219  26.7060  0.00  0.00     0.000 S
ATOM     13   O  IDS C   1      19.878 -29.227  26.0570  0.00  0.00     0.000 OA
ATOM     14   O  IDS C   1      19.803 -31.128  27.5360  0.00  0.00     0.000 OA
ATOM     15   O  IDS C   1      17.901 -29.658  27.3740  0.00  0.00     0.000 OA
ENDBRANCH 2 11
BRANCH 5 16
ATOM     16   C  IDS C   1      14.099 -32.091  24.3310  0.00  0.00     0.000 C
ATOM     17   O  IDS C   1      13.323 -31.790  25.2140  0.00  0.00     0.000 OA
ATOM     18   O  IDS C   1      13.799 -31.930  23.1800  0.00  0.00     0.000 OA
ENDBRANCH 5 16
BRANCH 1 19
ATOM     19  O4  SGN C   2      16.857 -33.957  27.0060  0.00  0.00     0.000 O
BRANCH 19 23
ATOM     20  C1  SGN C   2      15.312 -36.162  30.1960  0.00  0.00     0.000 C
ATOM     21  C2  SGN C   2      14.293 -35.445  29.3020  0.00  0.00     0.000 C
ATOM     22  C3  SGN C   2      14.947 -35.067  27.9750  0.00  0.00     0.000 C
ATOM     23  C4  SGN C   2      16.179 -34.208  28.2380  0.00  0.00     0.000 C
ATOM     24  C5  SGN C   2      17.121 -34.932  29.2040  0.00  0.00     0.000 C
ATOM     25  O5  SGN C   2      16.410 -35.289  30.4030  0.00  0.00     0.000 O
ATOM     26   O  SGN C   2      14.019 -34.386  27.1380  0.00  0.00     0.000 O
ATOM     28  HD  SGN C   2      13.378 -34.043  26.6680  0.00  0.00     0.000 HD
BRANCH 21 30
ATOM     28   N  SGN C   2      13.400 -36.152  30.2290  0.00  0.00     0.000 N
ATOM     30  HD  SGN C   2      13.101 -36.930  29.9910  0.00  0.00     0.000 HD
ATOM     30   S  SGN C   2      11.809 -36.040  30.0960  0.00  0.00     0.000 S
ATOM     31   O  SGN C   2      11.518 -36.398  28.7490  0.00  0.00     0.000 OA
ATOM     32   O  SGN C   2      11.217 -36.758  31.1630  0.00  0.00     0.000 OA
ATOM     33   O  SGN C   2      11.513 -34.522  30.3460  0.00  0.00     0.000 OA
ENDBRANCH 21 30
BRANCH 24 34
ATOM     34   C  SGN C   2      18.302 -34.097  29.6410  0.00  0.00     0.000 C
ATOM     35   O  SGN C   2      18.373 -34.104  31.0770  0.00  0.00     0.000 O
ATOM     36   S  SGN C   2      19.220 -32.940  31.7670  0.00  0.00     0.000 S
ATOM     37   O  SGN C   2      18.666 -31.713  31.2290  0.00  0.00     0.000 OA
ATOM     38   O  SGN C   2      19.007 -33.092  33.1860  0.00  0.00     0.000 OA
ATOM     39   O  SGN C   2      20.576 -33.202  31.3500  0.00  0.00     0.000 OA
ENDBRANCH 24 34
BRANCH 20 40
ATOM     40  O4  IDS C   3      15.764 -37.345  29.7880  0.00  0.00     0.000 O
BRANCH 40 44
ATOM     41  C1  IDS C   3      16.138 -40.792  29.1480  0.00  0.00     0.000 C
ATOM     42  C2  IDS C   3      14.886 -40.236  29.8200  0.00  0.00     0.000 C
ATOM     43  C3  IDS C   3      15.266 -39.364  31.0140  0.00  0.00     0.000 C
ATOM     44  C4  IDS C   3      16.328 -38.339  30.6470  0.00  0.00     0.000 C
ATOM     45  C5  IDS C   3      17.506 -39.035  29.9340  0.00  0.00     0.000 C
ATOM     46  O5  IDS C   3      17.022 -39.734  28.7860  0.00  0.00     0.000 O
ATOM     47   O  IDS C   3      15.736 -40.192  32.0740  0.00  0.00     0.000 O
ATOM     49  HD  IDS C   3      15.106 -39.861  31.5810  0.00  0.00     0.000 HD
BRANCH 42 49
ATOM     49   O  IDS C   3      14.114 -39.414  28.8590  0.00  0.00     0.000 O
ATOM     50   S  IDS C   3      12.654 -39.888  28.4020  0.00  0.00     0.000 S
ATOM     51   O  IDS C   3      11.846 -39.660  29.5800  0.00  0.00     0.000 OA
ATOM     52   O  IDS C   3      12.699 -41.290  28.0190  0.00  0.00     0.000 OA
ATOM     53   O  IDS C   3      12.287 -39.033  27.2930  0.00  0.00     0.000 OA
ENDBRANCH 42 49
BRANCH 45 54
ATOM     54   C  IDS C   3      18.599 -38.073  29.4960  0.00  0.00     0.000 C
ATOM     55   O  IDS C   3      19.243 -37.485  30.3260  0.00  0.00     0.000 OA
ATOM     56   O  IDS C   3      18.805 -37.888  28.3130  0.00  0.00     0.000 OA
ENDBRANCH 45 54
BRANCH 41 57
ATOM     57  O4  SGN C   4      16.557 -41.823  29.8920  0.00  0.00     0.000 O
BRANCH 57 61
ATOM     58  C1  SGN C   4      19.253 -45.008  29.5530  0.00  0.00     0.000 C
ATOM     59  C2  SGN C   4      19.803 -43.603  29.2600  0.00  0.00     0.000 C
ATOM     60  C3  SGN C   4      18.866 -42.516  29.8060  0.00  0.00     0.000 C
ATOM     61  C4  SGN C   4      17.463 -42.738  29.2680  0.00  0.00     0.000 C
ATOM     62  C5  SGN C   4      16.993 -44.161  29.5680  0.00  0.00     0.000 C
ATOM     63  O5  SGN C   4      17.930 -45.124  29.0500  0.00  0.00     0.000 O
BRANCH 59 66
ATOM     64   N  SGN C   4      21.198 -43.796  29.6710  0.00  0.00     0.000 N
ATOM     66  HD  SGN C   4      20.401 -43.475  29.5580  0.00  0.00     0.000 HD
ATOM     66   O  SGN C   4      23.588 -43.338  29.5720  0.00  0.00     0.000 OA
ATOM     67   O  SGN C   4      22.269 -43.426  27.4990  0.00  0.00     0.000 OA
ATOM     68   S  SGN C   4      22.359 -42.928  28.9830  0.00  0.00     0.000 S
ATOM     69   O  SGN C   4      21.985 -41.560  29.0340  0.00  0.00     0.000 OA
ENDBRANCH 59 66
BRANCH 62 70
ATOM     70   C  SGN C   4      15.658 -44.450  28.9290  0.00  0.00     0.000 C
ATOM     71   S  SGN C   4      14.549 -45.402  26.8230  0.00  0.00     0.000 S
ATOM     72   O  SGN C   4      13.635 -46.154  27.6610  0.00  0.00     0.000 OA
ATOM     73   O  SGN C   4      14.066 -44.077  26.4920  0.00  0.00     0.000 OA
ATOM     74   O  SGN C   4      15.033 -46.147  25.6830  0.00  0.00     0.000 OA
ATOM     75   O  SGN C   4      15.843 -45.195  27.7190  0.00  0.00     0.000 O
ENDBRANCH 62 70
ENDBRANCH 57 61
ENDBRANCH 41 57
ENDBRANCH 40 44
ENDBRANCH 20 40
ENDBRANCH 19 23
ENDBRANCH 1 19
TORSDOF 14
ENDMDL
MODEL 22
REMARK VINA RESULT:      -7.2      6.496     11.342
ROOT
ATOM      1  C1  IDS C   1      22.868 -34.889  27.9590  0.00  0.00     0.000 C
ATOM      2  C2  IDS C   1      24.024 -34.528  27.0440  0.00  0.00     0.000 C
ATOM      3  C3  IDS C   1      23.854 -35.177  25.6760  0.00  0.00     0.000 C
ATOM      4  C4  IDS C   1      22.468 -34.891  25.0980  0.00  0.00     0.000 C
ATOM      5  C5  IDS C   1      21.379 -35.203  26.1430  0.00  0.00     0.000 C
ATOM      6  O5  IDS C   1      21.635 -34.501  27.3550  0.00  0.00     0.000 O
ATOM      7   O  IDS C   1      24.068 -36.585  25.7870  0.00  0.00     0.000 O
ATOM      9  HD  IDS C   1      23.540 -36.557  25.1010  0.00  0.00     0.000 HD
ATOM      9   O  IDS C   1      22.393 -33.504  24.7320  0.00  0.00     0.000 O
ATOM     11  HD  IDS C   1      21.865 -33.476  24.0460  0.00  0.00     0.000 HD
ENDROOT
BRANCH 2 11
ATOM     11   O  IDS C   1      24.079 -33.063  26.8430  0.00  0.00     0.000 O
ATOM     12   S  IDS C   1      25.469 -32.334  26.5400  0.00  0.00     0.000 S
ATOM     13   O  IDS C   1      25.069 -31.270  25.6470  0.00  0.00     0.000 OA
ATOM     14   O  IDS C   1      26.378 -33.273  25.9280  0.00  0.00     0.000 OA
ATOM     15   O  IDS C   1      25.920 -31.865  27.8270  0.00  0.00     0.000 OA
ENDBRANCH 2 11
BRANCH 5 16
ATOM     16   C  IDS C   1      19.981 -34.834  25.6810  0.00  0.00     0.000 C
ATOM     17   O  IDS C   1      19.168 -34.476  26.5070  0.00  0.00     0.000 OA
ATOM     18   O  IDS C   1      19.675 -34.909  24.5230  0.00  0.00     0.000 OA
ENDBRANCH 5 16
BRANCH 1 19
ATOM     19  O4  SGN C   2      22.870 -36.077  28.5710  0.00  0.00     0.000 O
BRANCH 19 23
ATOM     20  C1  SGN C   2      20.933 -38.111  31.6590  0.00  0.00     0.000 C
ATOM     21  C2  SGN C   2      20.649 -38.599  30.2340  0.00  0.00     0.000 C
ATOM     22  C3  SGN C   2      21.725 -38.076  29.2850  0.00  0.00     0.000 C
ATOM     23  C4  SGN C   2      21.784 -36.555  29.3660  0.00  0.00     0.000 C
ATOM     24  C5  SGN C   2      21.981 -36.119  30.8200  0.00  0.00     0.000 C
ATOM     25  O5  SGN C   2      20.951 -36.693  31.6460  0.00  0.00     0.000 O
ATOM     26   O  SGN C   2      21.468 -38.507  27.9540  0.00  0.00     0.000 O
ATOM     28  HD  SGN C   2      21.279 -38.867  27.1890  0.00  0.00     0.000 HD
BRANCH 21 30
ATOM     28   N  SGN C   2      19.949 -39.624  31.0190  0.00  0.00     0.000 N
ATOM     30  HD  SGN C   2      20.346 -40.384  31.1400  0.00  0.00     0.000 HD
ATOM     30   S  SGN C   2      19.063 -40.752  30.3100  0.00  0.00     0.000 S
ATOM     31   O  SGN C   2      19.924 -41.357  29.3500  0.00  0.00     0.000 OA
ATOM     32   O  SGN C   2      18.456 -41.544  31.3140  0.00  0.00     0.000 OA
ATOM     33   O  SGN C   2      17.918 -39.948  29.6040  0.00  0.00     0.000 OA
ENDBRANCH 21 30
BRANCH 24 34
ATOM     34   C  SGN C   2      21.905 -34.624  31.0210  0.00  0.00     0.000 C
ATOM     35   O  SGN C   2      21.109 -34.349  32.1870  0.00  0.00     0.000 O
ATOM     36   S  SGN C   2      20.504 -32.877  32.3230  0.00  0.00     0.000 S
ATOM     37   O  SGN C   2      19.791 -32.656  31.0800  0.00  0.00     0.000 OA
ATOM     38   O  SGN C   2      19.643 -32.915  33.4800  0.00  0.00     0.000 OA
ATOM     39   O  SGN C   2      21.665 -32.038  32.4890  0.00  0.00     0.000 OA
ENDBRANCH 24 34
BRANCH 20 40
ATOM     40  O4  IDS C   3      22.037 -38.557  32.2540  0.00  0.00     0.000 O
BRANCH 40 44
ATOM     41  C1  IDS C   3      24.356 -40.574  33.9800  0.00  0.00     0.000 C
ATOM     42  C2  IDS C   3      22.970 -41.092  33.6080  0.00  0.00     0.000 C
ATOM     43  C3  IDS C   3      21.894 -40.121  34.0880  0.00  0.00     0.000 C
ATOM     44  C4  IDS C   3      22.199 -38.691  33.6690  0.00  0.00     0.000 C
ATOM     45  C5  IDS C   3      23.644 -38.325  34.0640  0.00  0.00     0.000 C
ATOM     46  O5  IDS C   3      24.551 -39.257  33.4720  0.00  0.00     0.000 O
ATOM     47   O  IDS C   3      21.785 -40.198  35.5070  0.00  0.00     0.000 O
ATOM     49  HD  IDS C   3      21.652 -40.507  34.7090  0.00  0.00     0.000 HD
BRANCH 42 49
ATOM     49   O  IDS C   3      22.858 -41.236  32.1380  0.00  0.00     0.000 O
ATOM     50   S  IDS C   3      22.718 -42.695  31.4920  0.00  0.00     0.000 S
ATOM     51   O  IDS C   3      21.375 -43.092  31.8520  0.00  0.00     0.000 OA
ATOM     52   O  IDS C   3      23.729 -43.573  32.0580  0.00  0.00     0.000 OA
ATOM     53   O  IDS C   3      22.890 -42.517  30.0660  0.00  0.00     0.000 OA
ENDBRANCH 42 49
BRANCH 45 54
ATOM     54   C  IDS C   3      24.045 -36.919  33.6440  0.00  0.00     0.000 C
ATOM     55   O  IDS C   3      23.461 -35.971  34.1010  0.00  0.00     0.000 OA
ATOM     56   O  IDS C   3      24.941 -36.759  32.8380  0.00  0.00     0.000 OA
ENDBRANCH 45 54
BRANCH 41 57
ATOM     57  O4  SGN C   4      24.544 -40.853  35.2760  0.00  0.00     0.000 O
BRANCH 57 61
ATOM     58  C1  SGN C   4      27.765 -41.270  37.9190  0.00  0.00     0.000 C
ATOM     59  C2  SGN C   4      27.755 -40.013  37.0340  0.00  0.00     0.000 C
ATOM     60  C3  SGN C   4      26.364 -39.769  36.4320  0.00  0.00     0.000 C
ATOM     61  C4  SGN C   4      25.899 -41.021  35.7070  0.00  0.00     0.000 C
ATOM     62  C5  SGN C   4      25.962 -42.233  36.6350  0.00  0.00     0.000 C
ATOM     63  O5  SGN C   4      27.286 -42.385  37.1810  0.00  0.00     0.000 O
BRANCH 59 66
ATOM     64   N  SGN C   4      28.874 -39.115  37.3380  0.00  0.00     0.000 N
ATOM     66  HD  SGN C   4      28.251 -39.715  37.3900  0.00  0.00     0.000 HD
ATOM     66   O  SGN C   4      29.888 -37.164  38.3860  0.00  0.00     0.000 OA
ATOM     67   O  SGN C   4      27.635 -37.004  37.4150  0.00  0.00     0.000 OA
ATOM     68   S  SGN C   4      28.639 -37.839  38.2820  0.00  0.00     0.000 S
ATOM     69   O  SGN C   4      27.981 -38.272  39.4620  0.00  0.00     0.000 OA
ENDBRANCH 59 66
BRANCH 62 70
ATOM     70   C  SGN C   4      25.634 -43.510  35.9030  0.00  0.00     0.000 C
ATOM     71   S  SGN C   4      25.904 -46.058  35.9870  0.00  0.00     0.000 S
ATOM     72   O  SGN C   4      24.504 -46.204  35.6390  0.00  0.00     0.000 OA
ATOM     73   O  SGN C   4      26.779 -45.991  34.8340  0.00  0.00     0.000 OA
ATOM     74   O  SGN C   4      26.347 -46.987  37.0020  0.00  0.00     0.000 OA
ATOM     75   O  SGN C   4      25.999 -44.642  36.7010  0.00  0.00     0.000 O
ENDBRANCH 62 70
ENDBRANCH 57 61
ENDBRANCH 41 57
ENDBRANCH 40 44
ENDBRANCH 20 40
ENDBRANCH 19 23
ENDBRANCH 1 19
TORSDOF 14
ENDMDL
MODEL 23
REMARK VINA RESULT:      -7.1     10.905     17.294
ROOT
ATOM      1  C1  IDS C   1      26.474 -42.756  34.6730  0.00  0.00     0.000 C
ATOM      2  C2  IDS C   1      26.957 -41.560  35.4750  0.00  0.00     0.000 C
ATOM      3  C3  IDS C   1      26.621 -41.728  36.9520  0.00  0.00     0.000 C
ATOM      4  C4  IDS C   1      27.095 -43.083  37.4760  0.00  0.00     0.000 C
ATOM      5  C5  IDS C   1      26.627 -44.212  36.5360  0.00  0.00     0.000 C
ATOM      6  O5  IDS C   1      27.045 -43.953  35.1990  0.00  0.00     0.000 O
ATOM      7   O  IDS C   1      25.211 -41.585  37.1380  0.00  0.00     0.000 O
ATOM      9  HD  IDS C   1      25.411 -42.094  37.8100  0.00  0.00     0.000 HD
ATOM      9   O  IDS C   1      28.530 -43.082  37.5420  0.00  0.00     0.000 O
ATOM     11  HD  IDS C   1      28.729 -43.591  38.2130  0.00  0.00     0.000 HD
ENDROOT
BRANCH 2 11
ATOM     11   O  IDS C   1      28.427 -41.429  35.3610  0.00  0.00     0.000 O
ATOM     12   S  IDS C   1      29.092 -40.856  34.0260  0.00  0.00     0.000 S
ATOM     13   O  IDS C   1      30.236 -40.135  34.5390  0.00  0.00     0.000 OA
ATOM     14   O  IDS C   1      28.145 -40.003  33.3490  0.00  0.00     0.000 OA
ATOM     15   O  IDS C   1      29.446 -42.028  33.2650  0.00  0.00     0.000 OA
ENDBRANCH 2 11
BRANCH 5 16
ATOM     16   C  IDS C   1      27.159 -45.579  36.9290  0.00  0.00     0.000 C
ATOM     17   O  IDS C   1      27.464 -45.776  38.0860  0.00  0.00     0.000 OA
ATOM     18   O  IDS C   1      27.291 -46.446  36.1100  0.00  0.00     0.000 OA
ENDBRANCH 5 16
BRANCH 1 19
ATOM     19  O4  SGN C   2      25.185 -42.826  34.3260  0.00  0.00     0.000 O
BRANCH 19 23
ATOM     20  C1  SGN C   2      22.505 -43.969  31.3370  0.00  0.00     0.000 C
ATOM     21  C2  SGN C   2      23.114 -45.097  32.1780  0.00  0.00     0.000 C
ATOM     22  C3  SGN C   2      23.702 -44.522  33.4650  0.00  0.00     0.000 C
ATOM     23  C4  SGN C   2      24.727 -43.446  33.1240  0.00  0.00     0.000 C
ATOM     24  C5  SGN C   2      24.092 -42.393  32.2130  0.00  0.00     0.000 C
ATOM     25  O5  SGN C   2      23.527 -43.028  31.0520  0.00  0.00     0.000 O
ATOM     26   O  SGN C   2      24.286 -45.554  34.2510  0.00  0.00     0.000 O
ATOM     28  HD  SGN C   2      24.556 -46.245  34.6970  0.00  0.00     0.000 HD
BRANCH 21 30
ATOM     28   N  SGN C   2      22.160 -45.851  31.3550  0.00  0.00     0.000 N
ATOM     30  HD  SGN C   2      21.389 -46.043  31.7000  0.00  0.00     0.000 HD
ATOM     30   S  SGN C   2      22.057 -47.445  31.4540  0.00  0.00     0.000 S
ATOM     31   O  SGN C   2      21.856 -47.724  32.8360  0.00  0.00     0.000 OA
ATOM     32   O  SGN C   2      21.115 -47.894  30.4970  0.00  0.00     0.000 OA
ATOM     33   O  SGN C   2      23.464 -47.946  30.9820  0.00  0.00     0.000 OA
ENDBRANCH 21 30
BRANCH 24 34
ATOM     34   C  SGN C   2      25.071 -41.363  31.7010  0.00  0.00     0.000 C
ATOM     35   O  SGN C   2      25.043 -41.365  30.2630  0.00  0.00     0.000 O
ATOM     36   S  SGN C   2      26.297 -40.724  29.5110  0.00  0.00     0.000 S
ATOM     37   O  SGN C   2      27.448 -41.414  30.0600  0.00  0.00     0.000 OA
ATOM     38   O  SGN C   2      26.086 -40.986  28.1080  0.00  0.00     0.000 OA
ATOM     39   O  SGN C   2      26.233 -39.325  29.8580  0.00  0.00     0.000 OA
ENDBRANCH 24 34
BRANCH 20 40
ATOM     40  O4  IDS C   3      21.449 -43.331  31.8370  0.00  0.00     0.000 O
BRANCH 40 44
ATOM     41  C1  IDS C   3      18.088 -42.484  32.4780  0.00  0.00     0.000 C
ATOM     42  C2  IDS C   3      18.457 -43.656  31.5730  0.00  0.00     0.000 C
ATOM     43  C3  IDS C   3      19.444 -43.207  30.4980  0.00  0.00     0.000 C
ATOM     44  C4  IDS C   3      20.614 -42.440  31.0940  0.00  0.00     0.000 C
ATOM     45  C5  IDS C   3      20.091 -41.322  32.0210  0.00  0.00     0.000 C
ATOM     46  O5  IDS C   3      19.260 -41.892  33.0330  0.00  0.00     0.000 O
ATOM     47   O  IDS C   3      18.766 -42.395  29.5430  0.00  0.00     0.000 O
ATOM     49  HD  IDS C   3      18.958 -43.159  29.9020  0.00  0.00     0.000 HD
BRANCH 42 49
ATOM     49   O  IDS C   3      19.082 -44.737  32.3690  0.00  0.00     0.000 O
ATOM     50   S  IDS C   3      18.236 -46.049  32.7300  0.00  0.00     0.000 S
ATOM     51   O  IDS C   3      18.138 -46.741  31.4640  0.00  0.00     0.000 OA
ATOM     52   O  IDS C   3      16.938 -45.657  33.2540  0.00  0.00     0.000 OA
ATOM     53   O  IDS C   3      19.020 -46.772  33.7090  0.00  0.00     0.000 OA
ENDBRANCH 42 49
BRANCH 45 54
ATOM     54   C  IDS C   3      21.201 -40.528  32.6910  0.00  0.00     0.000 C
ATOM     55   O  IDS C   3      21.419 -40.681  33.8650  0.00  0.00     0.000 OA
ATOM     56   O  IDS C   3      21.852 -39.730  32.0450  0.00  0.00     0.000 OA
ENDBRANCH 45 54
BRANCH 41 57
ATOM     57  O4  SGN C   4      17.185 -41.749  31.8180  0.00  0.00     0.000 O
BRANCH 57 61
ATOM     58  C1  SGN C   4      14.173 -39.005  32.7820  0.00  0.00     0.000 C
ATOM     59  C2  SGN C   4      15.494 -38.881  33.5570  0.00  0.00     0.000 C
ATOM     60  C3  SGN C   4      16.625 -39.640  32.8490  0.00  0.00     0.000 C
ATOM     61  C4  SGN C   4      16.199 -41.079  32.6100  0.00  0.00     0.000 C
ATOM     62  C5  SGN C   4      14.867 -41.126  31.8630  0.00  0.00     0.000 C
ATOM     63  O5  SGN C   4      13.862 -40.375  32.5700  0.00  0.00     0.000 O
BRANCH 59 66
ATOM     64   N  SGN C   4      15.613 -37.772  34.5090  0.00  0.00     0.000 N
ATOM     66  HD  SGN C   4      15.335 -38.310  33.8900  0.00  0.00     0.000 HD
ATOM     66   O  SGN C   4      16.043 -35.454  35.1210  0.00  0.00     0.000 OA
ATOM     67   O  SGN C   4      17.437 -36.552  33.4190  0.00  0.00     0.000 OA
ATOM     68   S  SGN C   4      15.994 -36.305  33.9810  0.00  0.00     0.000 S
ATOM     69   O  SGN C   4      15.129 -35.979  32.9050  0.00  0.00     0.000 OA
ENDBRANCH 59 66
BRANCH 62 70
ATOM     70   C  SGN C   4      14.355 -42.539  31.7310  0.00  0.00     0.000 C
ATOM     71   S  SGN C   4      13.755 -44.359  30.0280  0.00  0.00     0.000 S
ATOM     72   O  SGN C   4      14.466 -45.330  30.8370  0.00  0.00     0.000 OA
ATOM     73   O  SGN C   4      12.359 -44.221  30.3910  0.00  0.00     0.000 OA
ATOM     74   O  SGN C   4      13.975 -44.517  28.6090  0.00  0.00     0.000 OA
ATOM     75   O  SGN C   4      14.443 -42.968  30.3670  0.00  0.00     0.000 O
ENDBRANCH 62 70
ENDBRANCH 57 61
ENDBRANCH 41 57
ENDBRANCH 40 44
ENDBRANCH 20 40
ENDBRANCH 19 23
ENDBRANCH 1 19
TORSDOF 14
ENDMDL
MODEL 24
REMARK VINA RESULT:      -7.0      6.613     10.768
ROOT
ATOM      1  C1  IDS C   1      29.278 -29.106  26.0240  0.00  0.00     0.000 C
ATOM      2  C2  IDS C   1      28.917 -30.290  26.9040  0.00  0.00     0.000 C
ATOM      3  C3  IDS C   1      28.115 -29.836  28.1180  0.00  0.00     0.000 C
ATOM      4  C4  IDS C   1      26.931 -28.963  27.7030  0.00  0.00     0.000 C
ATOM      5  C5  IDS C   1      27.398 -27.853  26.7400  0.00  0.00     0.000 C
ATOM      6  O5  IDS C   1      28.093 -28.416  25.6310  0.00  0.00     0.000 O
ATOM      7   O  IDS C   1      28.971 -29.126  29.0150  0.00  0.00     0.000 O
ATOM      9  HD  IDS C   1      28.206 -28.771  29.2090  0.00  0.00     0.000 HD
ATOM      9   O  IDS C   1      25.953 -29.784  27.0460  0.00  0.00     0.000 O
ATOM     11  HD  IDS C   1      25.188 -29.428  27.2410  0.00  0.00     0.000 HD
ENDROOT
BRANCH 2 11
ATOM     11   O  IDS C   1      28.083 -31.251  26.1480  0.00  0.00     0.000 O
ATOM     12   S  IDS C   1      28.700 -32.083  24.9310  0.00  0.00     0.000 S
ATOM     13   O  IDS C   1      28.000 -33.344  25.0350  0.00  0.00     0.000 OA
ATOM     14   O  IDS C   1      30.125 -32.213  25.1150  0.00  0.00     0.000 OA
ATOM     15   O  IDS C   1      28.346 -31.325  23.7570  0.00  0.00     0.000 OA
ENDBRANCH 2 11
BRANCH 5 16
ATOM     16   C  IDS C   1      26.257 -27.014  26.1930  0.00  0.00     0.000 C
ATOM     17   O  IDS C   1      26.516 -25.973  25.6270  0.00  0.00     0.000 OA
ATOM     18   O  IDS C   1      25.117 -27.362  26.3310  0.00  0.00     0.000 OA
ENDBRANCH 5 16
BRANCH 1 19
ATOM     19  O4  SGN C   2      30.315 -28.336  26.3670  0.00  0.00     0.000 O
BRANCH 19 23
ATOM     20  C1  SGN C   2      33.520 -26.084  24.9230  0.00  0.00     0.000 C
ATOM     21  C2  SGN C   2      32.136 -25.426  24.8570  0.00  0.00     0.000 C
ATOM     22  C3  SGN C   2      31.174 -26.157  25.7900  0.00  0.00     0.000 C
ATOM     23  C4  SGN C   2      31.121 -27.634  25.4190  0.00  0.00     0.000 C
ATOM     24  C5  SGN C   2      32.536 -28.219  25.4150  0.00  0.00     0.000 C
ATOM     25  O5  SGN C   2      33.382 -27.444  24.5460  0.00  0.00     0.000 O
ATOM     26   O  SGN C   2      29.879 -25.569  25.7290  0.00  0.00     0.000 O
ATOM     28  HD  SGN C   2      29.144 -25.113  25.6860  0.00  0.00     0.000 HD
BRANCH 21 30
ATOM     28   N  SGN C   2      32.991 -24.309  24.4350  0.00  0.00     0.000 N
ATOM     30  HD  SGN C   2      33.185 -23.703  25.0220  0.00  0.00     0.000 HD
ATOM     30   S  SGN C   2      32.361 -22.927  23.9320  0.00  0.00     0.000 S
ATOM     31   O  SGN C   2      31.475 -22.517  24.9690  0.00  0.00     0.000 OA
ATOM     32   O  SGN C   2      33.415 -22.075  23.5240  0.00  0.00     0.000 OA
ATOM     33   O  SGN C   2      31.564 -23.320  22.6410  0.00  0.00     0.000 OA
ENDBRANCH 21 30
BRANCH 24 34
ATOM     34   C  SGN C   2      32.603 -29.643  24.9150  0.00  0.00     0.000 C
ATOM     35   O  SGN C   2      33.605 -29.732  23.8870  0.00  0.00     0.000 O
ATOM     36   S  SGN C   2      33.526 -30.987  22.9030  0.00  0.00     0.000 S
ATOM     37   O  SGN C   2      32.174 -30.962  22.3810  0.00  0.00     0.000 OA
ATOM     38   O  SGN C   2      34.534 -30.756  21.8970  0.00  0.00     0.000 OA
ATOM     39   O  SGN C   2      33.803 -32.116  23.7570  0.00  0.00     0.000 OA
ENDBRANCH 24 34
BRANCH 20 40
ATOM     40  O4  IDS C   3      34.180 -26.014  26.0760  0.00  0.00     0.000 O
BRANCH 40 44
ATOM     41  C1  IDS C   3      36.295 -24.603  28.5190  0.00  0.00     0.000 C
ATOM     42  C2  IDS C   3      36.026 -23.898  27.1930  0.00  0.00     0.000 C
ATOM     43  C3  IDS C   3      36.292 -24.845  26.0250  0.00  0.00     0.000 C
ATOM     44  C4  IDS C   3      35.593 -26.182  26.2140  0.00  0.00     0.000 C
ATOM     45  C5  IDS C   3      35.916 -26.750  27.6120  0.00  0.00     0.000 C
ATOM     46  O5  IDS C   3      35.531 -25.803  28.6110  0.00  0.00     0.000 O
ATOM     47   O  IDS C   3      37.696 -25.045  25.8880  0.00  0.00     0.000 O
ATOM     49  HD  IDS C   3      36.977 -24.571  25.8020  0.00  0.00     0.000 HD
BRANCH 42 49
ATOM     49   O  IDS C   3      34.615 -23.452  27.1290  0.00  0.00     0.000 O
ATOM     50   S  IDS C   3      34.238 -21.951  27.5440  0.00  0.00     0.000 S
ATOM     51   O  IDS C   3      34.764 -21.161  26.4520  0.00  0.00     0.000 OA
ATOM     52   O  IDS C   3      34.863 -21.629  28.8160  0.00  0.00     0.000 OA
ATOM     53   O  IDS C   3      32.793 -21.911  27.6230  0.00  0.00     0.000 OA
ENDBRANCH 42 49
BRANCH 45 54
ATOM     54   C  IDS C   3      35.223 -28.072  27.9000  0.00  0.00     0.000 C
ATOM     55   O  IDS C   3      35.432 -29.022  27.1910  0.00  0.00     0.000 OA
ATOM     56   O  IDS C   3      34.448 -28.161  28.8330  0.00  0.00     0.000 OA
ENDBRANCH 45 54
BRANCH 41 57
ATOM     57  O4  SGN C   4      37.621 -24.608  28.6980  0.00  0.00     0.000 O
BRANCH 57 61
ATOM     58  C1  SGN C   4      40.314 -24.443  31.9000  0.00  0.00     0.000 C
ATOM     59  C2  SGN C   4      39.667 -25.807  31.6110  0.00  0.00     0.000 C
ATOM     60  C3  SGN C   4      39.045 -25.839  30.2080  0.00  0.00     0.000 C
ATOM     61  C4  SGN C   4      38.086 -24.671  30.0500  0.00  0.00     0.000 C
ATOM     62  C5  SGN C   4      38.787 -23.354  30.3800  0.00  0.00     0.000 C
ATOM     63  O5  SGN C   4      39.366 -23.404  31.6980  0.00  0.00     0.000 O
BRANCH 59 66
ATOM     64   N  SGN C   4      40.736 -26.742  31.9750  0.00  0.00     0.000 N
ATOM     66  HD  SGN C   4      40.050 -26.368  31.6000  0.00  0.00     0.000 HD
ATOM     66   O  SGN C   4      41.613 -28.761  33.0180  0.00  0.00     0.000 OA
ATOM     67   O  SGN C   4      39.875 -27.446  34.1570  0.00  0.00     0.000 OA
ATOM     68   S  SGN C   4      40.388 -28.066  32.8110  0.00  0.00     0.000 S
ATOM     69   O  SGN C   4      39.311 -28.730  32.1690  0.00  0.00     0.000 OA
ENDBRANCH 59 66
BRANCH 62 70
ATOM     70   C  SGN C   4      37.824 -22.194  30.3620  0.00  0.00     0.000 C
ATOM     71   S  SGN C   4      37.323 -19.919  31.4320  0.00  0.00     0.000 S
ATOM     72   O  SGN C   4      37.075 -19.369  30.1140  0.00  0.00     0.000 OA
ATOM     73   O  SGN C   4      36.140 -20.484  32.0500  0.00  0.00     0.000 OA
ATOM     74   O  SGN C   4      38.065 -19.032  32.2980  0.00  0.00     0.000 OA
ATOM     75   O  SGN C   4      38.319 -21.131  31.1850  0.00  0.00     0.000 O
ENDBRANCH 62 70
ENDBRANCH 57 61
ENDBRANCH 41 57
ENDBRANCH 40 44
ENDBRANCH 20 40
ENDBRANCH 19 23
ENDBRANCH 1 19
TORSDOF 14
ENDMDL
MODEL 25
REMARK VINA RESULT:      -7.0     20.830     28.563
ROOT
ATOM      1  C1  IDS C   1      39.257 -41.838  40.4580  0.00  0.00     0.000 C
ATOM      2  C2  IDS C   1      39.973 -41.239  39.2610  0.00  0.00     0.000 C
ATOM      3  C3  IDS C   1      40.110 -42.266  38.1430  0.00  0.00     0.000 C
ATOM      4  C4  IDS C   1      38.764 -42.918  37.8240  0.00  0.00     0.000 C
ATOM      5  C5  IDS C   1      38.086 -43.405  39.1210  0.00  0.00     0.000 C
ATOM      6  O5  IDS C   1      37.982 -42.339  40.0590  0.00  0.00     0.000 O
ATOM      7   O  IDS C   1      41.068 -43.256  38.5220  0.00  0.00     0.000 O
ATOM      9  HD  IDS C   1      40.573 -43.712  37.9760  0.00  0.00     0.000 HD
ATOM      9   O  IDS C   1      37.920 -41.953  37.1790  0.00  0.00     0.000 O
ATOM     11  HD  IDS C   1      37.425 -42.409  36.6330  0.00  0.00     0.000 HD
ENDROOT
BRANCH 2 11
ATOM     11   O  IDS C   1      39.202 -40.094  38.7260  0.00  0.00     0.000 O
ATOM     12   S  IDS C   1      38.821 -38.860  39.6670  0.00  0.00     0.000 S
ATOM     13   O  IDS C   1      38.887 -37.743  38.7500  0.00  0.00     0.000 OA
ATOM     14   O  IDS C   1      39.778 -38.764  40.7420  0.00  0.00     0.000 OA
ATOM     15   O  IDS C   1      37.484 -39.151  40.1220  0.00  0.00     0.000 OA
ENDBRANCH 2 11
BRANCH 5 16
ATOM     16   C  IDS C   1      36.692 -43.961  38.8960  0.00  0.00     0.000 C
ATOM     17   O  IDS C   1      36.397 -45.021  39.4050  0.00  0.00     0.000 OA
ATOM     18   O  IDS C   1      35.898 -43.374  38.2150  0.00  0.00     0.000 OA
ENDBRANCH 5 16
BRANCH 1 19
ATOM     19  O4  SGN C   2      39.946 -42.606  41.3080  0.00  0.00     0.000 O
BRANCH 19 23
ATOM     20  C1  SGN C   2      40.769 -43.399  45.3230  0.00  0.00     0.000 C
ATOM     21  C2  SGN C   2      39.349 -43.717  44.8400  0.00  0.00     0.000 C
ATOM     22  C3  SGN C   2      39.328 -43.793  43.3150  0.00  0.00     0.000 C
ATOM     23  C4  SGN C   2      39.852 -42.487  42.7290  0.00  0.00     0.000 C
ATOM     24  C5  SGN C   2      41.234 -42.174  43.3100  0.00  0.00     0.000 C
ATOM     25  O5  SGN C   2      41.168 -42.166  44.7480  0.00  0.00     0.000 O
ATOM     26   O  SGN C   2      38.013 -44.071  42.8480  0.00  0.00     0.000 O
ATOM     28  HD  SGN C   2      37.204 -44.309  42.6520  0.00  0.00     0.000 HD
BRANCH 21 30
ATOM     28   N  SGN C   2      38.565 -44.851  45.3460  0.00  0.00     0.000 N
ATOM     30  HD  SGN C   2      37.703 -44.816  45.2670  0.00  0.00     0.000 HD
ATOM     30   S  SGN C   2      37.943 -44.837  46.8200  0.00  0.00     0.000 S
ATOM     31   O  SGN C   2      37.189 -43.632  46.8990  0.00  0.00     0.000 OA
ATOM     32   O  SGN C   2      37.312 -46.083  47.0530  0.00  0.00     0.000 OA
ATOM     33   O  SGN C   2      39.195 -44.775  47.7600  0.00  0.00     0.000 OA
ENDBRANCH 21 30
BRANCH 24 34
ATOM     34   C  SGN C   2      41.772 -40.823  42.9010  0.00  0.00     0.000 C
ATOM     35   O  SGN C   2      42.410 -40.211  44.0350  0.00  0.00     0.000 O
ATOM     36   S  SGN C   2      42.625 -38.630  43.9810  0.00  0.00     0.000 S
ATOM     37   O  SGN C   2      41.309 -38.088  43.7050  0.00  0.00     0.000 OA
ATOM     38   O  SGN C   2      43.137 -38.262  45.2790  0.00  0.00     0.000 OA
ATOM     39   O  SGN C   2      43.571 -38.444  42.9080  0.00  0.00     0.000 OA
ENDBRANCH 24 34
BRANCH 20 40
ATOM     40  O4  IDS C   3      41.713 -44.311  45.1010  0.00  0.00     0.000 O
BRANCH 40 44
ATOM     41  C1  IDS C   3      43.616 -47.225  45.6640  0.00  0.00     0.000 C
ATOM     42  C2  IDS C   3      42.493 -46.810  46.6100  0.00  0.00     0.000 C
ATOM     43  C3  IDS C   3      42.677 -45.360  47.0500  0.00  0.00     0.000 C
ATOM     44  C4  IDS C   3      42.915 -44.438  45.8640  0.00  0.00     0.000 C
ATOM     45  C5  IDS C   3      44.039 -45.007  44.9740  0.00  0.00     0.000 C
ATOM     46  O5  IDS C   3      43.694 -46.330  44.5580  0.00  0.00     0.000 O
ATOM     47   O  IDS C   3      43.772 -45.276  47.9580  0.00  0.00     0.000 O
ATOM     49  HD  IDS C   3      42.956 -45.484  47.7580  0.00  0.00     0.000 HD
BRANCH 42 49
ATOM     49   O  IDS C   3      41.182 -46.937  45.9310  0.00  0.00     0.000 O
ATOM     50   S  IDS C   3      40.270 -48.226  46.2010  0.00  0.00     0.000 S
ATOM     51   O  IDS C   3      39.795 -48.022  47.5510  0.00  0.00     0.000 OA
ATOM     52   O  IDS C   3      41.079 -49.426  46.0690  0.00  0.00     0.000 OA
ATOM     53   O  IDS C   3      39.209 -48.175  45.2170  0.00  0.00     0.000 OA
ENDBRANCH 42 49
BRANCH 45 54
ATOM     54   C  IDS C   3      44.315 -44.163  43.7400  0.00  0.00     0.000 C
ATOM     55   O  IDS C   3      44.672 -43.020  43.8660  0.00  0.00     0.000 OA
ATOM     56   O  IDS C   3      44.159 -44.639  42.6320  0.00  0.00     0.000 OA
ENDBRANCH 45 54
BRANCH 41 57
ATOM     57  O4  SGN C   4      44.688 -47.488  46.4210  0.00  0.00     0.000 O
BRANCH 57 61
ATOM     58  C1  SGN C   4      47.857 -50.223  46.5060  0.00  0.00     0.000 C
ATOM     59  C2  SGN C   4      47.827 -49.236  45.3280  0.00  0.00     0.000 C
ATOM     60  C3  SGN C   4      46.892 -48.054  45.6180  0.00  0.00     0.000 C
ATOM     61  C4  SGN C   4      45.518 -48.576  46.0030  0.00  0.00     0.000 C
ATOM     62  C5  SGN C   4      45.626 -49.572  47.1570  0.00  0.00     0.000 C
ATOM     63  O5  SGN C   4      46.536 -50.637  46.8240  0.00  0.00     0.000 O
BRANCH 59 66
ATOM     64   N  SGN C   4      49.225 -48.891  45.0500  0.00  0.00     0.000 N
ATOM     66  HD  SGN C   4      48.359 -48.898  45.0720  0.00  0.00     0.000 HD
ATOM     66   O  SGN C   4      51.204 -48.760  43.6350  0.00  0.00     0.000 OA
ATOM     67   O  SGN C   4      49.768 -50.754  43.5540  0.00  0.00     0.000 OA
ATOM     68   S  SGN C   4      49.847 -49.188  43.6010  0.00  0.00     0.000 S
ATOM     69   O  SGN C   4      48.972 -48.653  42.6200  0.00  0.00     0.000 OA
ENDBRANCH 59 66
BRANCH 62 70
ATOM     70   C  SGN C   4      44.294 -50.206  47.4690  0.00  0.00     0.000 C
ATOM     71   S  SGN C   4      43.148 -52.443  47.9740  0.00  0.00     0.000 S
ATOM     72   O  SGN C   4      42.426 -51.811  49.0600  0.00  0.00     0.000 OA
ATOM     73   O  SGN C   4      42.458 -52.363  46.7020  0.00  0.00     0.000 OA
ATOM     74   O  SGN C   4      43.630 -53.767  48.2930  0.00  0.00     0.000 OA
ATOM     75   O  SGN C   4      44.475 -51.584  47.8160  0.00  0.00     0.000 O
ENDBRANCH 62 70
ENDBRANCH 57 61
ENDBRANCH 41 57
ENDBRANCH 40 44
ENDBRANCH 20 40
ENDBRANCH 19 23
ENDBRANCH 1 19
TORSDOF 14
ENDMDL
MODEL 26
REMARK VINA RESULT:      -7.0      6.303     11.259
ROOT
ATOM      1  C1  IDS C   1      23.782 -34.306  27.9300  0.00  0.00     0.000 C
ATOM      2  C2  IDS C   1      24.919 -34.344  26.9240  0.00  0.00     0.000 C
ATOM      3  C3  IDS C   1      24.512 -35.120  25.6770  0.00  0.00     0.000 C
ATOM      4  C4  IDS C   1      23.182 -34.612  25.1200  0.00  0.00     0.000 C
ATOM      5  C5  IDS C   1      22.131 -34.525  26.2440  0.00  0.00     0.000 C
ATOM      6  O5  IDS C   1      22.621 -33.738  27.3250  0.00  0.00     0.000 O
ATOM      7   O  IDS C   1      24.424 -36.511  25.9900  0.00  0.00     0.000 O
ATOM      9  HD  IDS C   1      23.865 -36.460  25.3300  0.00  0.00     0.000 HD
ATOM      9   O  IDS C   1      23.382 -33.307  24.5530  0.00  0.00     0.000 O
ATOM     11  HD  IDS C   1      22.823 -33.256  23.8930  0.00  0.00     0.000 HD
ENDROOT
BRANCH 2 11
ATOM     11   O  IDS C   1      25.274 -32.971  26.5030  0.00  0.00     0.000 O
ATOM     12   S  IDS C   1      26.724 -32.651  25.9110  0.00  0.00     0.000 S
ATOM     13   O  IDS C   1      26.435 -31.626  24.9320  0.00  0.00     0.000 OA
ATOM     14   O  IDS C   1      27.277 -33.849  25.3270  0.00  0.00     0.000 OA
ATOM     15   O  IDS C   1      27.479 -32.169  27.0410  0.00  0.00     0.000 OA
ENDBRANCH 2 11
BRANCH 5 16
ATOM     16   C  IDS C   1      20.816 -33.918  25.7900  0.00  0.00     0.000 C
ATOM     17   O  IDS C   1      19.935 -34.655  25.4000  0.00  0.00     0.000 OA
ATOM     18   O  IDS C   1      20.651 -32.729  25.7990  0.00  0.00     0.000 OA
ENDBRANCH 5 16
BRANCH 1 19
ATOM     19  O4  SGN C   2      23.572 -35.368  28.7120  0.00  0.00     0.000 O
BRANCH 19 23
ATOM     20  C1  SGN C   2      21.674 -36.695  32.1860  0.00  0.00     0.000 C
ATOM     21  C2  SGN C   2      20.843 -36.724  30.8980  0.00  0.00     0.000 C
ATOM     22  C3  SGN C   2      21.767 -36.639  29.6860  0.00  0.00     0.000 C
ATOM     23  C4  SGN C   2      22.625 -35.383  29.7820  0.00  0.00     0.000 C
ATOM     24  C5  SGN C   2      23.365 -35.361  31.1230  0.00  0.00     0.000 C
ATOM     25  O5  SGN C   2      22.423 -35.490  32.2030  0.00  0.00     0.000 O
ATOM     26   O  SGN C   2      21.011 -36.650  28.4800  0.00  0.00     0.000 O
ATOM     28  HD  SGN C   2      20.484 -36.730  27.7980  0.00  0.00     0.000 HD
BRANCH 21 30
ATOM     28   N  SGN C   2      19.915 -37.855  30.7640  0.00  0.00     0.000 N
ATOM     30  HD  SGN C   2      19.352 -37.842  30.1060  0.00  0.00     0.000 HD
ATOM     30   S  SGN C   2      18.443 -37.798  31.3880  0.00  0.00     0.000 S
ATOM     31   O  SGN C   2      17.860 -36.608  30.8690  0.00  0.00     0.000 OA
ATOM     32   O  SGN C   2      17.814 -39.048  31.1690  0.00  0.00     0.000 OA
ATOM     33   O  SGN C   2      18.689 -37.673  32.9300  0.00  0.00     0.000 OA
ENDBRANCH 21 30
BRANCH 24 34
ATOM     34   C  SGN C   2      24.128 -34.081  31.3740  0.00  0.00     0.000 C
ATOM     35   O  SGN C   2      25.487 -34.407  31.7160  0.00  0.00     0.000 O
ATOM     36   S  SGN C   2      26.334 -33.282  32.4690  0.00  0.00     0.000 S
ATOM     37   O  SGN C   2      25.527 -32.921  33.6180  0.00  0.00     0.000 OA
ATOM     38   O  SGN C   2      27.585 -33.909  32.8210  0.00  0.00     0.000 OA
ATOM     39   O  SGN C   2      26.464 -32.231  31.4910  0.00  0.00     0.000 OA
ENDBRANCH 24 34
BRANCH 20 40
ATOM     40  O4  IDS C   3      22.490 -37.721  32.4150  0.00  0.00     0.000 O
BRANCH 40 44
ATOM     41  C1  IDS C   3      24.141 -40.750  33.1390  0.00  0.00     0.000 C
ATOM     42  C2  IDS C   3      22.638 -40.703  32.8790  0.00  0.00     0.000 C
ATOM     43  C3  IDS C   3      21.978 -39.653  33.7690  0.00  0.00     0.000 C
ATOM     44  C4  IDS C   3      22.703 -38.318  33.6970  0.00  0.00     0.000 C
ATOM     45  C5  IDS C   3      24.214 -38.527  33.9290  0.00  0.00     0.000 C
ATOM     46  O5  IDS C   3      24.719 -39.458  32.9700  0.00  0.00     0.000 O
ATOM     47   O  IDS C   3      21.955 -40.121  35.1150  0.00  0.00     0.000 O
ATOM     49  HD  IDS C   3      21.669 -40.120  34.2980  0.00  0.00     0.000 HD
BRANCH 42 49
ATOM     49   O  IDS C   3      22.377 -40.355  31.4630  0.00  0.00     0.000 O
ATOM     50   S  IDS C   3      21.719 -41.443  30.4870  0.00  0.00     0.000 S
ATOM     51   O  IDS C   3      20.350 -41.519  30.9480  0.00  0.00     0.000 OA
ATOM     52   O  IDS C   3      22.425 -42.706  30.6260  0.00  0.00     0.000 OA
ATOM     53   O  IDS C   3      21.834 -40.900  29.1510  0.00  0.00     0.000 OA
ENDBRANCH 42 49
BRANCH 45 54
ATOM     54   C  IDS C   3      25.021 -37.242  33.8340  0.00  0.00     0.000 C
ATOM     55   O  IDS C   3      24.695 -36.283  34.4850  0.00  0.00     0.000 OA
ATOM     56   O  IDS C   3      25.981 -37.182  33.0910  0.00  0.00     0.000 OA
ENDBRANCH 45 54
BRANCH 41 57
ATOM     57  O4  SGN C   4      24.322 -41.450  34.2650  0.00  0.00     0.000 O
BRANCH 57 61
ATOM     58  C1  SGN C   4      27.556 -42.914  36.4850  0.00  0.00     0.000 C
ATOM     59  C2  SGN C   4      27.684 -41.482  35.9390  0.00  0.00     0.000 C
ATOM     60  C3  SGN C   4      26.317 -40.926  35.5180  0.00  0.00     0.000 C
ATOM     61  C4  SGN C   4      25.657 -41.887  34.5430  0.00  0.00     0.000 C
ATOM     62  C5  SGN C   4      25.590 -43.292  35.1370  0.00  0.00     0.000 C
ATOM     63  O5  SGN C   4      26.902 -43.739  35.5320  0.00  0.00     0.000 O
BRANCH 59 66
ATOM     64   N  SGN C   4      28.921 -40.976  36.5420  0.00  0.00     0.000 N
ATOM     66  HD  SGN C   4      28.136 -41.322  36.4210  0.00  0.00     0.000 HD
ATOM     66   O  SGN C   4      30.237 -39.352  37.7930  0.00  0.00     0.000 OA
ATOM     67   O  SGN C   4      28.546 -38.582  36.1850  0.00  0.00     0.000 OA
ATOM     68   S  SGN C   4      28.909 -39.582  37.3370  0.00  0.00     0.000 S
ATOM     69   O  SGN C   4      27.845 -39.611  38.2750  0.00  0.00     0.000 OA
ENDBRANCH 59 66
BRANCH 62 70
ATOM     70   C  SGN C   4      25.062 -44.292  34.1390  0.00  0.00     0.000 C
ATOM     71   S  SGN C   4      25.373 -46.679  33.2560  0.00  0.00     0.000 S
ATOM     72   O  SGN C   4      23.937 -46.868  33.3030  0.00  0.00     0.000 OA
ATOM     73   O  SGN C   4      25.840 -46.139  31.9950  0.00  0.00     0.000 OA
ATOM     74   O  SGN C   4      26.122 -47.827  33.7110  0.00  0.00     0.000 OA
ATOM     75   O  SGN C   4      25.672 -45.571  34.3540  0.00  0.00     0.000 O
ENDBRANCH 62 70
ENDBRANCH 57 61
ENDBRANCH 41 57
ENDBRANCH 40 44
ENDBRANCH 20 40
ENDBRANCH 19 23
ENDBRANCH 1 19
TORSDOF 14
ENDMDL
MODEL 27
REMARK VINA RESULT:      -7.0      7.515     13.826
ROOT
ATOM      1  C1  IDS C   1      17.867 -32.487  26.1210  0.00  0.00     0.000 C
ATOM      2  C2  IDS C   1      18.627 -32.658  24.8180  0.00  0.00     0.000 C
ATOM      3  C3  IDS C   1      17.721 -32.384  23.6240  0.00  0.00     0.000 C
ATOM      4  C4  IDS C   1      17.001 -31.044  23.7730  0.00  0.00     0.000 C
ATOM      5  C5  IDS C   1      16.346 -30.943  25.1650  0.00  0.00     0.000 C
ATOM      6  O5  IDS C   1      17.309 -31.176  26.1870  0.00  0.00     0.000 O
ATOM      7   O  IDS C   1      16.777 -33.448  23.4890  0.00  0.00     0.000 O
ATOM      9  HD  IDS C   1      16.336 -32.796  23.1270  0.00  0.00     0.000 HD
ATOM      9   O  IDS C   1      17.954 -29.982  23.6170  0.00  0.00     0.000 O
ATOM     11  HD  IDS C   1      17.514 -29.330  23.2540  0.00  0.00     0.000 HD
ENDROOT
BRANCH 2 11
ATOM     11   O  IDS C   1      19.754 -31.701  24.7560  0.00  0.00     0.000 O
ATOM     12   S  IDS C   1      21.169 -32.066  25.4030  0.00  0.00     0.000 S
ATOM     13   O  IDS C   1      22.096 -31.422  24.4980  0.00  0.00     0.000 OA
ATOM     14   O  IDS C   1      21.322 -33.501  25.4390  0.00  0.00     0.000 OA
ATOM     15   O  IDS C   1      21.135 -31.466  26.7130  0.00  0.00     0.000 OA
ENDBRANCH 2 11
BRANCH 5 16
ATOM     16   C  IDS C   1      15.707 -29.591  25.4310  0.00  0.00     0.000 C
ATOM     17   O  IDS C   1      14.500 -29.494  25.3740  0.00  0.00     0.000 OA
ATOM     18   O  IDS C   1      16.382 -28.630  25.6770  0.00  0.00     0.000 OA
ENDBRANCH 5 16
BRANCH 1 19
ATOM     19  O4  SGN C   2      17.079 -33.479  26.5470  0.00  0.00     0.000 O
BRANCH 19 23
ATOM     20  C1  SGN C   2      14.743 -34.772  29.7560  0.00  0.00     0.000 C
ATOM     21  C2  SGN C   2      14.023 -33.972  28.6630  0.00  0.00     0.000 C
ATOM     22  C3  SGN C   2      14.871 -33.954  27.3940  0.00  0.00     0.000 C
ATOM     23  C4  SGN C   2      16.249 -33.383  27.7060  0.00  0.00     0.000 C
ATOM     24  C5  SGN C   2      16.886 -34.162  28.8600  0.00  0.00     0.000 C
ATOM     25  O5  SGN C   2      16.001 -34.163  29.9950  0.00  0.00     0.000 O
ATOM     26   O  SGN C   2      14.225 -33.202  26.3740  0.00  0.00     0.000 O
ATOM     28  HD  SGN C   2      13.736 -32.789  25.7900  0.00  0.00     0.000 HD
BRANCH 21 30
ATOM     28   N  SGN C   2      12.798 -34.630  29.1380  0.00  0.00     0.000 N
ATOM     30  HD  SGN C   2      12.270 -34.979  28.5470  0.00  0.00     0.000 HD
ATOM     30   S  SGN C   2      11.407 -33.842  29.2060  0.00  0.00     0.000 S
ATOM     31   O  SGN C   2      11.215 -33.305  27.9010  0.00  0.00     0.000 OA
ATOM     32   O  SGN C   2      10.432 -34.700  29.7690  0.00  0.00     0.000 OA
ATOM     33   O  SGN C   2      11.668 -32.699  30.2460  0.00  0.00     0.000 OA
ENDBRANCH 21 30
BRANCH 24 34
ATOM     34   C  SGN C   2      18.193 -33.575  29.3400  0.00  0.00     0.000 C
ATOM     35   O  SGN C   2      18.315 -33.802  30.7550  0.00  0.00     0.000 O
ATOM     36   S  SGN C   2      19.351 -32.882  31.5500  0.00  0.00     0.000 S
ATOM     37   O  SGN C   2      18.966 -31.524  31.2210  0.00  0.00     0.000 OA
ATOM     38   O  SGN C   2      19.170 -33.208  32.9440  0.00  0.00     0.000 OA
ATOM     39   O  SGN C   2      20.636 -33.271  31.0230  0.00  0.00     0.000 OA
ENDBRANCH 24 34
BRANCH 20 40
ATOM     40  O4  IDS C   3      14.919 -36.075  29.5490  0.00  0.00     0.000 O
BRANCH 40 44
ATOM     41  C1  IDS C   3      14.965 -39.574  29.1250  0.00  0.00     0.000 C
ATOM     42  C2  IDS C   3      13.661 -38.783  29.0830  0.00  0.00     0.000 C
ATOM     43  C3  IDS C   3      13.537 -37.898  30.3210  0.00  0.00     0.000 C
ATOM     44  C4  IDS C   3      14.798 -37.081  30.5580  0.00  0.00     0.000 C
ATOM     45  C5  IDS C   3      16.035 -38.003  30.5250  0.00  0.00     0.000 C
ATOM     46  O5  IDS C   3      16.079 -38.698  29.2770  0.00  0.00     0.000 O
ATOM     47   O  IDS C   3      13.265 -38.711  31.4590  0.00  0.00     0.000 O
ATOM     49  HD  IDS C   3      13.033 -38.321  30.7210  0.00  0.00     0.000 HD
BRANCH 42 49
ATOM     49   O  IDS C   3      13.628 -37.921  27.8790  0.00  0.00     0.000 O
ATOM     50   S  IDS C   3      12.307 -37.875  26.9730  0.00  0.00     0.000 S
ATOM     51   O  IDS C   3      11.367 -37.142  27.7900  0.00  0.00     0.000 OA
ATOM     52   O  IDS C   3      11.865 -39.232  26.6940  0.00  0.00     0.000 OA
ATOM     53   O  IDS C   3      12.677 -37.166  25.7660  0.00  0.00     0.000 OA
ENDBRANCH 42 49
BRANCH 45 54
ATOM     54   C  IDS C   3      17.347 -37.257  30.7150  0.00  0.00     0.000 C
ATOM     55   O  IDS C   3      17.561 -36.681  31.7500  0.00  0.00     0.000 OA
ATOM     56   O  IDS C   3      18.166 -37.231  29.8160  0.00  0.00     0.000 OA
ENDBRANCH 45 54
BRANCH 41 57
ATOM     57  O4  SGN C   4      14.772 -40.602  29.9610  0.00  0.00     0.000 O
BRANCH 57 61
ATOM     58  C1  SGN C   4      16.203 -44.500  30.5010  0.00  0.00     0.000 C
ATOM     59  C2  SGN C   4      17.206 -43.358  30.7270  0.00  0.00     0.000 C
ATOM     60  C3  SGN C   4      16.486 -42.014  30.9050  0.00  0.00     0.000 C
ATOM     61  C4  SGN C   4      15.557 -41.776  29.7270  0.00  0.00     0.000 C
ATOM     62  C5  SGN C   4      14.610 -42.961  29.5440  0.00  0.00     0.000 C
ATOM     63  O5  SGN C   4      15.352 -44.188  29.4080  0.00  0.00     0.000 O
BRANCH 59 66
ATOM     64   N  SGN C   4      18.122 -44.076  31.6210  0.00  0.00     0.000 N
ATOM     66  HD  SGN C   4      17.548 -43.515  31.2940  0.00  0.00     0.000 HD
ATOM     66   O  SGN C   4      20.194 -44.339  32.8740  0.00  0.00     0.000 OA
ATOM     67   O  SGN C   4      20.240 -43.364  30.6180  0.00  0.00     0.000 OA
ATOM     68   S  SGN C   4      19.531 -43.417  32.0150  0.00  0.00     0.000 S
ATOM     69   O  SGN C   4      19.296 -42.092  32.4640  0.00  0.00     0.000 OA
ENDBRANCH 59 66
BRANCH 62 70
ATOM     70   C  SGN C   4      13.768 -42.811  28.3010  0.00  0.00     0.000 C
ATOM     71   S  SGN C   4      12.112 -44.038  26.7770  0.00  0.00     0.000 S
ATOM     72   O  SGN C   4      11.271 -42.858  26.7650  0.00  0.00     0.000 OA
ATOM     73   O  SGN C   4      13.106 -44.045  25.7230  0.00  0.00     0.000 OA
ATOM     74   O  SGN C   4      11.372 -45.274  26.8890  0.00  0.00     0.000 OA
ATOM     75   O  SGN C   4      12.914 -43.950  28.1450  0.00  0.00     0.000 O
ENDBRANCH 62 70
ENDBRANCH 57 61
ENDBRANCH 41 57
ENDBRANCH 40 44
ENDBRANCH 20 40
ENDBRANCH 19 23
ENDBRANCH 1 19
TORSDOF 14
ENDMDL
MODEL 28
REMARK VINA RESULT:      -7.0     28.032     32.509
ROOT
ATOM      1  C1  IDS C   1      36.149 -60.054  25.2320  0.00  0.00     0.000 C
ATOM      2  C2  IDS C   1      36.529 -61.223  24.3410  0.00  0.00     0.000 C
ATOM      3  C3  IDS C   1      35.862 -62.507  24.8200  0.00  0.00     0.000 C
ATOM      4  C4  IDS C   1      34.358 -62.310  25.0080  0.00  0.00     0.000 C
ATOM      5  C5  IDS C   1      34.086 -61.044  25.8470  0.00  0.00     0.000 C
ATOM      6  O5  IDS C   1      34.729 -59.915  25.2670  0.00  0.00     0.000 O
ATOM      7   O  IDS C   1      36.467 -62.932  26.0420  0.00  0.00     0.000 O
ATOM      9  HD  IDS C   1      35.677 -63.276  26.1270  0.00  0.00     0.000 HD
ATOM      9   O  IDS C   1      33.741 -62.168  23.7190  0.00  0.00     0.000 O
ATOM     11  HD  IDS C   1      32.950 -62.512  23.8040  0.00  0.00     0.000 HD
ENDROOT
BRANCH 2 11
ATOM     11   O  IDS C   1      36.082 -60.974  22.9530  0.00  0.00     0.000 O
ATOM     12   S  IDS C   1      36.806 -59.872  22.0500  0.00  0.00     0.000 S
ATOM     13   O  IDS C   1      36.733 -60.461  20.7310  0.00  0.00     0.000 OA
ATOM     14   O  IDS C   1      38.161 -59.690  22.5120  0.00  0.00     0.000 OA
ATOM     15   O  IDS C   1      35.993 -58.691  22.1970  0.00  0.00     0.000 OA
ENDBRANCH 2 11
BRANCH 5 16
ATOM     16   C  IDS C   1      32.610 -60.718  25.9800  0.00  0.00     0.000 C
ATOM     17   O  IDS C   1      32.054 -60.141  25.0690  0.00  0.00     0.000 OA
ATOM     18   O  IDS C   1      32.002 -61.010  26.9730  0.00  0.00     0.000 OA
ENDBRANCH 5 16
BRANCH 1 19
ATOM     19  O4  SGN C   2      36.780 -59.895  26.3990  0.00  0.00     0.000 O
BRANCH 19 23
ATOM     20  C1  SGN C   2      38.263 -57.129  29.1510  0.00  0.00     0.000 C
ATOM     21  C2  SGN C   2      36.759 -57.067  28.8620  0.00  0.00     0.000 C
ATOM     22  C3  SGN C   2      36.306 -58.370  28.2070  0.00  0.00     0.000 C
ATOM     23  C4  SGN C   2      37.121 -58.619  26.9430  0.00  0.00     0.000 C
ATOM     24  C5  SGN C   2      38.615 -58.583  27.2730  0.00  0.00     0.000 C
ATOM     25  O5  SGN C   2      38.942 -57.343  27.9250  0.00  0.00     0.000 O
ATOM     26   O  SGN C   2      34.914 -58.324  27.9170  0.00  0.00     0.000 O
ATOM     28  HD  SGN C   2      34.055 -58.242  27.8370  0.00  0.00     0.000 HD
BRANCH 21 30
ATOM     28   N  SGN C   2      35.993 -56.733  30.0700  0.00  0.00     0.000 N
ATOM     30  HD  SGN C   2      35.133 -56.658  29.9980  0.00  0.00     0.000 HD
ATOM     30   S  SGN C   2      35.609 -55.219  30.4160  0.00  0.00     0.000 S
ATOM     31   O  SGN C   2      34.952 -54.723  29.2540  0.00  0.00     0.000 OA
ATOM     32   O  SGN C   2      34.945 -55.199  31.6660  0.00  0.00     0.000 OA
ATOM     33   O  SGN C   2      36.992 -54.513  30.6200  0.00  0.00     0.000 OA
ENDBRANCH 21 30
BRANCH 24 34
ATOM     34   C  SGN C   2      39.507 -58.673  26.0570  0.00  0.00     0.000 C
ATOM     35   O  SGN C   2      40.269 -59.892  26.1250  0.00  0.00     0.000 O
ATOM     36   S  SGN C   2      41.587 -59.974  25.2280  0.00  0.00     0.000 S
ATOM     37   O  SGN C   2      42.355 -58.799  25.5920  0.00  0.00     0.000 OA
ATOM     38   O  SGN C   2      42.229 -61.214  25.5910  0.00  0.00     0.000 OA
ATOM     39   O  SGN C   2      41.089 -59.951  23.8740  0.00  0.00     0.000 OA
ENDBRANCH 24 34
BRANCH 20 40
ATOM     40  O4  IDS C   3      38.682 -58.022  30.0450  0.00  0.00     0.000 O
BRANCH 40 44
ATOM     41  C1  IDS C   3      39.707 -60.133  32.6760  0.00  0.00     0.000 C
ATOM     42  C2  IDS C   3      38.626 -59.075  32.8770  0.00  0.00     0.000 C
ATOM     43  C3  IDS C   3      39.121 -57.712  32.3980  0.00  0.00     0.000 C
ATOM     44  C4  IDS C   3      39.718 -57.789  31.0020  0.00  0.00     0.000 C
ATOM     45  C5  IDS C   3      40.755 -58.930  30.9350  0.00  0.00     0.000 C
ATOM     46  O5  IDS C   3      40.134 -60.160  31.3160  0.00  0.00     0.000 O
ATOM     47   O  IDS C   3      40.092 -57.213  33.3150  0.00  0.00     0.000 O
ATOM     49  HD  IDS C   3      39.278 -57.394  33.0820  0.00  0.00     0.000 HD
BRANCH 42 49
ATOM     49   O  IDS C   3      37.412 -59.434  32.1080  0.00  0.00     0.000 O
ATOM     50   S  IDS C   3      35.983 -59.431  32.8330  0.00  0.00     0.000 S
ATOM     51   O  IDS C   3      35.709 -58.024  33.0250  0.00  0.00     0.000 OA
ATOM     52   O  IDS C   3      36.078 -60.157  34.0890  0.00  0.00     0.000 OA
ATOM     53   O  IDS C   3      35.066 -60.063  31.9080  0.00  0.00     0.000 OA
ENDBRANCH 42 49
BRANCH 45 54
ATOM     54   C  IDS C   3      41.374 -59.102  29.5570  0.00  0.00     0.000 C
ATOM     55   O  IDS C   3      41.367 -60.185  29.0310  0.00  0.00     0.000 OA
ATOM     56   O  IDS C   3      41.887 -58.152  29.0000  0.00  0.00     0.000 OA
ENDBRANCH 45 54
BRANCH 41 57
ATOM     57  O4  SGN C   4      40.584 -59.992  33.6770  0.00  0.00     0.000 O
BRANCH 57 61
ATOM     58  C1  SGN C   4      44.209 -61.686  34.9100  0.00  0.00     0.000 C
ATOM     59  C2  SGN C   4      44.254 -60.790  33.6620  0.00  0.00     0.000 C
ATOM     60  C3  SGN C   4      42.993 -59.921  33.5570  0.00  0.00     0.000 C
ATOM     61  C4  SGN C   4      41.759 -60.806  33.6200  0.00  0.00     0.000 C
ATOM     62  C5  SGN C   4      41.796 -61.687  34.8680  0.00  0.00     0.000 C
ATOM     63  O5  SGN C   4      43.014 -62.454  34.9120  0.00  0.00     0.000 O
BRANCH 59 66
ATOM     64   N  SGN C   4      45.616 -60.260  33.7790  0.00  0.00     0.000 N
ATOM     66  HD  SGN C   4      44.763 -60.339  33.6530  0.00  0.00     0.000 HD
ATOM     66   O  SGN C   4      47.716 -59.413  32.8810  0.00  0.00     0.000 OA
ATOM     67   O  SGN C   4      46.582 -61.295  31.7800  0.00  0.00     0.000 OA
ATOM     68   S  SGN C   4      46.443 -59.887  32.4550  0.00  0.00     0.000 S
ATOM     69   O  SGN C   4      45.631 -59.061  31.6380  0.00  0.00     0.000 OA
ENDBRANCH 59 66
BRANCH 62 70
ATOM     70   C  SGN C   4      40.652 -62.670  34.8860  0.00  0.00     0.000 C
ATOM     71   S  SGN C   4      39.128 -64.025  36.4400  0.00  0.00     0.000 S
ATOM     72   O  SGN C   4      37.985 -63.625  35.6440  0.00  0.00     0.000 OA
ATOM     73   O  SGN C   4      39.755 -65.245  35.9710  0.00  0.00     0.000 OA
ATOM     74   O  SGN C   4      38.877 -64.009  37.8630  0.00  0.00     0.000 OA
ATOM     75   O  SGN C   4      40.194 -62.867  36.2290  0.00  0.00     0.000 O
ENDBRANCH 62 70
ENDBRANCH 57 61
ENDBRANCH 41 57
ENDBRANCH 40 44
ENDBRANCH 20 40
ENDBRANCH 19 23
ENDBRANCH 1 19
TORSDOF 14
ENDMDL
MODEL 29
REMARK VINA RESULT:      -6.9     31.611     37.603
ROOT
ATOM      1  C1  IDS C   1     -10.496  -9.494  20.0900  0.00  0.00     0.000 C
ATOM      2  C2  IDS C   1     -11.745  -9.186  20.8960  0.00  0.00     0.000 C
ATOM      3  C3  IDS C   1     -11.875  -7.688  21.1420  0.00  0.00     0.000 C
ATOM      4  C4  IDS C   1     -11.745  -6.901  19.8370  0.00  0.00     0.000 C
ATOM      5  C5  IDS C   1     -10.496  -7.361  19.0590  0.00  0.00     0.000 C
ATOM      6  O5  IDS C   1     -10.523  -8.770  18.8610  0.00  0.00     0.000 O
ATOM      7   O  IDS C   1     -10.879  -7.271  22.0780  0.00  0.00     0.000 O
ATOM      9  HD  IDS C   1     -11.003  -6.535  21.6380  0.00  0.00     0.000 HD
ATOM      9   O  IDS C   1     -12.916  -7.129  19.0370  0.00  0.00     0.000 O
ATOM     11  HD  IDS C   1     -13.039  -6.393  18.5970  0.00  0.00     0.000 HD
ENDROOT
BRANCH 2 11
ATOM     11   O  IDS C   1     -12.950  -9.626  20.1580  0.00  0.00     0.000 O
ATOM     12   S  IDS C   1     -14.062 -10.522  20.8760  0.00  0.00     0.000 S
ATOM     13   O  IDS C   1     -15.281 -10.050  20.2580  0.00  0.00     0.000 OA
ATOM     14   O  IDS C   1     -14.022 -10.284  22.2990  0.00  0.00     0.000 OA
ATOM     15   O  IDS C   1     -13.724 -11.877  20.5170  0.00  0.00     0.000 OA
ENDBRANCH 2 11
BRANCH 5 16
ATOM     16   C  IDS C   1     -10.364  -6.705  17.6960  0.00  0.00     0.000 C
ATOM     17   O  IDS C   1      -9.887  -7.345  16.7830  0.00  0.00     0.000 OA
ATOM     18   O  IDS C   1     -10.708  -5.568  17.5240  0.00  0.00     0.000 OA
ENDBRANCH 5 16
BRANCH 1 19
ATOM     19  O4  SGN C   2      -9.315  -9.539  20.7150  0.00  0.00     0.000 O
BRANCH 19 23
ATOM     20  C1  SGN C   2      -5.422 -11.030  20.5160  0.00  0.00     0.000 C
ATOM     21  C2  SGN C   2      -5.692  -9.720  19.7660  0.00  0.00     0.000 C
ATOM     22  C3  SGN C   2      -6.985  -9.091  20.2780  0.00  0.00     0.000 C
ATOM     23  C4  SGN C   2      -8.133 -10.083  20.1260  0.00  0.00     0.000 C
ATOM     24  C5  SGN C   2      -7.775 -11.402  20.8170  0.00  0.00     0.000 C
ATOM     25  O5  SGN C   2      -6.524 -11.897  20.3060  0.00  0.00     0.000 O
ATOM     26   O  SGN C   2      -7.260  -7.881  19.5810  0.00  0.00     0.000 O
ATOM     28  HD  SGN C   2      -7.318  -7.126  19.1610  0.00  0.00     0.000 HD
BRANCH 21 30
ATOM     28   N  SGN C   2      -4.226  -9.762  19.6890  0.00  0.00     0.000 N
ATOM     30  HD  SGN C   2      -3.778  -9.203  20.1760  0.00  0.00     0.000 HD
ATOM     30   S  SGN C   2      -3.419  -8.797  18.7000  0.00  0.00     0.000 S
ATOM     31   O  SGN C   2      -3.868  -7.481  19.0090  0.00  0.00     0.000 OA
ATOM     32   O  SGN C   2      -2.042  -9.114  18.7870  0.00  0.00     0.000 OA
ATOM     33   O  SGN C   2      -3.900  -9.229  17.2730  0.00  0.00     0.000 OA
ENDBRANCH 21 30
BRANCH 24 34
ATOM     34   C  SGN C   2      -8.790 -12.498  20.5950  0.00  0.00     0.000 C
ATOM     35   O  SGN C   2      -9.027 -13.176  21.8410  0.00  0.00     0.000 O
ATOM     36   S  SGN C   2      -9.677 -14.632  21.7630  0.00  0.00     0.000 S
ATOM     37   O  SGN C   2      -8.813 -15.374  20.8660  0.00  0.00     0.000 OA
ATOM     38   O  SGN C   2      -9.667 -15.135  23.1160  0.00  0.00     0.000 OA
ATOM     39   O  SGN C   2     -11.000 -14.395  21.2400  0.00  0.00     0.000 OA
ENDBRANCH 24 34
BRANCH 20 40
ATOM     40  O4  IDS C   3      -5.169 -10.952  21.8200  0.00  0.00     0.000 O
BRANCH 40 44
ATOM     41  C1  IDS C   3      -3.099 -10.802  24.6700  0.00  0.00     0.000 C
ATOM     42  C2  IDS C   3      -2.517 -10.963  23.2690  0.00  0.00     0.000 C
ATOM     43  C3  IDS C   3      -3.189 -12.127  22.5460  0.00  0.00     0.000 C
ATOM     44  C4  IDS C   3      -4.705 -12.039  22.6240  0.00  0.00     0.000 C
ATOM     45  C5  IDS C   3      -5.144 -11.829  24.0880  0.00  0.00     0.000 C
ATOM     46  O5  IDS C   3      -4.516 -10.656  24.6100  0.00  0.00     0.000 O
ATOM     47   O  IDS C   3      -2.744 -13.357  23.1130  0.00  0.00     0.000 O
ATOM     49  HD  IDS C   3      -2.631 -12.654  22.6210  0.00  0.00     0.000 HD
BRANCH 42 49
ATOM     49   O  IDS C   3      -2.734  -9.727  22.4820  0.00  0.00     0.000 O
ATOM     50   S  IDS C   3      -1.652  -8.547  22.5420  0.00  0.00     0.000 S
ATOM     51   O  IDS C   3      -0.533  -9.083  21.7990  0.00  0.00     0.000 OA
ATOM     52   O  IDS C   3      -1.319  -8.268  23.9290  0.00  0.00     0.000 OA
ATOM     53   O  IDS C   3      -2.267  -7.410  21.8910  0.00  0.00     0.000 OA
ENDBRANCH 42 49
BRANCH 45 54
ATOM     54   C  IDS C   3      -6.649 -11.690  24.2520  0.00  0.00     0.000 C
ATOM     55   O  IDS C   3      -7.127 -10.610  24.4840  0.00  0.00     0.000 OA
ATOM     56   O  IDS C   3      -7.362 -12.671  24.1650  0.00  0.00     0.000 OA
ENDBRANCH 45 54
BRANCH 41 57
ATOM     57  O4  SGN C   4      -2.530 -11.736  25.4410  0.00  0.00     0.000 O
BRANCH 57 61
ATOM     58  C1  SGN C   4      -1.954 -12.250  29.5560  0.00  0.00     0.000 C
ATOM     59  C2  SGN C   4      -3.188 -11.441  29.1270  0.00  0.00     0.000 C
ATOM     60  C3  SGN C   4      -3.512 -11.669  27.6440  0.00  0.00     0.000 C
ATOM     61  C4  SGN C   4      -2.279 -11.380  26.8040  0.00  0.00     0.000 C
ATOM     62  C5  SGN C   4      -1.087 -12.194  27.3050  0.00  0.00     0.000 C
ATOM     63  O5  SGN C   4      -0.857 -11.949  28.7050  0.00  0.00     0.000 O
BRANCH 59 66
ATOM     64   N  SGN C   4      -4.202 -11.792  30.1260  0.00  0.00     0.000 N
ATOM     66  HD  SGN C   4      -3.803 -11.534  29.4020  0.00  0.00     0.000 HD
ATOM     66   O  SGN C   4      -5.915 -11.272  31.7790  0.00  0.00     0.000 OA
ATOM     67   O  SGN C   4      -3.873  -9.908  31.6560  0.00  0.00     0.000 OA
ATOM     68   S  SGN C   4      -5.022 -10.632  30.8730  0.00  0.00     0.000 S
ATOM     69   O  SGN C   4      -5.541  -9.748  29.8920  0.00  0.00     0.000 OA
ENDBRANCH 59 66
BRANCH 62 70
ATOM     70   C  SGN C   4       0.180 -11.826  26.5750  0.00  0.00     0.000 C
ATOM     71   S  SGN C   4       1.487  -9.854  25.5880  0.00  0.00     0.000 S
ATOM     72   O  SGN C   4       2.698 -10.370  26.1960  0.00  0.00     0.000 OA
ATOM     73   O  SGN C   4       1.246 -10.375  24.2580  0.00  0.00     0.000 OA
ATOM     74   O  SGN C   4       1.361  -8.418  25.6830  0.00  0.00     0.000 OA
ATOM     75   O  SGN C   4       0.310 -10.401  26.5020  0.00  0.00     0.000 O
ENDBRANCH 62 70
ENDBRANCH 57 61
ENDBRANCH 41 57
ENDBRANCH 40 44
ENDBRANCH 20 40
ENDBRANCH 19 23
ENDBRANCH 1 19
TORSDOF 14
ENDMDL
MODEL 30
REMARK VINA RESULT:      -6.7     19.124     22.324
ROOT
ATOM      1  C1  IDS C   1      12.388 -37.506  10.4220  0.00  0.00     0.000 C
ATOM      2  C2  IDS C   1      12.365 -37.072  11.8760  0.00  0.00     0.000 C
ATOM      3  C3  IDS C   1      13.065 -35.730  12.0510  0.00  0.00     0.000 C
ATOM      4  C4  IDS C   1      12.524 -34.693  11.0660  0.00  0.00     0.000 C
ATOM      5  C5  IDS C   1      12.505 -35.273   9.6370  0.00  0.00     0.000 C
ATOM      6  O5  IDS C   1      11.785 -36.501   9.6080  0.00  0.00     0.000 O
ATOM      7   O  IDS C   1      14.472 -35.899  11.8750  0.00  0.00     0.000 O
ATOM      9  HD  IDS C   1      14.381 -35.070  11.6440  0.00  0.00     0.000 HD
ATOM      9   O  IDS C   1      11.188 -34.335  11.4520  0.00  0.00     0.000 O
ATOM     11  HD  IDS C   1      11.097 -33.505  11.2210  0.00  0.00     0.000 HD
ENDROOT
BRANCH 2 11
ATOM     11   O  IDS C   1      10.969 -36.915  12.3410  0.00  0.00     0.000 O
ATOM     12   S  IDS C   1      10.060 -38.197  12.6340  0.00  0.00     0.000 S
ATOM     13   O  IDS C   1       9.250 -37.750  13.7460  0.00  0.00     0.000 OA
ATOM     14   O  IDS C   1      10.906 -39.317  12.9680  0.00  0.00     0.000 OA
ATOM     15   O  IDS C   1       9.309 -38.395  11.4200  0.00  0.00     0.000 OA
ENDBRANCH 2 11
BRANCH 5 16
ATOM     16   C  IDS C   1      11.872 -34.342   8.6200  0.00  0.00     0.000 C
ATOM     17   O  IDS C   1      10.720 -34.531   8.2910  0.00  0.00     0.000 OA
ATOM     18   O  IDS C   1      12.501 -33.442   8.1340  0.00  0.00     0.000 OA
ENDBRANCH 5 16
BRANCH 1 19
ATOM     19  O4  SGN C   2      13.496 -38.069   9.9300  0.00  0.00     0.000 O
BRANCH 19 23
ATOM     20  C1  SGN C   2      15.018 -40.862   7.2270  0.00  0.00     0.000 C
ATOM     21  C2  SGN C   2      14.355 -39.618   6.6250  0.00  0.00     0.000 C
ATOM     22  C3  SGN C   2      14.252 -38.524   7.6850  0.00  0.00     0.000 C
ATOM     23  C4  SGN C   2      13.486 -39.051   8.8930  0.00  0.00     0.000 C
ATOM     24  C5  SGN C   2      14.138 -40.340   9.4000  0.00  0.00     0.000 C
ATOM     25  O5  SGN C   2      14.233 -41.294   8.3260  0.00  0.00     0.000 O
ATOM     26   O  SGN C   2      13.624 -37.366   7.1470  0.00  0.00     0.000 O
ATOM     28  HD  SGN C   2      13.298 -36.683   6.7260  0.00  0.00     0.000 HD
BRANCH 21 30
ATOM     28   N  SGN C   2      15.122 -39.990   5.4290  0.00  0.00     0.000 N
ATOM     30  HD  SGN C   2      15.644 -39.394   5.0800  0.00  0.00     0.000 HD
ATOM     30   S  SGN C   2      14.576 -39.669   3.9600  0.00  0.00     0.000 S
ATOM     31   O  SGN C   2      14.294 -38.273   3.9600  0.00  0.00     0.000 OA
ATOM     32   O  SGN C   2      15.483 -40.208   3.0160  0.00  0.00     0.000 OA
ATOM     33   O  SGN C   2      13.255 -40.505   3.8540  0.00  0.00     0.000 OA
ENDBRANCH 21 30
BRANCH 24 34
ATOM     34   C  SGN C   2      13.363 -41.018  10.5050  0.00  0.00     0.000 C
ATOM     35   O  SGN C   2      13.106 -42.382  10.1270  0.00  0.00     0.000 O
ATOM     36   S  SGN C   2      11.927 -43.138  10.8940  0.00  0.00     0.000 S
ATOM     37   O  SGN C   2      10.772 -42.276  10.7360  0.00  0.00     0.000 OA
ATOM     38   O  SGN C   2      11.786 -44.412  10.2320  0.00  0.00     0.000 OA
ATOM     39   O  SGN C   2      12.402 -43.237  12.2520  0.00  0.00     0.000 OA
ENDBRANCH 24 34
BRANCH 20 40
ATOM     40  O4  IDS C   3      16.288 -40.758   7.6090  0.00  0.00     0.000 O
BRANCH 40 44
ATOM     41  C1  IDS C   3      19.793 -40.449   7.8270  0.00  0.00     0.000 C
ATOM     42  C2  IDS C   3      19.059 -40.287   6.4990  0.00  0.00     0.000 C
ATOM     43  C3  IDS C   3      18.145 -41.485   6.2490  0.00  0.00     0.000 C
ATOM     44  C4  IDS C   3      17.269 -41.787   7.4550  0.00  0.00     0.000 C
ATOM     45  C5  IDS C   3      18.139 -41.873   8.7270  0.00  0.00     0.000 C
ATOM     46  O5  IDS C   3      18.866 -40.653   8.8900  0.00  0.00     0.000 O
ATOM     47   O  IDS C   3      18.937 -42.625   5.9260  0.00  0.00     0.000 O
ATOM     49  HD  IDS C   3      18.578 -41.861   5.7340  0.00  0.00     0.000 HD
BRANCH 42 49
ATOM     49   O  IDS C   3      18.233 -39.058   6.5200  0.00  0.00     0.000 O
ATOM     50   S  IDS C   3      18.460 -37.931   5.4040  0.00  0.00     0.000 S
ATOM     51   O  IDS C   3      17.919 -38.534   4.2060  0.00  0.00     0.000 OA
ATOM     52   O  IDS C   3      19.880 -37.642   5.2910  0.00  0.00     0.000 OA
ATOM     53   O  IDS C   3      17.704 -36.777   5.8440  0.00  0.00     0.000 OA
ENDBRANCH 42 49
BRANCH 45 54
ATOM     54   C  IDS C   3      17.333 -42.134   9.9900  0.00  0.00     0.000 C
ATOM     55   O  IDS C   3      16.497 -43.000   9.9960  0.00  0.00     0.000 OA
ATOM     56   O  IDS C   3      17.524 -41.457  10.9820  0.00  0.00     0.000 OA
ENDBRANCH 45 54
BRANCH 41 57
ATOM     57  O4  SGN C   4      20.804 -41.300   7.6140  0.00  0.00     0.000 O
BRANCH 57 61
ATOM     58  C1  SGN C   4      23.770 -43.234   9.8490  0.00  0.00     0.000 C
ATOM     59  C2  SGN C   4      22.334 -43.760  10.0040  0.00  0.00     0.000 C
ATOM     60  C3  SGN C   4      21.436 -43.266   8.8610  0.00  0.00     0.000 C
ATOM     61  C4  SGN C   4      21.517 -41.752   8.7700  0.00  0.00     0.000 C
ATOM     62  C5  SGN C   4      22.971 -41.299   8.6470  0.00  0.00     0.000 C
ATOM     63  O5  SGN C   4      23.758 -41.818   9.7370  0.00  0.00     0.000 O
BRANCH 59 66
ATOM     64   N  SGN C   4      22.562 -45.191  10.2280  0.00  0.00     0.000 N
ATOM     66  HD  SGN C   4      22.226 -44.431   9.9850  0.00  0.00     0.000 HD
ATOM     66   O  SGN C   4      22.137 -47.327  11.3190  0.00  0.00     0.000 OA
ATOM     67   O  SGN C   4      22.134 -45.254  12.6390  0.00  0.00     0.000 OA
ATOM     68   S  SGN C   4      21.689 -45.977  11.3210  0.00  0.00     0.000 S
ATOM     69   O  SGN C   4      20.318 -45.698  11.0830  0.00  0.00     0.000 OA
ENDBRANCH 59 66
BRANCH 62 70
ATOM     70   C  SGN C   4      23.090 -39.797   8.6900  0.00  0.00     0.000 C
ATOM     71   S  SGN C   4      24.019 -37.844  10.0670  0.00  0.00     0.000 S
ATOM     72   O  SGN C   4      24.537 -37.251   8.8500  0.00  0.00     0.000 OA
ATOM     73   O  SGN C   4      22.665 -37.432  10.3750  0.00  0.00     0.000 OA
ATOM     74   O  SGN C   4      24.926 -37.749  11.1880  0.00  0.00     0.000 OA
ATOM     75   O  SGN C   4      23.953 -39.401   9.7630  0.00  0.00     0.000 O
ENDBRANCH 62 70
ENDBRANCH 57 61
ENDBRANCH 41 57
ENDBRANCH 40 44
ENDBRANCH 20 40
ENDBRANCH 19 23
ENDBRANCH 1 19
TORSDOF 14
ENDMDL
MODEL 31
REMARK VINA RESULT:      -6.6     30.142     36.110
ROOT
ATOM      1  C1  IDS C   1      -3.028  -7.818  16.8010  0.00  0.00     0.000 C
ATOM      2  C2  IDS C   1      -1.840  -7.956  15.8660  0.00  0.00     0.000 C
ATOM      3  C3  IDS C   1      -2.010  -9.161  14.9500  0.00  0.00     0.000 C
ATOM      4  C4  IDS C   1      -3.371  -9.137  14.2540  0.00  0.00     0.000 C
ATOM      5  C5  IDS C   1      -4.493  -8.898  15.2840  0.00  0.00     0.000 C
ATOM      6  O5  IDS C   1      -4.232  -7.721  16.0410  0.00  0.00     0.000 O
ATOM      7   O  IDS C   1      -1.857 -10.362  15.7080  0.00  0.00     0.000 O
ATOM      9  HD  IDS C   1      -2.370 -10.641  15.0690  0.00  0.00     0.000 HD
ATOM      9   O  IDS C   1      -3.381  -8.078  13.2850  0.00  0.00     0.000 O
ATOM     11  HD  IDS C   1      -3.894  -8.357  12.6450  0.00  0.00     0.000 HD
ENDROOT
BRANCH 2 11
ATOM     11   O  IDS C   1      -1.720  -6.754  15.0110  0.00  0.00     0.000 O
ATOM     12   S  IDS C   1      -0.370  -5.899  14.9940  0.00  0.00     0.000 S
ATOM     13   O  IDS C   1      -0.307  -5.454  13.6190  0.00  0.00     0.000 OA
ATOM     14   O  IDS C   1       0.738  -6.746  15.3630  0.00  0.00     0.000 OA
ATOM     15   O  IDS C   1      -0.605  -4.830  15.9320  0.00  0.00     0.000 OA
ENDBRANCH 2 11
BRANCH 5 16
ATOM     16   C  IDS C   1      -5.865  -8.747  14.6530  0.00  0.00     0.000 C
ATOM     17   O  IDS C   1      -6.719  -8.128  15.2510  0.00  0.00     0.000 OA
ATOM     18   O  IDS C   1      -6.111  -9.244  13.5890  0.00  0.00     0.000 OA
ENDBRANCH 5 16
BRANCH 1 19
ATOM     19  O4  SGN C   2      -3.087  -8.585  17.8930  0.00  0.00     0.000 O
BRANCH 19 23
ATOM     20  C1  SGN C   2      -5.090  -9.084  21.5220  0.00  0.00     0.000 C
ATOM     21  C2  SGN C   2      -5.600  -9.915  20.3380  0.00  0.00     0.000 C
ATOM     22  C3  SGN C   2      -4.537  -9.961  19.2440  0.00  0.00     0.000 C
ATOM     23  C4  SGN C   2      -4.167  -8.542  18.8280  0.00  0.00     0.000 C
ATOM     24  C5  SGN C   2      -3.749  -7.732  20.0580  0.00  0.00     0.000 C
ATOM     25  O5  SGN C   2      -4.790  -7.780  21.0510  0.00  0.00     0.000 O
ATOM     26   O  SGN C   2      -5.000 -10.716  18.1300  0.00  0.00     0.000 O
ATOM     28  HD  SGN C   2      -5.329 -11.243  17.5270  0.00  0.00     0.000 HD
BRANCH 21 30
ATOM     28   N  SGN C   2      -6.319 -10.580  21.4330  0.00  0.00     0.000 N
ATOM     30  HD  SGN C   2      -6.086 -11.388  21.6390  0.00  0.00     0.000 HD
ATOM     30   S  SGN C   2      -7.571 -11.533  21.1450  0.00  0.00     0.000 S
ATOM     31   O  SGN C   2      -7.106 -12.489  20.1980  0.00  0.00     0.000 OA
ATOM     32   O  SGN C   2      -8.100 -11.966  22.3850  0.00  0.00     0.000 OA
ATOM     33   O  SGN C   2      -8.634 -10.580  20.5000  0.00  0.00     0.000 OA
ENDBRANCH 21 30
BRANCH 24 34
ATOM     34   C  SGN C   2      -3.505  -6.270  19.7680  0.00  0.00     0.000 C
ATOM     35   O  SGN C   2      -2.091  -6.052  19.6220  0.00  0.00     0.000 O
ATOM     36   S  SGN C   2      -1.568  -4.552  19.7830  0.00  0.00     0.000 S
ATOM     37   O  SGN C   2      -2.082  -4.118  21.0670  0.00  0.00     0.000 OA
ATOM     38   O  SGN C   2      -0.128  -4.636  19.7400  0.00  0.00     0.000 OA
ATOM     39   O  SGN C   2      -2.144  -3.859  18.6570  0.00  0.00     0.000 OA
ENDBRANCH 24 34
BRANCH 20 40
ATOM     40  O4  IDS C   3      -4.047  -9.556  22.2000  0.00  0.00     0.000 O
BRANCH 40 44
ATOM     41  C1  IDS C   3      -2.122 -10.923  24.8180  0.00  0.00     0.000 C
ATOM     42  C2  IDS C   3      -3.623 -10.694  24.9670  0.00  0.00     0.000 C
ATOM     43  C3  IDS C   3      -3.981  -9.257  24.5950  0.00  0.00     0.000 C
ATOM     44  C4  IDS C   3      -3.382  -8.857  23.2550  0.00  0.00     0.000 C
ATOM     45  C5  IDS C   3      -1.876  -9.191  23.2320  0.00  0.00     0.000 C
ATOM     46  O5  IDS C   3      -1.692 -10.582  23.5020  0.00  0.00     0.000 O
ATOM     47   O  IDS C   3      -3.520  -8.375  25.6160  0.00  0.00     0.000 O
ATOM     49  HD  IDS C   3      -4.069  -8.967  25.3040  0.00  0.00     0.000 HD
BRANCH 42 49
ATOM     49   O  IDS C   3      -4.370 -11.613  24.0780  0.00  0.00     0.000 O
ATOM     50   S  IDS C   3      -5.308 -12.745  24.7150  0.00  0.00     0.000 S
ATOM     51   O  IDS C   3      -6.428 -11.994  25.2380  0.00  0.00     0.000 OA
ATOM     52   O  IDS C   3      -4.577 -13.452  25.7530  0.00  0.00     0.000 OA
ATOM     53   O  IDS C   3      -5.678 -13.617  23.6200  0.00  0.00     0.000 OA
ENDBRANCH 42 49
BRANCH 45 54
ATOM     54   C  IDS C   3      -1.205  -8.858  21.9090  0.00  0.00     0.000 C
ATOM     55   O  IDS C   3      -0.597  -7.826  21.7920  0.00  0.00     0.000 OA
ATOM     56   O  IDS C   3      -1.300  -9.625  20.9700  0.00  0.00     0.000 OA
ENDBRANCH 45 54
BRANCH 41 57
ATOM     57  O4  SGN C   4      -1.535 -10.394  25.8990  0.00  0.00     0.000 O
BRANCH 57 61
ATOM     58  C1  SGN C   4       1.911 -11.121  28.1610  0.00  0.00     0.000 C
ATOM     59  C2  SGN C   4       2.054 -10.152  26.9760  0.00  0.00     0.000 C
ATOM     60  C3  SGN C   4       0.683  -9.656  26.4970  0.00  0.00     0.000 C
ATOM     61  C4  SGN C   4      -0.212 -10.848  26.1980  0.00  0.00     0.000 C
ATOM     62  C5  SGN C   4      -0.284 -11.780  27.4060  0.00  0.00     0.000 C
ATOM     63  O5  SGN C   4       1.037 -12.185  27.8150  0.00  0.00     0.000 O
BRANCH 59 66
ATOM     64   N  SGN C   4       3.409  -9.617  27.1450  0.00  0.00     0.000 N
ATOM     66  HD  SGN C   4       2.581  -9.839  27.2700  0.00  0.00     0.000 HD
ATOM     66   O  SGN C   4       5.053  -7.823  27.2470  0.00  0.00     0.000 OA
ATOM     67   O  SGN C   4       3.261  -7.750  25.5660  0.00  0.00     0.000 OA
ATOM     68   S  SGN C   4       3.659  -8.035  27.0560  0.00  0.00     0.000 S
ATOM     69   O  SGN C   4       2.732  -7.387  27.9120  0.00  0.00     0.000 OA
ENDBRANCH 59 66
BRANCH 62 70
ATOM     70   C  SGN C   4      -1.056 -13.037  27.0910  0.00  0.00     0.000 C
ATOM     71   S  SGN C   4      -0.833 -15.401  26.1250  0.00  0.00     0.000 S
ATOM     72   O  SGN C   4      -1.620 -15.912  27.2300  0.00  0.00     0.000 OA
ATOM     73   O  SGN C   4      -1.635 -14.998  24.9870  0.00  0.00     0.000 OA
ATOM     74   O  SGN C   4       0.290 -16.241  25.7780  0.00  0.00     0.000 OA
ATOM     75   O  SGN C   4      -0.159 -14.077  26.6850  0.00  0.00     0.000 O
ENDBRANCH 62 70
ENDBRANCH 57 61
ENDBRANCH 41 57
ENDBRANCH 40 44
ENDBRANCH 20 40
ENDBRANCH 19 23
ENDBRANCH 1 19
TORSDOF 14
ENDMDL
MODEL 32
REMARK VINA RESULT:      -6.6     19.652     21.695
ROOT
ATOM      1  C1  IDS C   1      13.924 -38.553  10.7860  0.00  0.00     0.000 C
ATOM      2  C2  IDS C   1      13.262 -39.281  11.9430  0.00  0.00     0.000 C
ATOM      3  C3  IDS C   1      13.692 -38.681  13.2760  0.00  0.00     0.000 C
ATOM      4  C4  IDS C   1      13.504 -37.164  13.2840  0.00  0.00     0.000 C
ATOM      5  C5  IDS C   1      14.132 -36.542  12.0210  0.00  0.00     0.000 C
ATOM      6  O5  IDS C   1      13.613 -37.162  10.8490  0.00  0.00     0.000 O
ATOM      7   O  IDS C   1      15.056 -39.018  13.5320  0.00  0.00     0.000 O
ATOM      9  HD  IDS C   1      14.987 -38.280  13.9800  0.00  0.00     0.000 HD
ATOM      9   O  IDS C   1      12.100 -36.867  13.3130  0.00  0.00     0.000 O
ATOM     11  HD  IDS C   1      12.030 -36.129  13.7610  0.00  0.00     0.000 HD
ENDROOT
BRANCH 2 11
ATOM     11   O  IDS C   1      11.790 -39.159  11.8480  0.00  0.00     0.000 O
ATOM     12   S  IDS C   1      10.853 -40.439  12.0360  0.00  0.00     0.000 S
ATOM     13   O  IDS C   1       9.691 -39.876  12.6870  0.00  0.00     0.000 OA
ATOM     14   O  IDS C   1      11.537 -41.417  12.8490  0.00  0.00     0.000 OA
ATOM     15   O  IDS C   1      10.593 -40.899  10.6950  0.00  0.00     0.000 OA
ENDBRANCH 2 11
BRANCH 5 16
ATOM     16   C  IDS C   1      13.886 -35.049  11.9010  0.00  0.00     0.000 C
ATOM     17   O  IDS C   1      14.749 -34.351  11.4130  0.00  0.00     0.000 OA
ATOM     18   O  IDS C   1      12.863 -34.561  12.2960  0.00  0.00     0.000 OA
ENDBRANCH 5 16
BRANCH 1 19
ATOM     19  O4  SGN C   2      15.186 -38.856  10.4660  0.00  0.00     0.000 O
BRANCH 19 23
ATOM     20  C1  SGN C   2      18.052 -38.827   7.4320  0.00  0.00     0.000 C
ATOM     21  C2  SGN C   2      17.707 -37.472   8.0600  0.00  0.00     0.000 C
ATOM     22  C3  SGN C   2      17.007 -37.688   9.4000  0.00  0.00     0.000 C
ATOM     23  C4  SGN C   2      15.770 -38.555   9.1980  0.00  0.00     0.000 C
ATOM     24  C5  SGN C   2      16.157 -39.856   8.4890  0.00  0.00     0.000 C
ATOM     25  O5  SGN C   2      16.848 -39.556   7.2630  0.00  0.00     0.000 O
ATOM     26   O  SGN C   2      16.665 -36.439   9.9900  0.00  0.00     0.000 O
ATOM     28  HD  SGN C   2      16.554 -35.642  10.3110  0.00  0.00     0.000 HD
BRANCH 21 30
ATOM     28   N  SGN C   2      18.959 -37.085   7.3960  0.00  0.00     0.000 N
ATOM     30  HD  SGN C   2      19.613 -36.811   7.8930  0.00  0.00     0.000 HD
ATOM     30   S  SGN C   2      19.256 -35.561   7.0100  0.00  0.00     0.000 S
ATOM     31   O  SGN C   2      19.081 -34.825   8.2170  0.00  0.00     0.000 OA
ATOM     32   O  SGN C   2      20.491 -35.505   6.3200  0.00  0.00     0.000 OA
ATOM     33   O  SGN C   2      18.136 -35.206   5.9730  0.00  0.00     0.000 OA
ENDBRANCH 21 30
BRANCH 24 34
ATOM     34   C  SGN C   2      14.974 -40.717   8.1120  0.00  0.00     0.000 C
ATOM     35   O  SGN C   2      15.382 -41.655   7.1010  0.00  0.00     0.000 O
ATOM     36   S  SGN C   2      14.227 -42.327   6.2270  0.00  0.00     0.000 S
ATOM     37   O  SGN C   2      13.468 -41.211   5.6980  0.00  0.00     0.000 OA
ATOM     38   O  SGN C   2      14.905 -43.094   5.2100  0.00  0.00     0.000 OA
ATOM     39   O  SGN C   2      13.498 -43.134   7.1750  0.00  0.00     0.000 OA
ENDBRANCH 24 34
BRANCH 20 40
ATOM     40  O4  IDS C   3      18.941 -39.589   8.0630  0.00  0.00     0.000 O
BRANCH 40 44
ATOM     41  C1  IDS C   3      22.022 -41.148   8.7740  0.00  0.00     0.000 C
ATOM     42  C2  IDS C   3      21.857 -40.215   7.5790  0.00  0.00     0.000 C
ATOM     43  C3  IDS C   3      20.659 -40.641   6.7330  0.00  0.00     0.000 C
ATOM     44  C4  IDS C   3      19.416 -40.850   7.5840  0.00  0.00     0.000 C
ATOM     45  C5  IDS C   3      19.744 -41.771   8.7780  0.00  0.00     0.000 C
ATOM     46  O5  IDS C   3      20.817 -41.206   9.5340  0.00  0.00     0.000 O
ATOM     47   O  IDS C   3      20.977 -41.842   6.0340  0.00  0.00     0.000 O
ATOM     49  HD  IDS C   3      21.036 -40.987   6.1570  0.00  0.00     0.000 HD
BRANCH 42 49
ATOM     49   O  IDS C   3      21.639 -38.825   8.0430  0.00  0.00     0.000 O
ATOM     50   S  IDS C   3      22.858 -37.786   8.0370  0.00  0.00     0.000 S
ATOM     51   O  IDS C   3      23.059 -37.515   6.6310  0.00  0.00     0.000 OA
ATOM     52   O  IDS C   3      24.020 -38.401   8.6580  0.00  0.00     0.000 OA
ATOM     53   O  IDS C   3      22.398 -36.628   8.7740  0.00  0.00     0.000 OA
ENDBRANCH 42 49
BRANCH 45 54
ATOM     54   C  IDS C   3      18.561 -42.000   9.7050  0.00  0.00     0.000 C
ATOM     55   O  IDS C   3      17.680 -42.750   9.3730  0.00  0.00     0.000 OA
ATOM     56   O  IDS C   3      18.501 -41.414  10.7680  0.00  0.00     0.000 OA
ENDBRANCH 45 54
BRANCH 41 57
ATOM     57  O4  SGN C   4      22.612 -42.262   8.3240  0.00  0.00     0.000 O
BRANCH 57 61
ATOM     58  C1  SGN C   4      24.380 -45.707   9.9180  0.00  0.00     0.000 C
ATOM     59  C2  SGN C   4      22.964 -45.366  10.4090  0.00  0.00     0.000 C
ATOM     60  C3  SGN C   4      22.281 -44.356   9.4760  0.00  0.00     0.000 C
ATOM     61  C4  SGN C   4      23.172 -43.136   9.3090  0.00  0.00     0.000 C
ATOM     62  C5  SGN C   4      24.568 -43.551   8.8480  0.00  0.00     0.000 C
ATOM     63  O5  SGN C   4      25.136 -44.515   9.7550  0.00  0.00     0.000 O
BRANCH 59 66
ATOM     64   N  SGN C   4      22.549 -46.488  11.2570  0.00  0.00     0.000 N
ATOM     66  HD  SGN C   4      22.862 -46.008  10.6080  0.00  0.00     0.000 HD
ATOM     66   O  SGN C   4      21.088 -48.337  11.8750  0.00  0.00     0.000 OA
ATOM     67   O  SGN C   4      20.123 -46.243  11.0230  0.00  0.00     0.000 OA
ATOM     68   S  SGN C   4      21.239 -47.334  10.8770  0.00  0.00     0.000 S
ATOM     69   O  SGN C   4      21.334 -47.716   9.5140  0.00  0.00     0.000 OA
ENDBRANCH 59 66
BRANCH 62 70
ATOM     70   C  SGN C   4      25.510 -42.374   8.8040  0.00  0.00     0.000 C
ATOM     71   S  SGN C   4      27.503 -41.381   7.5340  0.00  0.00     0.000 S
ATOM     72   O  SGN C   4      26.845 -40.089   7.5410  0.00  0.00     0.000 OA
ATOM     73   O  SGN C   4      28.340 -41.605   8.6950  0.00  0.00     0.000 OA
ATOM     74   O  SGN C   4      28.150 -41.692   6.2800  0.00  0.00     0.000 OA
ATOM     75   O  SGN C   4      26.321 -42.437   7.6250  0.00  0.00     0.000 O
ENDBRANCH 62 70
ENDBRANCH 57 61
ENDBRANCH 41 57
ENDBRANCH 40 44
ENDBRANCH 20 40
ENDBRANCH 19 23
ENDBRANCH 1 19
TORSDOF 14
ENDMDL
MODEL 33
REMARK VINA RESULT:      -6.6     35.123     38.523
ROOT
ATOM      1  C1  IDS C   1      -7.206 -10.816  21.0090  0.00  0.00     0.000 C
ATOM      2  C2  IDS C   1      -8.362 -11.581  20.3880  0.00  0.00     0.000 C
ATOM      3  C3  IDS C   1      -7.962 -13.022  20.0980  0.00  0.00     0.000 C
ATOM      4  C4  IDS C   1      -7.347 -13.684  21.3310  0.00  0.00     0.000 C
ATOM      5  C5  IDS C   1      -6.253 -12.779  21.9320  0.00  0.00     0.000 C
ATOM      6  O5  IDS C   1      -6.770 -11.479  22.1950  0.00  0.00     0.000 O
ATOM      7   O  IDS C   1      -7.043 -13.051  19.0040  0.00  0.00     0.000 O
ATOM      9  HD  IDS C   1      -6.814 -13.772  19.4240  0.00  0.00     0.000 HD
ATOM      9   O  IDS C   1      -8.377 -13.898  22.3080  0.00  0.00     0.000 O
ATOM     11  HD  IDS C   1      -8.148 -14.620  22.7280  0.00  0.00     0.000 HD
ENDROOT
BRANCH 2 11
ATOM     11   O  IDS C   1      -9.512 -11.612  21.3190  0.00  0.00     0.000 O
ATOM     12   S  IDS C   1     -10.556 -10.402  21.3640  0.00  0.00     0.000 S
ATOM     13   O  IDS C   1     -11.800 -11.082  21.6480  0.00  0.00     0.000 OA
ATOM     14   O  IDS C   1     -10.560  -9.727  20.0880  0.00  0.00     0.000 OA
ATOM     15   O  IDS C   1     -10.097  -9.567  22.4460  0.00  0.00     0.000 OA
ENDBRANCH 2 11
BRANCH 5 16
ATOM     16   C  IDS C   1      -5.674 -13.318  23.2280  0.00  0.00     0.000 C
ATOM     17   O  IDS C   1      -4.469 -13.350  23.3610  0.00  0.00     0.000 OA
ATOM     18   O  IDS C   1      -6.391 -13.720  24.1010  0.00  0.00     0.000 OA
ENDBRANCH 5 16
BRANCH 1 19
ATOM     19  O4  SGN C   2      -6.241 -10.343  20.2160  0.00  0.00     0.000 O
BRANCH 19 23
ATOM     20  C1  SGN C   2      -3.517  -7.239  19.6020  0.00  0.00     0.000 C
ATOM     21  C2  SGN C   2      -3.244  -8.164  20.7930  0.00  0.00     0.000 C
ATOM     22  C3  SGN C   2      -4.035  -9.460  20.6330  0.00  0.00     0.000 C
ATOM     23  C4  SGN C   2      -5.518  -9.140  20.4870  0.00  0.00     0.000 C
ATOM     24  C5  SGN C   2      -5.726  -8.147  19.3400  0.00  0.00     0.000 C
ATOM     25  O5  SGN C   2      -4.911  -6.980  19.5530  0.00  0.00     0.000 O
ATOM     26   O  SGN C   2      -3.805 -10.325  21.7390  0.00  0.00     0.000 O
ATOM     28  HD  SGN C   2      -3.559 -10.816  22.4090  0.00  0.00     0.000 HD
BRANCH 21 30
ATOM     28   N  SGN C   2      -2.101  -7.247  20.8890  0.00  0.00     0.000 N
ATOM     30  HD  SGN C   2      -1.377  -7.454  20.4610  0.00  0.00     0.000 HD
ATOM     30   S  SGN C   2      -0.944  -7.473  21.9720  0.00  0.00     0.000 S
ATOM     31   O  SGN C   2      -0.498  -8.810  21.7720  0.00  0.00     0.000 OA
ATOM     32   O  SGN C   2      -0.026  -6.399  21.8790  0.00  0.00     0.000 OA
ATOM     33   O  SGN C   2      -1.679  -7.330  23.3480  0.00  0.00     0.000 OA
ENDBRANCH 21 30
BRANCH 24 34
ATOM     34   C  SGN C   2      -7.149  -7.656  19.2130  0.00  0.00     0.000 C
ATOM     35   O  SGN C   2      -7.328  -7.076  17.9090  0.00  0.00     0.000 O
ATOM     36   S  SGN C   2      -8.568  -6.089  17.7180  0.00  0.00     0.000 S
ATOM     37   O  SGN C   2      -8.416  -5.099  18.7660  0.00  0.00     0.000 OA
ATOM     38   O  SGN C   2      -8.431  -5.544  16.3890  0.00  0.00     0.000 OA
ATOM     39   O  SGN C   2      -9.720  -6.942  17.8820  0.00  0.00     0.000 OA
ENDBRANCH 24 34
BRANCH 20 40
ATOM     40  O4  IDS C   3      -3.105  -7.643  18.4020  0.00  0.00     0.000 O
BRANCH 40 44
ATOM     41  C1  IDS C   3      -1.207  -7.681  15.4310  0.00  0.00     0.000 C
ATOM     42  C2  IDS C   3      -0.971  -6.634  16.5150  0.00  0.00     0.000 C
ATOM     43  C3  IDS C   3      -2.284  -5.950  16.8890  0.00  0.00     0.000 C
ATOM     44  C4  IDS C   3      -3.383  -6.961  17.1770  0.00  0.00     0.000 C
ATOM     45  C5  IDS C   3      -3.473  -7.982  16.0230  0.00  0.00     0.000 C
ATOM     46  O5  IDS C   3      -2.204  -8.613  15.8450  0.00  0.00     0.000 O
ATOM     47   O  IDS C   3      -2.685  -5.085  15.8290  0.00  0.00     0.000 O
ATOM     49  HD  IDS C   3      -2.187  -5.287  16.5080  0.00  0.00     0.000 HD
BRANCH 42 49
ATOM     49   O  IDS C   3      -0.408  -7.273  17.7270  0.00  0.00     0.000 O
ATOM     50   S  IDS C   3       1.030  -6.820  18.2680  0.00  0.00     0.000 S
ATOM     51   O  IDS C   3       0.782  -5.504  18.8140  0.00  0.00     0.000 OA
ATOM     52   O  IDS C   3       1.976  -6.798  17.1650  0.00  0.00     0.000 OA
ATOM     53   O  IDS C   3       1.398  -7.789  19.2800  0.00  0.00     0.000 OA
ENDBRANCH 42 49
BRANCH 45 54
ATOM     54   C  IDS C   3      -4.525  -9.056  16.2490  0.00  0.00     0.000 C
ATOM     55   O  IDS C   3      -4.255 -10.026  16.9100  0.00  0.00     0.000 OA
ATOM     56   O  IDS C   3      -5.628  -8.940  15.7500  0.00  0.00     0.000 OA
ENDBRANCH 45 54
BRANCH 41 57
ATOM     57  O4  SGN C   4      -1.309  -7.026  14.2690  0.00  0.00     0.000 O
BRANCH 57 61
ATOM     58  C1  SGN C   4      -1.796  -8.127  10.2590  0.00  0.00     0.000 C
ATOM     59  C2  SGN C   4      -2.403  -9.067  11.3120  0.00  0.00     0.000 C
ATOM     60  C3  SGN C   4      -2.523  -8.370  12.6740  0.00  0.00     0.000 C
ATOM     61  C4  SGN C   4      -1.171  -7.806  13.0770  0.00  0.00     0.000 C
ATOM     62  C5  SGN C   4      -0.615  -6.906  11.9740  0.00  0.00     0.000 C
ATOM     63  O5  SGN C   4      -0.554  -7.617  10.7230  0.00  0.00     0.000 O
BRANCH 59 66
ATOM     64   N  SGN C   4      -3.650  -9.566  10.7240  0.00  0.00     0.000 N
ATOM     66  HD  SGN C   4      -3.018  -9.355  11.2770  0.00  0.00     0.000 HD
ATOM     66   O  SGN C   4      -5.156 -11.321   9.9570  0.00  0.00     0.000 OA
ATOM     67   O  SGN C   4      -2.741 -11.507   9.5380  0.00  0.00     0.000 OA
ATOM     68   S  SGN C   4      -3.877 -11.146  10.5570  0.00  0.00     0.000 S
ATOM     69   O  SGN C   4      -3.599 -11.772  11.7990  0.00  0.00     0.000 OA
ENDBRANCH 59 66
BRANCH 62 70
ATOM     70   C  SGN C   4       0.784  -6.441  12.2900  0.00  0.00     0.000 C
ATOM     71   S  SGN C   4       3.173  -7.259  12.7330  0.00  0.00     0.000 S
ATOM     72   O  SGN C   4       3.675  -6.229  11.8450  0.00  0.00     0.000 OA
ATOM     73   O  SGN C   4       3.054  -6.823  14.1100  0.00  0.00     0.000 OA
ATOM     74   O  SGN C   4       3.843  -8.531  12.5800  0.00  0.00     0.000 OA
ATOM     75   O  SGN C   4       1.695  -7.545  12.2270  0.00  0.00     0.000 O
ENDBRANCH 62 70
ENDBRANCH 57 61
ENDBRANCH 41 57
ENDBRANCH 40 44
ENDBRANCH 20 40
ENDBRANCH 19 23
ENDBRANCH 1 19
TORSDOF 14
ENDMDL
MODEL 34
REMARK VINA RESULT:      -6.5     17.102     23.403
ROOT
ATOM      1  C1  IDS C   1      13.577 -40.788   9.7450  0.00  0.00     0.000 C
ATOM      2  C2  IDS C   1      14.949 -41.272  10.1780  0.00  0.00     0.000 C
ATOM      3  C3  IDS C   1      15.046 -42.789  10.0740  0.00  0.00     0.000 C
ATOM      4  C4  IDS C   1      14.603 -43.276   8.6940  0.00  0.00     0.000 C
ATOM      5  C5  IDS C   1      13.245 -42.651   8.3180  0.00  0.00     0.000 C
ATOM      6  O5  IDS C   1      13.306 -41.232   8.4160  0.00  0.00     0.000 O
ATOM      7   O  IDS C   1      14.249 -43.388  11.0960  0.00  0.00     0.000 O
ATOM      9  HD  IDS C   1      14.237 -44.014  10.4970  0.00  0.00     0.000 HD
ATOM      9   O  IDS C   1      15.589 -42.892   7.7240  0.00  0.00     0.000 O
ATOM     11  HD  IDS C   1      15.578 -43.517   7.1250  0.00  0.00     0.000 HD
ENDROOT
BRANCH 2 11
ATOM     11   O  IDS C   1      15.994 -40.693   9.3040  0.00  0.00     0.000 O
ATOM     12   S  IDS C   1      16.522 -39.204   9.5430  0.00  0.00     0.000 S
ATOM     13   O  IDS C   1      17.916 -39.310   9.1740  0.00  0.00     0.000 OA
ATOM     14   O  IDS C   1      16.331 -38.845  10.9270  0.00  0.00     0.000 OA
ATOM     15   O  IDS C   1      15.748 -38.395   8.6340  0.00  0.00     0.000 OA
ENDBRANCH 2 11
BRANCH 5 16
ATOM     16   C  IDS C   1      12.793 -42.998   6.9110  0.00  0.00     0.000 C
ATOM     17   O  IDS C   1      11.808 -43.690   6.7680  0.00  0.00     0.000 OA
ATOM     18   O  IDS C   1      13.407 -42.611   5.9550  0.00  0.00     0.000 OA
ENDBRANCH 5 16
BRANCH 1 19
ATOM     19  O4  SGN C   2      12.559 -40.869  10.6060  0.00  0.00     0.000 O
BRANCH 19 23
ATOM     20  C1  SGN C   2       9.057 -38.974  11.8610  0.00  0.00     0.000 C
ATOM     21  C2  SGN C   2       8.906 -40.037  10.7670  0.00  0.00     0.000 C
ATOM     22  C3  SGN C   2      10.150 -40.921  10.7310  0.00  0.00     0.000 C
ATOM     23  C4  SGN C   2      11.387 -40.056  10.5180  0.00  0.00     0.000 C
ATOM     24  C5  SGN C   2      11.443 -38.958  11.5840  0.00  0.00     0.000 C
ATOM     25  O5  SGN C   2      10.216 -38.207  11.5760  0.00  0.00     0.000 O
ATOM     26   O  SGN C   2      10.033 -41.904   9.7090  0.00  0.00     0.000 O
ATOM     28  HD  SGN C   2       9.854 -42.510   9.1170  0.00  0.00     0.000 HD
BRANCH 21 30
ATOM     28   N  SGN C   2       7.714 -40.896  10.7530  0.00  0.00     0.000 N
ATOM     30  HD  SGN C   2       7.545 -41.343  10.0320  0.00  0.00     0.000 HD
ATOM     30   S  SGN C   2       6.319 -40.369  10.1730  0.00  0.00     0.000 S
ATOM     31   O  SGN C   2       6.611 -39.897   8.8620  0.00  0.00     0.000 OA
ATOM     32   O  SGN C   2       5.345 -41.379  10.3610  0.00  0.00     0.000 OA
ATOM     33   O  SGN C   2       5.937 -39.182  11.1220  0.00  0.00     0.000 OA
ENDBRANCH 21 30
BRANCH 24 34
ATOM     34   C  SGN C   2      12.556 -37.959  11.3690  0.00  0.00     0.000 C
ATOM     35   O  SGN C   2      12.197 -36.717  12.0000  0.00  0.00     0.000 O
ATOM     36   S  SGN C   2      12.971 -35.407  11.5150  0.00  0.00     0.000 S
ATOM     37   O  SGN C   2      12.797 -35.387  10.0760  0.00  0.00     0.000 OA
ATOM     38   O  SGN C   2      12.328 -34.304  12.1870  0.00  0.00     0.000 OA
ATOM     39   O  SGN C   2      14.333 -35.631  11.9370  0.00  0.00     0.000 OA
ENDBRANCH 24 34
BRANCH 20 40
ATOM     40  O4  IDS C   3       9.109 -39.392  13.1230  0.00  0.00     0.000 O
BRANCH 40 44
ATOM     41  C1  IDS C   3       8.083 -40.371  16.3500  0.00  0.00     0.000 C
ATOM     42  C2  IDS C   3       7.072 -39.978  15.2770  0.00  0.00     0.000 C
ATOM     43  C3  IDS C   3       7.433 -38.620  14.6800  0.00  0.00     0.000 C
ATOM     44  C4  IDS C   3       8.895 -38.558  14.2640  0.00  0.00     0.000 C
ATOM     45  C5  IDS C   3       9.792 -39.029  15.4280  0.00  0.00     0.000 C
ATOM     46  O5  IDS C   3       9.407 -40.347  15.8240  0.00  0.00     0.000 O
ATOM     47   O  IDS C   3       7.155 -37.596  15.6310  0.00  0.00     0.000 O
ATOM     49  HD  IDS C   3       6.912 -38.186  15.0450  0.00  0.00     0.000 HD
BRANCH 42 49
ATOM     49   O  IDS C   3       7.064 -40.986  14.1910  0.00  0.00     0.000 O
ATOM     50   S  IDS C   3       5.820 -41.984  14.0450  0.00  0.00     0.000 S
ATOM     51   O  IDS C   3       4.762 -41.129  13.5540  0.00  0.00     0.000 OA
ATOM     52   O  IDS C   3       5.511 -42.565  15.3410  0.00  0.00     0.000 OA
ATOM     53   O  IDS C   3       6.225 -42.987  13.0830  0.00  0.00     0.000 OA
ENDBRANCH 42 49
BRANCH 45 54
ATOM     54   C  IDS C   3      11.273 -39.035  15.0830  0.00  0.00     0.000 C
ATOM     55   O  IDS C   3      11.865 -37.992  14.9750  0.00  0.00     0.000 OA
ATOM     56   O  IDS C   3      11.849 -40.090  14.9000  0.00  0.00     0.000 OA
ENDBRANCH 45 54
BRANCH 41 57
ATOM     57  O4  SGN C   4       7.763 -39.691  17.4580  0.00  0.00     0.000 O
BRANCH 57 61
ATOM     58  C1  SGN C   4       9.268 -39.136  21.3250  0.00  0.00     0.000 C
ATOM     59  C2  SGN C   4      10.074 -38.513  20.1730  0.00  0.00     0.000 C
ATOM     60  C3  SGN C   4       9.234 -38.425  18.8920  0.00  0.00     0.000 C
ATOM     61  C4  SGN C   4       8.669 -39.796  18.5610  0.00  0.00     0.000 C
ATOM     62  C5  SGN C   4       7.907 -40.365  19.7570  0.00  0.00     0.000 C
ATOM     63  O5  SGN C   4       8.748 -40.395  20.9260  0.00  0.00     0.000 O
BRANCH 59 66
ATOM     64   N  SGN C   4      10.792 -37.510  20.9660  0.00  0.00     0.000 N
ATOM     66  HD  SGN C   4      10.247 -37.903  20.4200  0.00  0.00     0.000 HD
ATOM     66   O  SGN C   4      12.381 -35.687  21.2640  0.00  0.00     0.000 OA
ATOM     67   O  SGN C   4      12.928 -37.560  19.7680  0.00  0.00     0.000 OA
ATOM     68   S  SGN C   4      11.846 -36.533  20.2520  0.00  0.00     0.000 S
ATOM     69   O  SGN C   4      11.221 -35.953  19.1180  0.00  0.00     0.000 OA
ENDBRANCH 59 66
BRANCH 62 70
ATOM     70   C  SGN C   4       7.451 -41.780  19.5010  0.00  0.00     0.000 C
ATOM     71   S  SGN C   4       7.892 -44.228  20.1220  0.00  0.00     0.000 S
ATOM     72   O  SGN C   4       6.465 -44.432  20.2730  0.00  0.00     0.000 OA
ATOM     73   O  SGN C   4       8.367 -44.471  18.7750  0.00  0.00     0.000 OA
ATOM     74   O  SGN C   4       8.680 -44.878  21.1440  0.00  0.00     0.000 OA
ATOM     75   O  SGN C   4       8.111 -42.680  20.3990  0.00  0.00     0.000 O
ENDBRANCH 62 70
ENDBRANCH 57 61
ENDBRANCH 41 57
ENDBRANCH 40 44
ENDBRANCH 20 40
ENDBRANCH 19 23
ENDBRANCH 1 19
TORSDOF 14
ENDMDL
MODEL 35
REMARK VINA RESULT:      -6.5     21.116     24.525
ROOT
ATOM      1  C1  IDS C   1      15.952 -15.127  44.2460  0.00  0.00     0.000 C
ATOM      2  C2  IDS C   1      16.935 -14.314  43.4220  0.00  0.00     0.000 C
ATOM      3  C3  IDS C   1      16.998 -14.832  41.9910  0.00  0.00     0.000 C
ATOM      4  C4  IDS C   1      15.600 -14.950  41.3840  0.00  0.00     0.000 C
ATOM      5  C5  IDS C   1      14.664 -15.710  42.3450  0.00  0.00     0.000 C
ATOM      6  O5  IDS C   1      14.665 -15.097  43.6300  0.00  0.00     0.000 O
ATOM      7   O  IDS C   1      17.660 -16.098  41.9710  0.00  0.00     0.000 O
ATOM      9  HD  IDS C   1      17.158 -16.169  41.2690  0.00  0.00     0.000 HD
ATOM      9   O  IDS C   1      15.079 -13.632  41.1540  0.00  0.00     0.000 O
ATOM     11  HD  IDS C   1      14.577 -13.703  40.4520  0.00  0.00     0.000 HD
ENDROOT
BRANCH 2 11
ATOM     11   O  IDS C   1      16.509 -12.898  43.3700  0.00  0.00     0.000 O
ATOM     12   S  IDS C   1      17.497 -11.771  42.8140  0.00  0.00     0.000 S
ATOM     13   O  IDS C   1      16.585 -10.857  42.1630  0.00  0.00     0.000 OA
ATOM     14   O  IDS C   1      18.441 -12.371  41.9010  0.00  0.00     0.000 OA
ATOM     15   O  IDS C   1      18.119 -11.220  43.9920  0.00  0.00     0.000 OA
ENDBRANCH 2 11
BRANCH 5 16
ATOM     16   C  IDS C   1      13.226 -15.766  41.8610  0.00  0.00     0.000 C
ATOM     17   O  IDS C   1      12.592 -14.735  41.7900  0.00  0.00     0.000 OA
ATOM     18   O  IDS C   1      12.716 -16.812  41.5690  0.00  0.00     0.000 OA
ENDBRANCH 5 16
BRANCH 1 19
ATOM     19  O4  SGN C   2      16.337 -16.308  44.7370  0.00  0.00     0.000 O
BRANCH 19 23
ATOM     20  C1  SGN C   2      16.028 -18.959  47.9470  0.00  0.00     0.000 C
ATOM     21  C2  SGN C   2      14.746 -18.701  47.1470  0.00  0.00     0.000 C
ATOM     22  C3  SGN C   2      15.097 -18.088  45.7930  0.00  0.00     0.000 C
ATOM     23  C4  SGN C   2      15.907 -16.813  46.0020  0.00  0.00     0.000 C
ATOM     24  C5  SGN C   2      17.127 -17.110  46.8790  0.00  0.00     0.000 C
ATOM     25  O5  SGN C   2      16.705 -17.724  48.1100  0.00  0.00     0.000 O
ATOM     26   O  SGN C   2      13.917 -17.826  45.0430  0.00  0.00     0.000 O
ATOM     28  HD  SGN C   2      13.160 -17.763  44.6280  0.00  0.00     0.000 HD
BRANCH 21 30
ATOM     28   N  SGN C   2      13.534 -18.835  47.9650  0.00  0.00     0.000 N
ATOM     30  HD  SGN C   2      13.623 -19.116  48.7800  0.00  0.00     0.000 HD
ATOM     30   S  SGN C   2      12.765 -20.233  48.0840  0.00  0.00     0.000 S
ATOM     31   O  SGN C   2      13.753 -21.173  48.4930  0.00  0.00     0.000 OA
ATOM     32   O  SGN C   2      11.602 -20.041  48.8690  0.00  0.00     0.000 OA
ATOM     33   O  SGN C   2      12.286 -20.529  46.6220  0.00  0.00     0.000 OA
ENDBRANCH 21 30
BRANCH 24 34
ATOM     34   C  SGN C   2      17.911 -15.877  47.2640  0.00  0.00     0.000 C
ATOM     35   O  SGN C   2      17.051 -14.985  47.9930  0.00  0.00     0.000 O
ATOM     36   S  SGN C   2      17.503 -13.456  48.0860  0.00  0.00     0.000 S
ATOM     37   O  SGN C   2      17.713 -13.049  46.7100  0.00  0.00     0.000 OA
ATOM     38   O  SGN C   2      16.410 -12.766  48.7280  0.00  0.00     0.000 OA
ATOM     39   O  SGN C   2      18.709 -13.497  48.8750  0.00  0.00     0.000 OA
ENDBRANCH 24 34
BRANCH 20 40
ATOM     40  O4  IDS C   3      16.879 -19.865  47.4700  0.00  0.00     0.000 O
BRANCH 40 44
ATOM     41  C1  IDS C   3      18.610 -22.742  46.3950  0.00  0.00     0.000 C
ATOM     42  C2  IDS C   3      17.139 -22.799  46.7960  0.00  0.00     0.000 C
ATOM     43  C3  IDS C   3      16.939 -22.173  48.1740  0.00  0.00     0.000 C
ATOM     44  C4  IDS C   3      17.596 -20.806  48.2720  0.00  0.00     0.000 C
ATOM     45  C5  IDS C   3      19.060 -20.891  47.7910  0.00  0.00     0.000 C
ATOM     46  O5  IDS C   3      19.093 -21.402  46.4560  0.00  0.00     0.000 O
ATOM     47   O  IDS C   3      17.473 -23.042  49.1700  0.00  0.00     0.000 O
ATOM     49  HD  IDS C   3      16.870 -22.819  48.5900  0.00  0.00     0.000 HD
BRANCH 42 49
ATOM     49   O  IDS C   3      16.314 -22.057  45.8140  0.00  0.00     0.000 O
ATOM     50   S  IDS C   3      15.245 -22.845  44.9180  0.00  0.00     0.000 S
ATOM     51   O  IDS C   3      14.204 -23.184  45.8620  0.00  0.00     0.000 OA
ATOM     52   O  IDS C   3      15.875 -24.019  44.3360  0.00  0.00     0.000 OA
ATOM     53   O  IDS C   3      14.805 -21.907  43.9070  0.00  0.00     0.000 OA
ENDBRANCH 42 49
BRANCH 45 54
ATOM     54   C  IDS C   3      19.782 -19.553  47.8190  0.00  0.00     0.000 C
ATOM     55   O  IDS C   3      19.996 -19.013  48.8740  0.00  0.00     0.000 OA
ATOM     56   O  IDS C   3      20.126 -19.027  46.7790  0.00  0.00     0.000 OA
ENDBRANCH 45 54
BRANCH 41 57
ATOM     57  O4  SGN C   4      19.231 -23.734  47.0430  0.00  0.00     0.000 O
BRANCH 57 61
ATOM     58  C1  SGN C   4      22.670 -26.042  46.4270  0.00  0.00     0.000 C
ATOM     59  C2  SGN C   4      22.717 -24.586  45.9350  0.00  0.00     0.000 C
ATOM     60  C3  SGN C   4      21.597 -23.750  46.5700  0.00  0.00     0.000 C
ATOM     61  C4  SGN C   4      20.258 -24.426  46.3260  0.00  0.00     0.000 C
ATOM     62  C5  SGN C   4      20.294 -25.875  46.8110  0.00  0.00     0.000 C
ATOM     63  O5  SGN C   4      21.381 -26.590  46.1940  0.00  0.00     0.000 O
BRANCH 59 66
ATOM     64   N  SGN C   4      24.166 -24.469  45.7400  0.00  0.00     0.000 N
ATOM     66  HD  SGN C   4      23.371 -24.478  46.0850  0.00  0.00     0.000 HD
ATOM     66   O  SGN C   4      26.245 -23.223  45.5000  0.00  0.00     0.000 OA
ATOM     67   O  SGN C   4      24.190 -22.398  44.4310  0.00  0.00     0.000 OA
ATOM     68   S  SGN C   4      24.852 -23.019  45.7100  0.00  0.00     0.000 S
ATOM     69   O  SGN C   4      24.419 -22.295  46.8510  0.00  0.00     0.000 OA
ENDBRANCH 59 66
BRANCH 62 70
ATOM     70   C  SGN C   4      19.023 -26.608  46.4600  0.00  0.00     0.000 C
ATOM     71   S  SGN C   4      17.426 -28.450  47.2510  0.00  0.00     0.000 S
ATOM     72   O  SGN C   4      16.302 -27.586  46.9470  0.00  0.00     0.000 OA
ATOM     73   O  SGN C   4      17.837 -29.271  46.1300  0.00  0.00     0.000 OA
ATOM     74   O  SGN C   4      17.273 -29.184  48.4860  0.00  0.00     0.000 OA
ATOM     75   O  SGN C   4      18.631 -27.459  47.5440  0.00  0.00     0.000 O
ENDBRANCH 62 70
ENDBRANCH 57 61
ENDBRANCH 41 57
ENDBRANCH 40 44
ENDBRANCH 20 40
ENDBRANCH 19 23
ENDBRANCH 1 19
TORSDOF 14
ENDMDL
MODEL 36
REMARK VINA RESULT:      -6.5     24.236     27.259
ROOT
ATOM      1  C1  IDS C   1      15.148 -13.832  42.2380  0.00  0.00     0.000 C
ATOM      2  C2  IDS C   1      14.788 -14.187  40.8060  0.00  0.00     0.000 C
ATOM      3  C3  IDS C   1      15.610 -15.375  40.3210  0.00  0.00     0.000 C
ATOM      4  C4  IDS C   1      15.533 -16.540  41.3070  0.00  0.00     0.000 C
ATOM      5  C5  IDS C   1      15.824 -16.047  42.7390  0.00  0.00     0.000 C
ATOM      6  O5  IDS C   1      14.959 -14.968  43.0800  0.00  0.00     0.000 O
ATOM      7   O  IDS C   1      16.967 -14.969  40.1310  0.00  0.00     0.000 O
ATOM      9  HD  IDS C   1      17.074 -15.813  40.2950  0.00  0.00     0.000 HD
ATOM      9   O  IDS C   1      14.215 -17.107  41.2570  0.00  0.00     0.000 O
ATOM     11  HD  IDS C   1      14.321 -17.951  41.4210  0.00  0.00     0.000 HD
ENDROOT
BRANCH 2 11
ATOM     11   O  IDS C   1      13.359 -14.563  40.7170  0.00  0.00     0.000 O
ATOM     12   S  IDS C   1      12.232 -13.443  40.5500  0.00  0.00     0.000 S
ATOM     13   O  IDS C   1      11.257 -14.111  39.7160  0.00  0.00     0.000 OA
ATOM     14   O  IDS C   1      12.806 -12.277  39.9240  0.00  0.00     0.000 OA
ATOM     15   O  IDS C   1      11.765 -13.195  41.8920  0.00  0.00     0.000 OA
ENDBRANCH 2 11
BRANCH 5 16
ATOM     16   C  IDS C   1      15.652 -17.127  43.7920  0.00  0.00     0.000 C
ATOM     17   O  IDS C   1      15.933 -16.871  44.9430  0.00  0.00     0.000 OA
ATOM     18   O  IDS C   1      15.262 -18.222  43.4920  0.00  0.00     0.000 OA
ENDBRANCH 5 16
BRANCH 1 19
ATOM     19  O4  SGN C   2      16.248 -13.110  42.4700  0.00  0.00     0.000 O
BRANCH 19 23
ATOM     20  C1  SGN C   2      18.016 -10.250  44.9450  0.00  0.00     0.000 C
ATOM     21  C2  SGN C   2      17.792 -11.638  45.5550  0.00  0.00     0.000 C
ATOM     22  C3  SGN C   2      17.561 -12.659  44.4430  0.00  0.00     0.000 C
ATOM     23  C4  SGN C   2      16.385 -12.219  43.5790  0.00  0.00     0.000 C
ATOM     24  C5  SGN C   2      16.620 -10.795  43.0670  0.00  0.00     0.000 C
ATOM     25  O5  SGN C   2      16.872  -9.913  44.1770  0.00  0.00     0.000 O
ATOM     26   O  SGN C   2      17.335 -13.952  44.9930  0.00  0.00     0.000 O
ATOM     28  HD  SGN C   2      17.276 -14.712  45.4030  0.00  0.00     0.000 HD
BRANCH 21 30
ATOM     28   N  SGN C   2      18.586 -11.004  46.6140  0.00  0.00     0.000 N
ATOM     30  HD  SGN C   2      19.424 -11.217  46.6770  0.00  0.00     0.000 HD
ATOM     30   S  SGN C   2      18.801 -11.717  48.0300  0.00  0.00     0.000 S
ATOM     31   O  SGN C   2      19.313 -13.011  47.7260  0.00  0.00     0.000 OA
ATOM     32   O  SGN C   2      19.537 -10.844  48.8670  0.00  0.00     0.000 OA
ATOM     33   O  SGN C   2      17.356 -11.816  48.6290  0.00  0.00     0.000 OA
ENDBRANCH 21 30
BRANCH 24 34
ATOM     34   C  SGN C   2      15.441 -10.216  42.3220  0.00  0.00     0.000 C
ATOM     35   O  SGN C   2      14.812  -9.217  43.1450  0.00  0.00     0.000 O
ATOM     36   S  SGN C   2      13.309  -8.819  42.7810  0.00  0.00     0.000 S
ATOM     37   O  SGN C   2      12.589 -10.077  42.7600  0.00  0.00     0.000 OA
ATOM     38   O  SGN C   2      12.878  -7.928  43.8320  0.00  0.00     0.000 OA
ATOM     39   O  SGN C   2      13.420  -8.186  41.4900  0.00  0.00     0.000 OA
ENDBRANCH 24 34
BRANCH 20 40
ATOM     40  O4  IDS C   3      19.108 -10.072  44.2050  0.00  0.00     0.000 O
BRANCH 40 44
ATOM     41  C1  IDS C   3      22.442  -9.566  43.1790  0.00  0.00     0.000 C
ATOM     42  C2  IDS C   3      22.079  -9.753  44.6490  0.00  0.00     0.000 C
ATOM     43  C3  IDS C   3      20.968  -8.786  45.0490  0.00  0.00     0.000 C
ATOM     44  C4  IDS C   3      19.804  -8.830  44.0710  0.00  0.00     0.000 C
ATOM     45  C5  IDS C   3      20.325  -8.679  42.6270  0.00  0.00     0.000 C
ATOM     46  O5  IDS C   3      21.286  -9.702  42.3570  0.00  0.00     0.000 O
ATOM     47   O  IDS C   3      21.494  -7.463  45.1180  0.00  0.00     0.000 O
ATOM     49  HD  IDS C   3      21.392  -8.265  45.4270  0.00  0.00     0.000 HD
BRANCH 42 49
ATOM     49   O  IDS C   3      21.610 -11.138  44.8860  0.00  0.00     0.000 O
ATOM     50   S  IDS C   3      22.476 -12.123  45.8060  0.00  0.00     0.000 S
ATOM     51   O  IDS C   3      22.277 -11.596  47.1380  0.00  0.00     0.000 OA
ATOM     52   O  IDS C   3      23.868 -12.075  45.3890  0.00  0.00     0.000 OA
ATOM     53   O  IDS C   3      21.901 -13.440  45.6300  0.00  0.00     0.000 OA
ENDBRANCH 42 49
BRANCH 45 54
ATOM     54   C  IDS C   3      19.226  -8.752  41.5790  0.00  0.00     0.000 C
ATOM     55   O  IDS C   3      18.278  -8.015  41.6560  0.00  0.00     0.000 OA
ATOM     56   O  IDS C   3      19.300  -9.565  40.6780  0.00  0.00     0.000 OA
ENDBRANCH 45 54
BRANCH 41 57
ATOM     57  O4  SGN C   4      23.225  -8.483  43.1030  0.00  0.00     0.000 O
BRANCH 57 61
ATOM     58  C1  SGN C   4      25.200  -6.259  40.1570  0.00  0.00     0.000 C
ATOM     59  C2  SGN C   4      23.665  -6.177  40.1720  0.00  0.00     0.000 C
ATOM     60  C3  SGN C   4      23.096  -6.679  41.5060  0.00  0.00     0.000 C
ATOM     61  C4  SGN C   4      23.629  -8.073  41.7930  0.00  0.00     0.000 C
ATOM     62  C5  SGN C   4      25.156  -8.085  41.7330  0.00  0.00     0.000 C
ATOM     63  O5  SGN C   4      25.618  -7.580  40.4660  0.00  0.00     0.000 O
BRANCH 59 66
ATOM     64   N  SGN C   4      23.439  -5.076  39.2300  0.00  0.00     0.000 N
ATOM     66  HD  SGN C   4      23.661  -5.544  39.9240  0.00  0.00     0.000 HD
ATOM     66   O  SGN C   4      22.272  -3.096  38.4220  0.00  0.00     0.000 OA
ATOM     67   O  SGN C   4      20.996  -4.967  39.3800  0.00  0.00     0.000 OA
ATOM     68   S  SGN C   4      22.250  -4.032  39.4950  0.00  0.00     0.000 S
ATOM     69   O  SGN C   4      22.355  -3.563  40.8290  0.00  0.00     0.000 OA
ENDBRANCH 59 66
BRANCH 62 70
ATOM     70   C  SGN C   4      25.705  -9.482  41.8820  0.00  0.00     0.000 C
ATOM     71   S  SGN C   4      25.462 -11.889  41.0330  0.00  0.00     0.000 S
ATOM     72   O  SGN C   4      26.905 -11.979  40.9200  0.00  0.00     0.000 OA
ATOM     73   O  SGN C   4      24.963 -12.285  42.3340  0.00  0.00     0.000 OA
ATOM     74   O  SGN C   4      24.757 -12.497  39.9280  0.00  0.00     0.000 OA
ATOM     75   O  SGN C   4      25.140 -10.341  40.8840  0.00  0.00     0.000 O
ENDBRANCH 62 70
ENDBRANCH 57 61
ENDBRANCH 41 57
ENDBRANCH 40 44
ENDBRANCH 20 40
ENDBRANCH 19 23
ENDBRANCH 1 19
TORSDOF 14
ENDMDL
MODEL 37
REMARK VINA RESULT:      -6.4     41.477     48.307
ROOT
ATOM      1  C1  IDS C   1      48.843 -67.875  47.6730  0.00  0.00     0.000 C
ATOM      2  C2  IDS C   1      47.556 -67.422  48.3390  0.00  0.00     0.000 C
ATOM      3  C3  IDS C   1      47.184 -68.354  49.4860  0.00  0.00     0.000 C
ATOM      4  C4  IDS C   1      48.362 -68.553  50.4400  0.00  0.00     0.000 C
ATOM      5  C5  IDS C   1      49.634 -68.917  49.6480  0.00  0.00     0.000 C
ATOM      6  O5  IDS C   1      49.889 -67.945  48.6400  0.00  0.00     0.000 O
ATOM      7   O  IDS C   1      46.750 -69.609  48.9590  0.00  0.00     0.000 O
ATOM      9  HD  IDS C   1      47.045 -69.855  49.7350  0.00  0.00     0.000 HD
ATOM      9   O  IDS C   1      48.585 -67.334  51.1660  0.00  0.00     0.000 O
ATOM     11  HD  IDS C   1      48.880 -67.580  51.9420  0.00  0.00     0.000 HD
ENDROOT
BRANCH 2 11
ATOM     11   O  IDS C   1      47.722 -66.063  48.9000  0.00  0.00     0.000 O
ATOM     12   S  IDS C   1      46.486 -65.051  48.9600  0.00  0.00     0.000 S
ATOM     13   O  IDS C   1      46.745 -64.324  50.1830  0.00  0.00     0.000 OA
ATOM     14   O  IDS C   1      45.255 -65.802  49.0000  0.00  0.00     0.000 OA
ATOM     15   O  IDS C   1      46.621 -64.244  47.7730  0.00  0.00     0.000 OA
ENDBRANCH 2 11
BRANCH 5 16
ATOM     16   C  IDS C   1      50.873 -69.018  50.5190  0.00  0.00     0.000 C
ATOM     17   O  IDS C   1      50.742 -69.278  51.6960  0.00  0.00     0.000 OA
ATOM     18   O  IDS C   1      51.965 -68.827  50.0580  0.00  0.00     0.000 OA
ENDBRANCH 5 16
BRANCH 1 19
ATOM     19  O4  SGN C   2      48.798 -68.876  46.7880  0.00  0.00     0.000 O
BRANCH 19 23
ATOM     20  C1  SGN C   2      50.586 -69.877  43.1510  0.00  0.00     0.000 C
ATOM     21  C2  SGN C   2      50.788 -70.863  44.3080  0.00  0.00     0.000 C
ATOM     22  C3  SGN C   2      49.750 -70.601  45.3960  0.00  0.00     0.000 C
ATOM     23  C4  SGN C   2      49.847 -69.151  45.8590  0.00  0.00     0.000 C
ATOM     24  C5  SGN C   2      49.727 -68.213  44.6550  0.00  0.00     0.000 C
ATOM     25  O5  SGN C   2      50.711 -68.561  43.6640  0.00  0.00     0.000 O
ATOM     26   O  SGN C   2      49.933 -71.498  46.4860  0.00  0.00     0.000 O
ATOM     28  HD  SGN C   2      50.068 -72.121  47.0720  0.00  0.00     0.000 HD
BRANCH 21 30
ATOM     28   N  SGN C   2      50.892 -72.322  44.1750  0.00  0.00     0.000 N
ATOM     30  HD  SGN C   2      51.340 -72.754  44.7780  0.00  0.00     0.000 HD
ATOM     30   S  SGN C   2      52.148 -73.001  43.4530  0.00  0.00     0.000 S
ATOM     31   O  SGN C   2      53.294 -72.475  44.1150  0.00  0.00     0.000 OA
ATOM     32   O  SGN C   2      51.938 -74.401  43.4080  0.00  0.00     0.000 OA
ATOM     33   O  SGN C   2      52.067 -72.478  41.9780  0.00  0.00     0.000 OA
ENDBRANCH 21 30
BRANCH 24 34
ATOM     34   C  SGN C   2      49.959 -66.759  44.9930  0.00  0.00     0.000 C
ATOM     35   O  SGN C   2      48.729 -66.035  44.8160  0.00  0.00     0.000 O
ATOM     36   S  SGN C   2      48.836 -64.451  44.6540  0.00  0.00     0.000 S
ATOM     37   O  SGN C   2      49.775 -64.254  43.5670  0.00  0.00     0.000 OA
ATOM     38   O  SGN C   2      47.500 -64.000  44.3470  0.00  0.00     0.000 OA
ATOM     39   O  SGN C   2      49.321 -64.002  45.9360  0.00  0.00     0.000 OA
ENDBRANCH 24 34
BRANCH 20 40
ATOM     40  O4  IDS C   3      49.456 -69.970  42.4540  0.00  0.00     0.000 O
BRANCH 40 44
ATOM     41  C1  IDS C   3      46.700 -70.686  40.3750  0.00  0.00     0.000 C
ATOM     42  C2  IDS C   3      47.779 -71.728  40.6570  0.00  0.00     0.000 C
ATOM     43  C3  IDS C   3      49.163 -71.150  40.3690  0.00  0.00     0.000 C
ATOM     44  C4  IDS C   3      49.360 -69.799  41.0380  0.00  0.00     0.000 C
ATOM     45  C5  IDS C   3      48.173 -68.870  40.7050  0.00  0.00     0.000 C
ATOM     46  O5  IDS C   3      46.952 -69.492  41.1120  0.00  0.00     0.000 O
ATOM     47   O  IDS C   3      49.340 -71.025  38.9600  0.00  0.00     0.000 O
ATOM     49  HD  IDS C   3      49.296 -71.490  39.6900  0.00  0.00     0.000 HD
BRANCH 42 49
ATOM     49   O  IDS C   3      47.726 -72.144  42.0770  0.00  0.00     0.000 O
ATOM     50   S  IDS C   3      47.682 -73.703  42.4460  0.00  0.00     0.000 S
ATOM     51   O  IDS C   3      49.020 -74.157  42.1370  0.00  0.00     0.000 OA
ATOM     52   O  IDS C   3      46.669 -74.362  41.6380  0.00  0.00     0.000 OA
ATOM     53   O  IDS C   3      47.377 -73.769  43.8600  0.00  0.00     0.000 OA
ENDBRANCH 42 49
BRANCH 45 54
ATOM     54   C  IDS C   3      48.271 -67.506  41.3690  0.00  0.00     0.000 C
ATOM     55   O  IDS C   3      49.275 -66.853  41.2460  0.00  0.00     0.000 OA
ATOM     56   O  IDS C   3      47.344 -67.087  42.0340  0.00  0.00     0.000 OA
ENDBRANCH 45 54
BRANCH 41 57
ATOM     57  O4  SGN C   4      46.520 -70.659  39.0490  0.00  0.00     0.000 O
BRANCH 57 61
ATOM     58  C1  SGN C   4      43.829 -69.014  36.2950  0.00  0.00     0.000 C
ATOM     59  C2  SGN C   4      44.686 -68.024  37.1000  0.00  0.00     0.000 C
ATOM     60  C3  SGN C   4      45.886 -68.728  37.7470  0.00  0.00     0.000 C
ATOM     61  C4  SGN C   4      45.399 -69.910  38.5690  0.00  0.00     0.000 C
ATOM     62  C5  SGN C   4      44.531 -70.834  37.7160  0.00  0.00     0.000 C
ATOM     63  O5  SGN C   4      43.442 -70.102  37.1220  0.00  0.00     0.000 O
BRANCH 59 66
ATOM     64   N  SGN C   4      45.058 -66.915  36.2150  0.00  0.00     0.000 N
ATOM     66  HD  SGN C   4      44.993 -67.454  36.8890  0.00  0.00     0.000 HD
ATOM     66   O  SGN C   4      45.002 -64.594  35.4780  0.00  0.00     0.000 OA
ATOM     67   O  SGN C   4      42.945 -65.677  36.2760  0.00  0.00     0.000 OA
ATOM     68   S  SGN C   4      44.480 -65.444  36.4930  0.00  0.00     0.000 S
ATOM     69   O  SGN C   4      44.709 -65.124  37.8560  0.00  0.00     0.000 OA
ENDBRANCH 59 66
BRANCH 62 70
ATOM     70   C  SGN C   4      43.925 -71.942  38.5400  0.00  0.00     0.000 C
ATOM     71   S  SGN C   4      42.507 -72.418  40.6220  0.00  0.00     0.000 S
ATOM     72   O  SGN C   4      41.732 -73.375  39.8580  0.00  0.00     0.000 OA
ATOM     73   O  SGN C   4      43.668 -73.001  41.2650  0.00  0.00     0.000 OA
ATOM     74   O  SGN C   4      41.707 -71.595  41.5000  0.00  0.00     0.000 OA
ATOM     75   O  SGN C   4      43.062 -71.393  39.5440  0.00  0.00     0.000 O
ENDBRANCH 62 70
ENDBRANCH 57 61
ENDBRANCH 41 57
ENDBRANCH 40 44
ENDBRANCH 20 40
ENDBRANCH 19 23
ENDBRANCH 1 19
TORSDOF 14
ENDMDL
MODEL 38
REMARK VINA RESULT:      -6.4     19.856     25.724
ROOT
ATOM      1  C1  IDS C   1       5.824 -15.382  10.6260  0.00  0.00     0.000 C
ATOM      2  C2  IDS C   1       4.703 -15.633  11.6190  0.00  0.00     0.000 C
ATOM      3  C3  IDS C   1       4.223 -14.325  12.2360  0.00  0.00     0.000 C
ATOM      4  C4  IDS C   1       3.902 -13.291  11.1580  0.00  0.00     0.000 C
ATOM      5  C5  IDS C   1       5.068 -13.186  10.1540  0.00  0.00     0.000 C
ATOM      6  O5  IDS C   1       5.384 -14.468   9.6220  0.00  0.00     0.000 O
ATOM      7   O  IDS C   1       5.222 -13.825  13.1270  0.00  0.00     0.000 O
ATOM      9  HD  IDS C   1       4.830 -13.088  12.8970  0.00  0.00     0.000 HD
ATOM      9   O  IDS C   1       2.711 -13.695  10.4640  0.00  0.00     0.000 O
ATOM     11  HD  IDS C   1       2.318 -12.958  10.2340  0.00  0.00     0.000 HD
ENDROOT
BRANCH 2 11
ATOM     11   O  IDS C   1       3.547 -16.258  10.9370  0.00  0.00     0.000 O
ATOM     12   S  IDS C   1       2.718 -17.425  11.6470  0.00  0.00     0.000 S
ATOM     13   O  IDS C   1       1.373 -17.175  11.1770  0.00  0.00     0.000 OA
ATOM     14   O  IDS C   1       2.847 -17.301  13.0790  0.00  0.00     0.000 OA
ATOM     15   O  IDS C   1       3.290 -18.643  11.1290  0.00  0.00     0.000 OA
ENDBRANCH 2 11
BRANCH 5 16
ATOM     16   C  IDS C   1       4.773 -12.261   8.9870  0.00  0.00     0.000 C
ATOM     17   O  IDS C   1       3.955 -11.378   9.1330  0.00  0.00     0.000 OA
ATOM     18   O  IDS C   1       5.325 -12.408   7.9310  0.00  0.00     0.000 OA
ENDBRANCH 5 16
BRANCH 1 19
ATOM     19  O4  SGN C   2       7.065 -15.193  11.0830  0.00  0.00     0.000 O
BRANCH 19 23
ATOM     20  C1  SGN C   2      11.091 -15.240   9.9800  0.00  0.00     0.000 C
ATOM     21  C2  SGN C   2      10.372 -13.889   9.8900  0.00  0.00     0.000 C
ATOM     22  C3  SGN C   2       9.088 -13.932  10.7140  0.00  0.00     0.000 C
ATOM     23  C4  SGN C   2       8.208 -15.080  10.2330  0.00  0.00     0.000 C
ATOM     24  C5  SGN C   2       9.001 -16.389  10.2610  0.00  0.00     0.000 C
ATOM     25  O5  SGN C   2      10.212 -16.243   9.4980  0.00  0.00     0.000 O
ATOM     26   O  SGN C   2       8.399 -12.689  10.6290  0.00  0.00     0.000 O
ATOM     28  HD  SGN C   2       8.081 -11.885  10.5800  0.00  0.00     0.000 HD
BRANCH 21 30
ATOM     28   N  SGN C   2      11.759 -13.470   9.6460  0.00  0.00     0.000 N
ATOM     30  HD  SGN C   2      12.184 -13.078  10.2900  0.00  0.00     0.000 HD
ATOM     30   S  SGN C   2      12.104 -11.984   9.1640  0.00  0.00     0.000 S
ATOM     31   O  SGN C   2      11.482 -11.126  10.1160  0.00  0.00     0.000 OA
ATOM     32   O  SGN C   2      13.499 -11.897   8.9390  0.00  0.00     0.000 OA
ATOM     33   O  SGN C   2      11.406 -11.865   7.7670  0.00  0.00     0.000 OA
ENDBRANCH 21 30
BRANCH 24 34
ATOM     34   C  SGN C   2       8.258 -17.561   9.6620  0.00  0.00     0.000 C
ATOM     35   O  SGN C   2       7.550 -18.249  10.7080  0.00  0.00     0.000 O
ATOM     36   S  SGN C   2       7.098 -19.751  10.4090  0.00  0.00     0.000 S
ATOM     37   O  SGN C   2       8.313 -20.429  10.0010  0.00  0.00     0.000 OA
ATOM     38   O  SGN C   2       6.554 -20.247  11.6500  0.00  0.00     0.000 OA
ATOM     39   O  SGN C   2       6.120 -19.618   9.3570  0.00  0.00     0.000 OA
ENDBRANCH 24 34
BRANCH 20 40
ATOM     40  O4  IDS C   3      11.563 -15.607  11.1690  0.00  0.00     0.000 O
BRANCH 40 44
ATOM     41  C1  IDS C   3      13.407 -16.083  14.1360  0.00  0.00     0.000 C
ATOM     42  C2  IDS C   3      13.779 -14.996  13.1310  0.00  0.00     0.000 C
ATOM     43  C3  IDS C   3      13.911 -15.590  11.7310  0.00  0.00     0.000 C
ATOM     44  C4  IDS C   3      12.706 -16.443  11.3650  0.00  0.00     0.000 C
ATOM     45  C5  IDS C   3      12.421 -17.460  12.4910  0.00  0.00     0.000 C
ATOM     46  O5  IDS C   3      12.224 -16.763  13.7230  0.00  0.00     0.000 O
ATOM     47   O  IDS C   3      15.100 -16.373  11.6600  0.00  0.00     0.000 O
ATOM     49  HD  IDS C   3      14.680 -15.616  11.6840  0.00  0.00     0.000 HD
BRANCH 42 49
ATOM     49   O  IDS C   3      12.732 -13.948  13.1040  0.00  0.00     0.000 O
ATOM     50   S  IDS C   3      13.109 -12.441  13.4950  0.00  0.00     0.000 S
ATOM     51   O  IDS C   3      13.895 -11.991  12.3680  0.00  0.00     0.000 OA
ATOM     52   O  IDS C   3      13.863 -12.438  14.7380  0.00  0.00     0.000 OA
ATOM     53   O  IDS C   3      11.850 -11.736  13.6210  0.00  0.00     0.000 OA
ENDBRANCH 42 49
BRANCH 45 54
ATOM     54   C  IDS C   3      11.203 -18.330  12.2220  0.00  0.00     0.000 C
ATOM     55   O  IDS C   3      10.259 -18.280  12.9670  0.00  0.00     0.000 OA
ATOM     56   O  IDS C   3      11.194 -19.083  11.2680  0.00  0.00     0.000 OA
ENDBRANCH 45 54
BRANCH 41 57
ATOM     57  O4  SGN C   4      14.530 -16.753  14.4210  0.00  0.00     0.000 O
BRANCH 57 61
ATOM     58  C1  SGN C   4      15.693 -19.879  16.9520  0.00  0.00     0.000 C
ATOM     59  C2  SGN C   4      14.381 -20.072  16.1730  0.00  0.00     0.000 C
ATOM     60  C3  SGN C   4      14.280 -19.081  15.0050  0.00  0.00     0.000 C
ATOM     61  C4  SGN C   4      14.472 -17.665  15.5220  0.00  0.00     0.000 C
ATOM     62  C5  SGN C   4      15.777 -17.554  16.3100  0.00  0.00     0.000 C
ATOM     63  O5  SGN C   4      15.813 -18.527  17.3710  0.00  0.00     0.000 O
BRANCH 59 66
ATOM     64   N  SGN C   4      13.952 -21.445  16.4550  0.00  0.00     0.000 N
ATOM     66  HD  SGN C   4      14.420 -20.747  16.2470  0.00  0.00     0.000 HD
ATOM     66   O  SGN C   4      13.323 -23.712  15.8210  0.00  0.00     0.000 OA
ATOM     67   O  SGN C   4      12.558 -21.804  14.4730  0.00  0.00     0.000 OA
ATOM     68   S  SGN C   4      13.743 -22.480  15.2460  0.00  0.00     0.000 S
ATOM     69   O  SGN C   4      14.902 -22.452  14.4280  0.00  0.00     0.000 OA
ENDBRANCH 59 66
BRANCH 62 70
ATOM     70   C  SGN C   4      15.926 -16.196  16.9470  0.00  0.00     0.000 C
ATOM     71   S  SGN C   4      17.636 -14.384  17.5520  0.00  0.00     0.000 S
ATOM     72   O  SGN C   4      16.733 -13.377  17.0310  0.00  0.00     0.000 OA
ATOM     73   O  SGN C   4      17.425 -14.672  18.9570  0.00  0.00     0.000 OA
ATOM     74   O  SGN C   4      19.020 -14.154  17.2060  0.00  0.00     0.000 OA
ATOM     75   O  SGN C   4      17.262 -15.711  16.7640  0.00  0.00     0.000 O
ENDBRANCH 62 70
ENDBRANCH 57 61
ENDBRANCH 41 57
ENDBRANCH 40 44
ENDBRANCH 20 40
ENDBRANCH 19 23
ENDBRANCH 1 19
TORSDOF 14
ENDMDL
MODEL 39
REMARK VINA RESULT:      -6.4     19.946     27.040
ROOT
ATOM      1  C1  IDS C   1      15.508 -37.081  10.3270  0.00  0.00     0.000 C
ATOM      2  C2  IDS C   1      16.178 -36.155   9.3280  0.00  0.00     0.000 C
ATOM      3  C3  IDS C   1      15.169 -35.182   8.7310  0.00  0.00     0.000 C
ATOM      4  C4  IDS C   1      14.373 -34.472   9.8260  0.00  0.00     0.000 C
ATOM      5  C5  IDS C   1      13.818 -35.499  10.8340  0.00  0.00     0.000 C
ATOM      6  O5  IDS C   1      14.869 -36.312  11.3460  0.00  0.00     0.000 O
ATOM      7   O  IDS C   1      14.291 -35.886   7.8510  0.00  0.00     0.000 O
ATOM      9  HD  IDS C   1      13.782 -35.229   8.0930  0.00  0.00     0.000 HD
ATOM      9   O  IDS C   1      15.237 -33.552  10.5110  0.00  0.00     0.000 O
ATOM     11  HD  IDS C   1      14.728 -32.895  10.7520  0.00  0.00     0.000 HD
ENDROOT
BRANCH 2 11
ATOM     11   O  IDS C   1      17.231 -35.357   9.9970  0.00  0.00     0.000 O
ATOM     12   S  IDS C   1      18.666 -35.172   9.3190  0.00  0.00     0.000 S
ATOM     13   O  IDS C   1      19.025 -33.831   9.7230  0.00  0.00     0.000 OA
ATOM     14   O  IDS C   1      18.541 -35.316   7.8890  0.00  0.00     0.000 OA
ATOM     15   O  IDS C   1      19.486 -36.192   9.9230  0.00  0.00     0.000 OA
ENDBRANCH 2 11
BRANCH 5 16
ATOM     16   C  IDS C   1      13.112 -34.859  12.0160  0.00  0.00     0.000 C
ATOM     17   O  IDS C   1      12.882 -33.669  11.9840  0.00  0.00     0.000 OA
ATOM     18   O  IDS C   1      12.799 -35.512  12.9730  0.00  0.00     0.000 OA
ENDBRANCH 5 16
BRANCH 1 19
ATOM     19  O4  SGN C   2      14.824 -38.136   9.8760  0.00  0.00     0.000 O
BRANCH 19 23
ATOM     20  C1  SGN C   2      13.464 -41.982  10.7630  0.00  0.00     0.000 C
ATOM     21  C2  SGN C   2      12.876 -40.839  11.5980  0.00  0.00     0.000 C
ATOM     22  C3  SGN C   2      13.118 -39.507  10.8920  0.00  0.00     0.000 C
ATOM     23  C4  SGN C   2      14.611 -39.323  10.6430  0.00  0.00     0.000 C
ATOM     24  C5  SGN C   2      15.164 -40.531   9.8830  0.00  0.00     0.000 C
ATOM     25  O5  SGN C   2      14.852 -41.741  10.5970  0.00  0.00     0.000 O
ATOM     26   O  SGN C   2      12.592 -38.432  11.6610  0.00  0.00     0.000 O
ATOM     28  HD  SGN C   2      12.187 -37.846  12.1540  0.00  0.00     0.000 HD
BRANCH 21 30
ATOM     28   N  SGN C   2      11.484 -40.848  12.0670  0.00  0.00     0.000 N
ATOM     30  HD  SGN C   2      11.279 -40.339  12.7370  0.00  0.00     0.000 HD
ATOM     30   S  SGN C   2      11.021 -41.795  13.2700  0.00  0.00     0.000 S
ATOM     31   O  SGN C   2      11.910 -41.503  14.3440  0.00  0.00     0.000 OA
ATOM     32   O  SGN C   2       9.624 -41.646  13.4480  0.00  0.00     0.000 OA
ATOM     33   O  SGN C   2      11.261 -43.245  12.7270  0.00  0.00     0.000 OA
ENDBRANCH 21 30
BRANCH 24 34
ATOM     34   C  SGN C   2      16.666 -40.509   9.7190  0.00  0.00     0.000 C
ATOM     35   O  SGN C   2      16.983 -40.110   8.3730  0.00  0.00     0.000 O
ATOM     36   S  SGN C   2      18.443 -40.465   7.8360  0.00  0.00     0.000 S
ATOM     37   O  SGN C   2      18.579 -41.892   8.0550  0.00  0.00     0.000 OA
ATOM     38   O  SGN C   2      18.446 -40.096   6.4420  0.00  0.00     0.000 OA
ATOM     39   O  SGN C   2      19.320 -39.662   8.6530  0.00  0.00     0.000 OA
ENDBRANCH 24 34
BRANCH 20 40
ATOM     40  O4  IDS C   3      12.916 -42.221   9.5740  0.00  0.00     0.000 O
BRANCH 40 44
ATOM     41  C1  IDS C   3      10.661 -43.501   7.1860  0.00  0.00     0.000 C
ATOM     42  C2  IDS C   3      10.495 -43.789   8.6750  0.00  0.00     0.000 C
ATOM     43  C3  IDS C   3      11.795 -44.335   9.2590  0.00  0.00     0.000 C
ATOM     44  C4  IDS C   3      12.988 -43.470   8.8830  0.00  0.00     0.000 C
ATOM     45  C5  IDS C   3      12.999 -43.223   7.3600  0.00  0.00     0.000 C
ATOM     46  O5  IDS C   3      11.763 -42.624   6.9660  0.00  0.00     0.000 O
ATOM     47   O  IDS C   3      11.998 -45.669   8.7970  0.00  0.00     0.000 O
ATOM     49  HD  IDS C   3      11.605 -45.081   9.2980  0.00  0.00     0.000 HD
BRANCH 42 49
ATOM     49   O  IDS C   3      10.137 -42.546   9.3980  0.00  0.00     0.000 O
ATOM     50   S  IDS C   3       8.628 -42.318   9.8850  0.00  0.00     0.000 S
ATOM     51   O  IDS C   3       8.485 -43.253  10.9790  0.00  0.00     0.000 OA
ATOM     52   O  IDS C   3       7.718 -42.601   8.7870  0.00  0.00     0.000 OA
ATOM     53   O  IDS C   3       8.551 -40.937  10.3110  0.00  0.00     0.000 OA
ENDBRANCH 42 49
BRANCH 45 54
ATOM     54   C  IDS C   3      14.142 -42.331   6.9020  0.00  0.00     0.000 C
ATOM     55   O  IDS C   3      15.280 -42.690   7.0620  0.00  0.00     0.000 OA
ATOM     56   O  IDS C   3      13.903 -41.252   6.3940  0.00  0.00     0.000 OA
ENDBRANCH 45 54
BRANCH 41 57
ATOM     57  O4  SGN C   4      10.568 -44.674   6.5470  0.00  0.00     0.000 O
BRANCH 57 61
ATOM     58  C1  SGN C   4       9.234 -46.123   2.8530  0.00  0.00     0.000 C
ATOM     59  C2  SGN C   4      10.471 -45.210   2.8320  0.00  0.00     0.000 C
ATOM     60  C3  SGN C   4      11.094 -45.088   4.2290  0.00  0.00     0.000 C
ATOM     61  C4  SGN C   4      10.032 -44.642   5.2210  0.00  0.00     0.000 C
ATOM     62  C5  SGN C   4       8.823 -45.575   5.1670  0.00  0.00     0.000 C
ATOM     63  O5  SGN C   4       8.307 -45.660   3.8250  0.00  0.00     0.000 O
BRANCH 59 66
ATOM     64   N  SGN C   4      11.281 -45.759   1.7390  0.00  0.00     0.000 N
ATOM     66  HD  SGN C   4      11.022 -45.358   2.4620  0.00  0.00     0.000 HD
ATOM     66   O  SGN C   4      12.607 -45.589  -0.2970  0.00  0.00     0.000 OA
ATOM     67   O  SGN C   4      10.573 -44.232  -0.0400  0.00  0.00     0.000 OA
ATOM     68   S  SGN C   4      11.885 -44.777   0.6230  0.00  0.00     0.000 S
ATOM     69   O  SGN C   4      12.549 -43.709   1.2790  0.00  0.00     0.000 OA
ENDBRANCH 59 66
BRANCH 62 70
ATOM     70   C  SGN C   4       7.701 -45.079   6.0440  0.00  0.00     0.000 C
ATOM     71   S  SGN C   4       5.177 -44.632   6.0990  0.00  0.00     0.000 S
ATOM     72   O  SGN C   4       5.107 -45.271   7.3990  0.00  0.00     0.000 OA
ATOM     73   O  SGN C   4       5.442 -43.210   6.1720  0.00  0.00     0.000 OA
ATOM     74   O  SGN C   4       4.078 -44.976   5.2270  0.00  0.00     0.000 OA
ATOM     75   O  SGN C   4       6.441 -45.286   5.3940  0.00  0.00     0.000 O
ENDBRANCH 62 70
ENDBRANCH 57 61
ENDBRANCH 41 57
ENDBRANCH 40 44
ENDBRANCH 20 40
ENDBRANCH 19 23
ENDBRANCH 1 19
TORSDOF 14
ENDMDL
MODEL 40
REMARK VINA RESULT:      -6.3     18.340     23.505
ROOT
ATOM      1  C1  IDS C   1      22.144 -46.631  13.2480  0.00  0.00     0.000 C
ATOM      2  C2  IDS C   1      20.840 -47.295  13.6530  0.00  0.00     0.000 C
ATOM      3  C3  IDS C   1      20.417 -48.332  12.6200  0.00  0.00     0.000 C
ATOM      4  C4  IDS C   1      21.558 -49.301  12.3110  0.00  0.00     0.000 C
ATOM      5  C5  IDS C   1      22.853 -48.521  12.0060  0.00  0.00     0.000 C
ATOM      6  O5  IDS C   1      23.155 -47.622  13.0680  0.00  0.00     0.000 O
ATOM      7   O  IDS C   1      19.987 -47.670  11.4290  0.00  0.00     0.000 O
ATOM      9  HD  IDS C   1      20.251 -48.428  11.1040  0.00  0.00     0.000 HD
ATOM      9   O  IDS C   1      21.771 -50.150  13.4500  0.00  0.00     0.000 O
ATOM     11  HD  IDS C   1      22.035 -50.908  13.1240  0.00  0.00     0.000 HD
ENDROOT
BRANCH 2 11
ATOM     11   O  IDS C   1      21.003 -47.992  14.9490  0.00  0.00     0.000 O
ATOM     12   S  IDS C   1      19.781 -48.103  15.9720  0.00  0.00     0.000 S
ATOM     13   O  IDS C   1      20.001 -49.400  16.5730  0.00  0.00     0.000 OA
ATOM     14   O  IDS C   1      18.538 -48.022  15.2440  0.00  0.00     0.000 OA
ATOM     15   O  IDS C   1      19.974 -47.006  16.8880  0.00  0.00     0.000 OA
ENDBRANCH 2 11
BRANCH 5 16
ATOM     16   C  IDS C   1      24.060 -49.418  11.8020  0.00  0.00     0.000 C
ATOM     17   O  IDS C   1      25.169 -48.945  11.9320  0.00  0.00     0.000 OA
ATOM     18   O  IDS C   1      23.925 -50.572  11.5010  0.00  0.00     0.000 OA
ENDBRANCH 5 16
BRANCH 1 19
ATOM     19  O4  SGN C   2      22.119 -45.652  12.3390  0.00  0.00     0.000 O
BRANCH 19 23
ATOM     20  C1  SGN C   2      23.955 -42.124  11.0720  0.00  0.00     0.000 C
ATOM     21  C2  SGN C   2      24.879 -43.318  11.3410  0.00  0.00     0.000 C
ATOM     22  C3  SGN C   2      24.061 -44.607  11.3620  0.00  0.00     0.000 C
ATOM     23  C4  SGN C   2      22.955 -44.495  12.4050  0.00  0.00     0.000 C
ATOM     24  C5  SGN C   2      22.118 -43.241  12.1420  0.00  0.00     0.000 C
ATOM     25  O5  SGN C   2      22.973 -42.084  12.0950  0.00  0.00     0.000 O
ATOM     26   O  SGN C   2      24.901 -45.725  11.6260  0.00  0.00     0.000 O
ATOM     28  HD  SGN C   2      25.488 -46.355  11.7220  0.00  0.00     0.000 HD
BRANCH 21 30
ATOM     28   N  SGN C   2      26.097 -43.589  10.5660  0.00  0.00     0.000 N
ATOM     30  HD  SGN C   2      26.713 -44.072  10.9360  0.00  0.00     0.000 HD
ATOM     30   S  SGN C   2      27.400 -42.674  10.7240  0.00  0.00     0.000 S
ATOM     31   O  SGN C   2      27.686 -42.662  12.1190  0.00  0.00     0.000 OA
ATOM     32   O  SGN C   2      28.379 -43.125   9.8050  0.00  0.00     0.000 OA
ATOM     33   O  SGN C   2      26.933 -41.260  10.2370  0.00  0.00     0.000 OA
ENDBRANCH 21 30
BRANCH 24 34
ATOM     34   C  SGN C   2      21.087 -42.964  13.2110  0.00  0.00     0.000 C
ATOM     35   O  SGN C   2      21.676 -42.132  14.2250  0.00  0.00     0.000 O
ATOM     36   S  SGN C   2      20.955 -42.103  15.6490  0.00  0.00     0.000 S
ATOM     37   O  SGN C   2      20.856 -43.495  16.0410  0.00  0.00     0.000 OA
ATOM     38   O  SGN C   2      21.818 -41.325  16.5060  0.00  0.00     0.000 OA
ATOM     39   O  SGN C   2      19.683 -41.477  15.3830  0.00  0.00     0.000 OA
ENDBRANCH 24 34
BRANCH 20 40
ATOM     40  O4  IDS C   3      23.355 -42.065   9.8860  0.00  0.00     0.000 O
BRANCH 40 44
ATOM     41  C1  IDS C   3      22.439 -41.004   6.6510  0.00  0.00     0.000 C
ATOM     42  C2  IDS C   3      23.524 -40.286   7.4490  0.00  0.00     0.000 C
ATOM     43  C3  IDS C   3      23.006 -39.918   8.8380  0.00  0.00     0.000 C
ATOM     44  C4  IDS C   3      22.356 -41.106   9.5290  0.00  0.00     0.000 C
ATOM     45  C5  IDS C   3      21.321 -41.759   8.5890  0.00  0.00     0.000 C
ATOM     46  O5  IDS C   3      21.959 -42.139   7.3680  0.00  0.00     0.000 O
ATOM     47   O  IDS C   3      22.070 -38.849   8.7260  0.00  0.00     0.000 O
ATOM     49  HD  IDS C   3      22.875 -39.167   8.7220  0.00  0.00     0.000 HD
BRANCH 42 49
ATOM     49   O  IDS C   3      24.708 -41.162   7.6020  0.00  0.00     0.000 O
ATOM     50   S  IDS C   3      26.062 -40.810   6.8200  0.00  0.00     0.000 S
ATOM     51   O  IDS C   3      26.560 -39.649   7.5230  0.00  0.00     0.000 OA
ATOM     52   O  IDS C   3      25.756 -40.532   5.4270  0.00  0.00     0.000 OA
ATOM     53   O  IDS C   3      26.918 -41.968   6.9670  0.00  0.00     0.000 OA
ENDBRANCH 42 49
BRANCH 45 54
ATOM     54   C  IDS C   3      20.649 -42.984   9.1900  0.00  0.00     0.000 C
ATOM     55   O  IDS C   3      21.108 -44.078   8.9830  0.00  0.00     0.000 OA
ATOM     56   O  IDS C   3      19.644 -42.857   9.8610  0.00  0.00     0.000 OA
ENDBRANCH 45 54
BRANCH 41 57
ATOM     57  O4  SGN C   4      21.601 -40.064   6.1970  0.00  0.00     0.000 O
BRANCH 57 61
ATOM     58  C1  SGN C   4      17.879 -39.875   4.2890  0.00  0.00     0.000 C
ATOM     59  C2  SGN C   4      17.949 -40.695   5.5880  0.00  0.00     0.000 C
ATOM     60  C3  SGN C   4      19.214 -40.356   6.3890  0.00  0.00     0.000 C
ATOM     61  C4  SGN C   4      20.436 -40.524   5.5030  0.00  0.00     0.000 C
ATOM     62  C5  SGN C   4      20.285 -39.707   4.2210  0.00  0.00     0.000 C
ATOM     63  O5  SGN C   4      19.068 -40.059   3.5360  0.00  0.00     0.000 O
BRANCH 59 66
ATOM     64   N  SGN C   4      16.530 -40.964   5.8430  0.00  0.00     0.000 N
ATOM     66  HD  SGN C   4      17.296 -40.574   5.7330  0.00  0.00     0.000 HD
ATOM     66   O  SGN C   4      14.573 -41.196   7.2740  0.00  0.00     0.000 OA
ATOM     67   O  SGN C   4      16.753 -42.044   8.0300  0.00  0.00     0.000 OA
ATOM     68   S  SGN C   4      15.959 -40.881   7.3400  0.00  0.00     0.000 S
ATOM     69   O  SGN C   4      16.366 -39.645   7.9060  0.00  0.00     0.000 OA
ENDBRANCH 59 66
BRANCH 62 70
ATOM     70   C  SGN C   4      21.423 -39.961   3.2650  0.00  0.00     0.000 C
ATOM     71   S  SGN C   4      22.784 -41.814   2.1320  0.00  0.00     0.000 S
ATOM     72   O  SGN C   4      22.676 -41.105   0.8730  0.00  0.00     0.000 OA
ATOM     73   O  SGN C   4      23.942 -41.425   2.9130  0.00  0.00     0.000 OA
ATOM     74   O  SGN C   4      22.621 -43.245   2.0060  0.00  0.00     0.000 OA
ATOM     75   O  SGN C   4      21.511 -41.359   2.9650  0.00  0.00     0.000 O
ENDBRANCH 62 70
ENDBRANCH 57 61
ENDBRANCH 41 57
ENDBRANCH 40 44
ENDBRANCH 20 40
ENDBRANCH 19 23
ENDBRANCH 1 19
TORSDOF 14
ENDMDL
MODEL 41
REMARK VINA RESULT:      -6.3     19.789     23.374
ROOT
ATOM      1  C1  IDS C   1      16.170 -26.678  51.0360  0.00  0.00     0.000 C
ATOM      2  C2  IDS C   1      16.473 -28.080  51.5320  0.00  0.00     0.000 C
ATOM      3  C3  IDS C   1      17.279 -28.034  52.8250  0.00  0.00     0.000 C
ATOM      4  C4  IDS C   1      16.617 -27.120  53.8560  0.00  0.00     0.000 C
ATOM      5  C5  IDS C   1      16.270 -25.759  53.2180  0.00  0.00     0.000 C
ATOM      6  O5  IDS C   1      15.480 -25.945  52.0480  0.00  0.00     0.000 O
ATOM      7   O  IDS C   1      18.607 -27.590  52.5410  0.00  0.00     0.000 O
ATOM      9  HD  IDS C   1      18.525 -27.335  53.3650  0.00  0.00     0.000 HD
ATOM      9   O  IDS C   1      15.415 -27.745  54.3300  0.00  0.00     0.000 O
ATOM     11  HD  IDS C   1      15.333 -27.489  55.1530  0.00  0.00     0.000 HD
ENDROOT
BRANCH 2 11
ATOM     11   O  IDS C   1      15.213 -28.805  51.8140  0.00  0.00     0.000 O
ATOM     12   S  IDS C   1      14.967 -30.269  51.2220  0.00  0.00     0.000 S
ATOM     13   O  IDS C   1      14.202 -30.901  52.2740  0.00  0.00     0.000 OA
ATOM     14   O  IDS C   1      16.239 -30.910  50.9870  0.00  0.00     0.000 OA
ATOM     15   O  IDS C   1      14.211 -30.049  50.0140  0.00  0.00     0.000 OA
ENDBRANCH 2 11
BRANCH 5 16
ATOM     16   C  IDS C   1      15.505 -24.838  54.1500  0.00  0.00     0.000 C
ATOM     17   O  IDS C   1      14.310 -25.001  54.2830  0.00  0.00     0.000 OA
ATOM     18   O  IDS C   1      16.065 -23.952  54.7350  0.00  0.00     0.000 OA
ENDBRANCH 5 16
BRANCH 1 19
ATOM     19  O4  SGN C   2      17.115 -26.007  50.3710  0.00  0.00     0.000 O
BRANCH 19 23
ATOM     20  C1  SGN C   2      17.921 -23.621  47.0410  0.00  0.00     0.000 C
ATOM     21  C2  SGN C   2      17.162 -22.953  48.1940  0.00  0.00     0.000 C
ATOM     22  C3  SGN C   2      17.327 -23.780  49.4670  0.00  0.00     0.000 C
ATOM     23  C4  SGN C   2      16.848 -25.206  49.2180  0.00  0.00     0.000 C
ATOM     24  C5  SGN C   2      17.573 -25.793  48.0050  0.00  0.00     0.000 C
ATOM     25  O5  SGN C   2      17.401 -24.929  46.8670  0.00  0.00     0.000 O
ATOM     26   O  SGN C   2      16.615 -23.183  50.5450  0.00  0.00     0.000 O
ATOM     28  HD  SGN C   2      16.216 -22.721  51.1590  0.00  0.00     0.000 HD
BRANCH 21 30
ATOM     28   N  SGN C   2      17.444 -21.785  47.3500  0.00  0.00     0.000 N
ATOM     30  HD  SGN C   2      18.070 -21.243  47.6030  0.00  0.00     0.000 HD
ATOM     30   S  SGN C   2      16.766 -20.366  47.6440  0.00  0.00     0.000 S
ATOM     31   O  SGN C   2      17.063 -20.082  49.0080  0.00  0.00     0.000 OA
ATOM     32   O  SGN C   2      17.161 -19.460  46.6310  0.00  0.00     0.000 OA
ATOM     33   O  SGN C   2      15.234 -20.630  47.4510  0.00  0.00     0.000 OA
ENDBRANCH 21 30
BRANCH 24 34
ATOM     34   C  SGN C   2      17.059 -27.152  47.5900  0.00  0.00     0.000 C
ATOM     35   O  SGN C   2      17.982 -28.159  48.0400  0.00  0.00     0.000 O
ATOM     36   S  SGN C   2      17.904 -29.585  47.3270  0.00  0.00     0.000 S
ATOM     37   O  SGN C   2      18.021 -29.297  45.9110  0.00  0.00     0.000 OA
ATOM     38   O  SGN C   2      19.014 -30.344  47.8520  0.00  0.00     0.000 OA
ATOM     39   O  SGN C   2      16.613 -30.098  47.7160  0.00  0.00     0.000 OA
ENDBRANCH 24 34
BRANCH 20 40
ATOM     40  O4  IDS C   3      19.247 -23.686  47.1330  0.00  0.00     0.000 O
BRANCH 40 44
ATOM     41  C1  IDS C   3      22.635 -22.764  46.8080  0.00  0.00     0.000 C
ATOM     42  C2  IDS C   3      21.510 -21.860  46.3120  0.00  0.00     0.000 C
ATOM     43  C3  IDS C   3      20.564 -22.640  45.4020  0.00  0.00     0.000 C
ATOM     44  C4  IDS C   3      20.125 -23.950  46.0360  0.00  0.00     0.000 C
ATOM     45  C5  IDS C   3      21.359 -24.732  46.5340  0.00  0.00     0.000 C
ATOM     46  O5  IDS C   3      22.101 -23.921  47.4470  0.00  0.00     0.000 O
ATOM     47   O  IDS C   3      21.209 -22.895  44.1560  0.00  0.00     0.000 O
ATOM     49  HD  IDS C   3      20.807 -22.375  44.7200  0.00  0.00     0.000 HD
BRANCH 42 49
ATOM     49   O  IDS C   3      20.736 -21.332  47.4590  0.00  0.00     0.000 O
ATOM     50   S  IDS C   3      21.010 -19.843  47.9830  0.00  0.00     0.000 S
ATOM     51   O  IDS C   3      20.444 -19.014  46.9410  0.00  0.00     0.000 OA
ATOM     52   O  IDS C   3      22.441 -19.641  48.1410  0.00  0.00     0.000 OA
ATOM     53   O  IDS C   3      20.302 -19.727  49.2400  0.00  0.00     0.000 OA
ENDBRANCH 42 49
BRANCH 45 54
ATOM     54   C  IDS C   3      21.005 -26.042  47.2200  0.00  0.00     0.000 C
ATOM     55   O  IDS C   3      21.040 -26.115  48.4210  0.00  0.00     0.000 OA
ATOM     56   O  IDS C   3      20.707 -27.014  46.5540  0.00  0.00     0.000 OA
ENDBRANCH 45 54
BRANCH 41 57
ATOM     57  O4  SGN C   4      23.522 -22.869  45.8120  0.00  0.00     0.000 O
BRANCH 57 61
ATOM     58  C1  SGN C   4      27.589 -23.762  45.3730  0.00  0.00     0.000 C
ATOM     59  C2  SGN C   4      26.764 -24.712  46.2560  0.00  0.00     0.000 C
ATOM     60  C3  SGN C   4      25.260 -24.531  46.0100  0.00  0.00     0.000 C
ATOM     61  C4  SGN C   4      24.889 -23.069  46.1880  0.00  0.00     0.000 C
ATOM     62  C5  SGN C   4      25.766 -22.182  45.3050  0.00  0.00     0.000 C
ATOM     63  O5  SGN C   4      27.161 -22.423  45.5710  0.00  0.00     0.000 O
BRANCH 59 66
ATOM     64   N  SGN C   4      27.312 -26.050  46.0100  0.00  0.00     0.000 N
ATOM     66  HD  SGN C   4      26.801 -25.391  46.2450  0.00  0.00     0.000 HD
ATOM     66   O  SGN C   4      28.331 -28.155  46.6930  0.00  0.00     0.000 OA
ATOM     67   O  SGN C   4      29.065 -26.045  47.7200  0.00  0.00     0.000 OA
ATOM     68   S  SGN C   4      27.861 -26.926  47.2370  0.00  0.00     0.000 S
ATOM     69   O  SGN C   4      26.869 -26.947  48.2500  0.00  0.00     0.000 OA
ENDBRANCH 59 66
BRANCH 62 70
ATOM     70   C  SGN C   4      25.510 -20.718  45.5610  0.00  0.00     0.000 C
ATOM     71   S  SGN C   4      24.822 -18.522  44.4320  0.00  0.00     0.000 S
ATOM     72   O  SGN C   4      23.915 -18.258  45.5320  0.00  0.00     0.000 OA
ATOM     73   O  SGN C   4      26.157 -18.004  44.6520  0.00  0.00     0.000 OA
ATOM     74   O  SGN C   4      24.273 -18.188  43.1380  0.00  0.00     0.000 OA
ATOM     75   O  SGN C   4      24.958 -20.104  44.3910  0.00  0.00     0.000 O
ENDBRANCH 62 70
ENDBRANCH 57 61
ENDBRANCH 41 57
ENDBRANCH 40 44
ENDBRANCH 20 40
ENDBRANCH 19 23
ENDBRANCH 1 19
TORSDOF 14
ENDMDL
MODEL 42
REMARK VINA RESULT:      -6.3      8.975     15.908
ROOT
ATOM      1  C1  IDS C   1      17.251 -33.432  29.7890  0.00  0.00     0.000 C
ATOM      2  C2  IDS C   1      18.695 -33.857  29.9950  0.00  0.00     0.000 C
ATOM      3  C3  IDS C   1      19.427 -33.948  28.6620  0.00  0.00     0.000 C
ATOM      4  C4  IDS C   1      19.247 -32.669  27.8450  0.00  0.00     0.000 C
ATOM      5  C5  IDS C   1      17.756 -32.282  27.7800  0.00  0.00     0.000 C
ATOM      6  O5  IDS C   1      17.208 -32.189  29.0910  0.00  0.00     0.000 O
ATOM      7   O  IDS C   1      18.949 -35.079  27.9320  0.00  0.00     0.000 O
ATOM      9  HD  IDS C   1      19.210 -34.569  27.2830  0.00  0.00     0.000 HD
ATOM      9   O  IDS C   1      19.988 -31.608  28.4690  0.00  0.00     0.000 O
ATOM     11  HD  IDS C   1      20.249 -31.098  27.8190  0.00  0.00     0.000 HD
ENDROOT
BRANCH 2 11
ATOM     11   O  IDS C   1      19.404 -32.863  30.8310  0.00  0.00     0.000 O
ATOM     12   S  IDS C   1      20.060 -33.290  32.2240  0.00  0.00     0.000 S
ATOM     13   O  IDS C   1      21.235 -32.450  32.2810  0.00  0.00     0.000 OA
ATOM     14   O  IDS C   1      20.375 -34.698  32.1920  0.00  0.00     0.000 OA
ATOM     15   O  IDS C   1      19.065 -32.954  33.2120  0.00  0.00     0.000 OA
ENDBRANCH 2 11
BRANCH 5 16
ATOM     16   C  IDS C   1      17.510 -30.957  27.0810  0.00  0.00     0.000 C
ATOM     17   O  IDS C   1      18.095 -29.971  27.4750  0.00  0.00     0.000 OA
ATOM     18   O  IDS C   1      16.739 -30.879  26.1650  0.00  0.00     0.000 OA
ENDBRANCH 5 16
BRANCH 1 19
ATOM     19  O4  SGN C   2      16.354 -34.347  29.4080  0.00  0.00     0.000 O
BRANCH 19 23
ATOM     20  C1  SGN C   2      12.297 -35.318  29.2740  0.00  0.00     0.000 C
ATOM     21  C2  SGN C   2      12.775 -34.238  28.2970  0.00  0.00     0.000 C
ATOM     22  C3  SGN C   2      14.294 -34.306  28.1560  0.00  0.00     0.000 C
ATOM     23  C4  SGN C   2      14.943 -34.162  29.5270  0.00  0.00     0.000 C
ATOM     24  C5  SGN C   2      14.367 -35.207  30.4870  0.00  0.00     0.000 C
ATOM     25  O5  SGN C   2      12.932 -35.098  30.5230  0.00  0.00     0.000 O
ATOM     26   O  SGN C   2      14.757 -33.299  27.2630  0.00  0.00     0.000 O
ATOM     28  HD  SGN C   2      14.947 -32.708  26.6600  0.00  0.00     0.000 HD
BRANCH 21 30
ATOM     28   N  SGN C   2      11.795 -33.215  27.9090  0.00  0.00     0.000 N
ATOM     30  HD  SGN C   2      11.004 -33.257  28.2600  0.00  0.00     0.000 HD
ATOM     30   S  SGN C   2      10.751 -33.473  26.7240  0.00  0.00     0.000 S
ATOM     31   O  SGN C   2      10.097 -34.693  27.0580  0.00  0.00     0.000 OA
ATOM     32   O  SGN C   2       9.992 -32.294  26.5290  0.00  0.00     0.000 OA
ATOM     33   O  SGN C   2      11.653 -33.653  25.4560  0.00  0.00     0.000 OA
ENDBRANCH 21 30
BRANCH 24 34
ATOM     34   C  SGN C   2      14.842 -35.049  31.9120  0.00  0.00     0.000 C
ATOM     35   O  SGN C   2      15.939 -35.950  32.1420  0.00  0.00     0.000 O
ATOM     36   S  SGN C   2      16.284 -36.300  33.6610  0.00  0.00     0.000 S
ATOM     37   O  SGN C   2      15.034 -36.768  34.2250  0.00  0.00     0.000 OA
ATOM     38   O  SGN C   2      17.305 -37.319  33.6030  0.00  0.00     0.000 OA
ATOM     39   O  SGN C   2      16.743 -35.048  34.2110  0.00  0.00     0.000 OA
ENDBRANCH 24 34
BRANCH 20 40
ATOM     40  O4  IDS C   3      12.463 -36.589  28.9160  0.00  0.00     0.000 O
BRANCH 40 44
ATOM     41  C1  IDS C   3      12.036 -39.779  27.4770  0.00  0.00     0.000 C
ATOM     42  C2  IDS C   3      11.082 -38.629  27.1660  0.00  0.00     0.000 C
ATOM     43  C3  IDS C   3      10.562 -38.005  28.4590  0.00  0.00     0.000 C
ATOM     44  C4  IDS C   3      11.693 -37.682  29.4230  0.00  0.00     0.000 C
ATOM     45  C5  IDS C   3      12.600 -38.918  29.6020  0.00  0.00     0.000 C
ATOM     46  O5  IDS C   3      13.091 -39.337  28.3270  0.00  0.00     0.000 O
ATOM     47   O  IDS C   3       9.638 -38.898  29.0770  0.00  0.00     0.000 O
ATOM     49  HD  IDS C   3       9.859 -38.321  28.4700  0.00  0.00     0.000 HD
BRANCH 42 49
ATOM     49   O  IDS C   3      11.782 -37.584  26.3840  0.00  0.00     0.000 O
ATOM     50   S  IDS C   3      11.449 -37.401  24.8280  0.00  0.00     0.000 S
ATOM     51   O  IDS C   3      10.127 -36.815  24.8360  0.00  0.00     0.000 OA
ATOM     52   O  IDS C   3      11.482 -38.697  24.1710  0.00  0.00     0.000 OA
ATOM     53   O  IDS C   3      12.459 -36.503  24.3080  0.00  0.00     0.000 OA
ENDBRANCH 42 49
BRANCH 45 54
ATOM     54   C  IDS C   3      13.784 -38.667  30.5230  0.00  0.00     0.000 C
ATOM     55   O  IDS C   3      13.593 -38.429  31.6880  0.00  0.00     0.000 OA
ATOM     56   O  IDS C   3      14.915 -38.692  30.0780  0.00  0.00     0.000 OA
ENDBRANCH 45 54
BRANCH 41 57
ATOM     57  O4  SGN C   4      11.282 -40.837  27.7990  0.00  0.00     0.000 O
BRANCH 57 61
ATOM     58  C1  SGN C   4      11.574 -45.011  27.6600  0.00  0.00     0.000 C
ATOM     59  C2  SGN C   4      12.747 -44.257  28.3070  0.00  0.00     0.000 C
ATOM     60  C3  SGN C   4      12.351 -42.819  28.6660  0.00  0.00     0.000 C
ATOM     61  C4  SGN C   4      11.792 -42.124  27.4360  0.00  0.00     0.000 C
ATOM     62  C5  SGN C   4      10.653 -42.941  26.8290  0.00  0.00     0.000 C
ATOM     63  O5  SGN C   4      11.088 -44.283  26.5410  0.00  0.00     0.000 O
BRANCH 59 66
ATOM     64   N  SGN C   4      13.195 -45.113  29.4100  0.00  0.00     0.000 N
ATOM     66  HD  SGN C   4      13.057 -44.439  28.8840  0.00  0.00     0.000 HD
ATOM     66   O  SGN C   4      14.855 -46.406  30.6380  0.00  0.00     0.000 OA
ATOM     67   O  SGN C   4      14.823 -46.468  28.1810  0.00  0.00     0.000 OA
ATOM     68   S  SGN C   4      14.725 -45.592  29.4780  0.00  0.00     0.000 S
ATOM     69   O  SGN C   4      15.557 -44.453  29.3290  0.00  0.00     0.000 OA
ENDBRANCH 59 66
BRANCH 62 70
ATOM     70   C  SGN C   4      10.170 -42.342  25.5320  0.00  0.00     0.000 C
ATOM     71   S  SGN C   4       9.991 -42.767  23.0110  0.00  0.00     0.000 S
ATOM     72   O  SGN C   4       8.620 -42.296  23.0430  0.00  0.00     0.000 OA
ATOM     73   O  SGN C   4      10.955 -41.711  22.7760  0.00  0.00     0.000 OA
ATOM     74   O  SGN C   4      10.183 -43.929  22.1730  0.00  0.00     0.000 OA
ATOM     75   O  SGN C   4      10.269 -43.307  24.4780  0.00  0.00     0.000 O
ENDBRANCH 62 70
ENDBRANCH 57 61
ENDBRANCH 41 57
ENDBRANCH 40 44
ENDBRANCH 20 40
ENDBRANCH 19 23
ENDBRANCH 1 19
TORSDOF 14
ENDMDL
MODEL 43
REMARK VINA RESULT:      -6.3     13.675     19.464
ROOT
ATOM      1  C1  IDS C   1      37.344 -29.975  19.3380  0.00  0.00     0.000 C
ATOM      2  C2  IDS C   1      36.297 -29.261  20.1760  0.00  0.00     0.000 C
ATOM      3  C3  IDS C   1      35.864 -30.127  21.3520  0.00  0.00     0.000 C
ATOM      4  C4  IDS C   1      37.073 -30.636  22.1380  0.00  0.00     0.000 C
ATOM      5  C5  IDS C   1      38.110 -31.255  21.1790  0.00  0.00     0.000 C
ATOM      6  O5  IDS C   1      38.458 -30.328  20.1560  0.00  0.00     0.000 O
ATOM      7   O  IDS C   1      35.081 -31.222  20.8750  0.00  0.00     0.000 O
ATOM      9  HD  IDS C   1      35.405 -31.563  21.6020  0.00  0.00     0.000 HD
ATOM      9   O  IDS C   1      37.670 -29.535  22.8400  0.00  0.00     0.000 O
ATOM     11  HD  IDS C   1      37.995 -29.875  23.5670  0.00  0.00     0.000 HD
ENDROOT
BRANCH 2 11
ATOM     11   O  IDS C   1      36.852 -28.003  20.7230  0.00  0.00     0.000 O
ATOM     12   S  IDS C   1      35.968 -26.672  20.7590  0.00  0.00     0.000 S
ATOM     13   O  IDS C   1      36.421 -26.037  21.9770  0.00  0.00     0.000 OA
ATOM     14   O  IDS C   1      34.570 -27.027  20.7950  0.00  0.00     0.000 OA
ATOM     15   O  IDS C   1      36.342 -25.956  19.5650  0.00  0.00     0.000 OA
ENDBRANCH 2 11
BRANCH 5 16
ATOM     16   C  IDS C   1      39.391 -31.679  21.8750  0.00  0.00     0.000 C
ATOM     17   O  IDS C   1      39.619 -32.863  22.0090  0.00  0.00     0.000 OA
ATOM     18   O  IDS C   1      40.160 -30.862  22.3000  0.00  0.00     0.000 OA
ENDBRANCH 5 16
BRANCH 1 19
ATOM     19  O4  SGN C   2      36.950 -30.899  18.4570  0.00  0.00     0.000 O
BRANCH 19 23
ATOM     20  C1  SGN C   2      38.099 -33.024  15.0520  0.00  0.00     0.000 C
ATOM     21  C2  SGN C   2      38.462 -33.649  16.4040  0.00  0.00     0.000 C
ATOM     22  C3  SGN C   2      37.622 -33.013  17.5090  0.00  0.00     0.000 C
ATOM     23  C4  SGN C   2      37.828 -31.503  17.5050  0.00  0.00     0.000 C
ATOM     24  C5  SGN C   2      37.536 -30.942  16.1100  0.00  0.00     0.000 C
ATOM     25  O5  SGN C   2      38.338 -31.628  15.1310  0.00  0.00     0.000 O
ATOM     26   O  SGN C   2      37.957 -33.571  18.7740  0.00  0.00     0.000 O
ATOM     28  HD  SGN C   2      38.171 -34.009  19.4910  0.00  0.00     0.000 HD
BRANCH 21 30
ATOM     28   N  SGN C   2      38.482 -35.096  16.6570  0.00  0.00     0.000 N
ATOM     30  HD  SGN C   2      38.976 -35.387  17.3070  0.00  0.00     0.000 HD
ATOM     30   S  SGN C   2      39.614 -36.033  16.0240  0.00  0.00     0.000 S
ATOM     31   O  SGN C   2      40.851 -35.440  16.4060  0.00  0.00     0.000 OA
ATOM     32   O  SGN C   2      39.335 -37.375  16.3760  0.00  0.00     0.000 OA
ATOM     33   O  SGN C   2      39.389 -35.908  14.4780  0.00  0.00     0.000 OA
ENDBRANCH 21 30
BRANCH 24 34
ATOM     34   C  SGN C   2      37.855 -29.472  15.9690  0.00  0.00     0.000 C
ATOM     35   O  SGN C   2      39.233 -29.257  16.3210  0.00  0.00     0.000 O
ATOM     36   S  SGN C   2      39.661 -27.766  16.7000  0.00  0.00     0.000 S
ATOM     37   O  SGN C   2      38.737 -27.372  17.7450  0.00  0.00     0.000 OA
ATOM     38   O  SGN C   2      41.030 -27.856  17.1470  0.00  0.00     0.000 OA
ATOM     39   O  SGN C   2      39.498 -27.033  15.4680  0.00  0.00     0.000 OA
ENDBRANCH 24 34
BRANCH 20 40
ATOM     40  O4  IDS C   3      36.869 -33.232  14.5890  0.00  0.00     0.000 O
BRANCH 40 44
ATOM     41  C1  IDS C   3      34.344 -35.047  12.9280  0.00  0.00     0.000 C
ATOM     42  C2  IDS C   3      35.778 -35.564  13.0070  0.00  0.00     0.000 C
ATOM     43  C3  IDS C   3      36.756 -34.491  12.5320  0.00  0.00     0.000 C
ATOM     44  C4  IDS C   3      36.497 -33.155  13.2100  0.00  0.00     0.000 C
ATOM     45  C5  IDS C   3      35.003 -32.786  13.0940  0.00  0.00     0.000 C
ATOM     46  O5  IDS C   3      34.210 -33.831  13.6600  0.00  0.00     0.000 O
ATOM     47   O  IDS C   3      36.650 -34.347  11.1180  0.00  0.00     0.000 O
ATOM     49  HD  IDS C   3      36.907 -34.769  11.8290  0.00  0.00     0.000 HD
BRANCH 42 49
ATOM     49   O  IDS C   3      36.114 -35.926  14.4030  0.00  0.00     0.000 O
ATOM     50   S  IDS C   3      35.839 -37.416  14.9250  0.00  0.00     0.000 S
ATOM     51   O  IDS C   3      36.851 -38.197  14.2490  0.00  0.00     0.000 OA
ATOM     52   O  IDS C   3      34.490 -37.814  14.5590  0.00  0.00     0.000 OA
ATOM     53   O  IDS C   3      36.023 -37.375  16.3600  0.00  0.00     0.000 OA
ENDBRANCH 42 49
BRANCH 45 54
ATOM     54   C  IDS C   3      34.650 -31.477  13.7830  0.00  0.00     0.000 C
ATOM     55   O  IDS C   3      33.885 -31.480  14.7120  0.00  0.00     0.000 OA
ATOM     56   O  IDS C   3      35.127 -30.433  13.3830  0.00  0.00     0.000 OA
ENDBRANCH 45 54
BRANCH 41 57
ATOM     57  O4  SGN C   4      33.967 -35.132  11.6470  0.00  0.00     0.000 O
BRANCH 57 61
ATOM     58  C1  SGN C   4      30.315 -34.877   9.6160  0.00  0.00     0.000 C
ATOM     59  C2  SGN C   4      30.420 -34.116  10.9470  0.00  0.00     0.000 C
ATOM     60  C3  SGN C   4      31.884 -33.945  11.3740  0.00  0.00     0.000 C
ATOM     61  C4  SGN C   4      32.568 -35.302  11.3990  0.00  0.00     0.000 C
ATOM     62  C5  SGN C   4      32.398 -36.012  10.0570  0.00  0.00     0.000 C
ATOM     63  O5  SGN C   4      31.004 -36.115   9.7100  0.00  0.00     0.000 O
BRANCH 59 66
ATOM     64   N  SGN C   4      29.685 -32.855  10.8020  0.00  0.00     0.000 N
ATOM     66  HD  SGN C   4      30.188 -33.495  11.0990  0.00  0.00     0.000 HD
ATOM     66   O  SGN C   4      27.875 -31.308  11.3190  0.00  0.00     0.000 OA
ATOM     67   O  SGN C   4      27.417 -33.717  11.1400  0.00  0.00     0.000 OA
ATOM     68   S  SGN C   4      28.368 -32.594  11.6810  0.00  0.00     0.000 S
ATOM     69   O  SGN C   4      28.676 -32.864  13.0390  0.00  0.00     0.000 OA
ENDBRANCH 59 66
BRANCH 62 70
ATOM     70   C  SGN C   4      32.951 -37.415  10.0990  0.00  0.00     0.000 C
ATOM     71   S  SGN C   4      33.160 -39.500  11.5750  0.00  0.00     0.000 S
ATOM     72   O  SGN C   4      32.788 -40.323  10.4400  0.00  0.00     0.000 OA
ATOM     73   O  SGN C   4      34.587 -39.272  11.6750  0.00  0.00     0.000 OA
ATOM     74   O  SGN C   4      32.548 -39.917  12.8150  0.00  0.00     0.000 OA
ATOM     75   O  SGN C   4      32.501 -38.085  11.2820  0.00  0.00     0.000 O
ENDBRANCH 62 70
ENDBRANCH 57 61
ENDBRANCH 41 57
ENDBRANCH 40 44
ENDBRANCH 20 40
ENDBRANCH 19 23
ENDBRANCH 1 19
TORSDOF 14
ENDMDL
MODEL 44
REMARK VINA RESULT:      -6.3     25.002     28.081
ROOT
ATOM      1  C1  IDS C   1      15.818 -13.335  42.3140  0.00  0.00     0.000 C
ATOM      2  C2  IDS C   1      15.558 -14.040  40.9940  0.00  0.00     0.000 C
ATOM      3  C3  IDS C   1      16.567 -15.160  40.7720  0.00  0.00     0.000 C
ATOM      4  C4  IDS C   1      16.640 -16.086  41.9870  0.00  0.00     0.000 C
ATOM      5  C5  IDS C   1      16.810 -15.259  43.2770  0.00  0.00     0.000 C
ATOM      6  O5  IDS C   1      15.781 -14.281  43.3820  0.00  0.00     0.000 O
ATOM      7   O  IDS C   1      17.850 -14.598  40.4930  0.00  0.00     0.000 O
ATOM      9  HD  IDS C   1      18.080 -15.360  40.8350  0.00  0.00     0.000 HD
ATOM      9   O  IDS C   1      15.427 -16.849  42.0660  0.00  0.00     0.000 O
ATOM     11  HD  IDS C   1      15.657 -17.611  42.4080  0.00  0.00     0.000 HD
ENDROOT
BRANCH 2 11
ATOM     11   O  IDS C   1      14.207 -14.644  40.9950  0.00  0.00     0.000 O
ATOM     12   S  IDS C   1      12.908 -13.732  40.8170  0.00  0.00     0.000 S
ATOM     13   O  IDS C   1      12.024 -14.599  40.0700  0.00  0.00     0.000 OA
ATOM     14   O  IDS C   1      13.261 -12.532  40.0970  0.00  0.00     0.000 OA
ATOM     15   O  IDS C   1      12.458 -13.475  42.1620  0.00  0.00     0.000 OA
ENDBRANCH 2 11
BRANCH 5 16
ATOM     16   C  IDS C   1      16.776 -16.103  44.5390  0.00  0.00     0.000 C
ATOM     17   O  IDS C   1      15.961 -16.998  44.6210  0.00  0.00     0.000 OA
ATOM     18   O  IDS C   1      17.528 -15.882  45.4470  0.00  0.00     0.000 OA
ENDBRANCH 5 16
BRANCH 1 19
ATOM     19  O4  SGN C   2      16.787 -12.417  42.3800  0.00  0.00     0.000 O
BRANCH 19 23
ATOM     20  C1  SGN C   2      18.288  -9.179  44.5440  0.00  0.00     0.000 C
ATOM     21  C2  SGN C   2      18.545 -10.572  45.1300  0.00  0.00     0.000 C
ATOM     22  C3  SGN C   2      18.339 -11.632  44.0500  0.00  0.00     0.000 C
ATOM     23  C4  SGN C   2      16.935 -11.507  43.4710  0.00  0.00     0.000 C
ATOM     24  C5  SGN C   2      16.700 -10.076  42.9810  0.00  0.00     0.000 C
ATOM     25  O5  SGN C   2      16.960  -9.146  44.0480  0.00  0.00     0.000 O
ATOM     26   O  SGN C   2      18.559 -12.933  44.5810  0.00  0.00     0.000 O
ATOM     28  HD  SGN C   2      18.776 -13.680  44.9630  0.00  0.00     0.000 HD
BRANCH 21 30
ATOM     28   N  SGN C   2      19.247  -9.727  46.1060  0.00  0.00     0.000 N
ATOM     30  HD  SGN C   2      20.089  -9.574  45.9780  0.00  0.00     0.000 HD
ATOM     30   S  SGN C   2      20.048 -10.369  47.3340  0.00  0.00     0.000 S
ATOM     31   O  SGN C   2      20.944 -11.308  46.7490  0.00  0.00     0.000 OA
ATOM     32   O  SGN C   2      20.550  -9.319  48.1390  0.00  0.00     0.000 OA
ATOM     33   O  SGN C   2      18.942 -11.098  48.1690  0.00  0.00     0.000 OA
ENDBRANCH 21 30
BRANCH 24 34
ATOM     34   C  SGN C   2      15.284  -9.815  42.5230  0.00  0.00     0.000 C
ATOM     35   O  SGN C   2      15.079  -8.395  42.4230  0.00  0.00     0.000 O
ATOM     36   S  SGN C   2      13.568  -7.879  42.4220  0.00  0.00     0.000 S
ATOM     37   O  SGN C   2      12.981  -8.457  43.6150  0.00  0.00     0.000 OA
ATOM     38   O  SGN C   2      13.649  -6.439  42.4630  0.00  0.00     0.000 OA
ATOM     39   O  SGN C   2      13.023  -8.397  41.1910  0.00  0.00     0.000 OA
ENDBRANCH 24 34
BRANCH 20 40
ATOM     40  O4  IDS C   3      19.119  -8.745  43.6000  0.00  0.00     0.000 O
BRANCH 40 44
ATOM     41  C1  IDS C   3      22.107  -7.606  42.1160  0.00  0.00     0.000 C
ATOM     42  C2  IDS C   3      22.035  -7.954  43.6000  0.00  0.00     0.000 C
ATOM     43  C3  IDS C   3      20.871  -7.221  44.2610  0.00  0.00     0.000 C
ATOM     44  C4  IDS C   3      19.578  -7.397  43.4790  0.00  0.00     0.000 C
ATOM     45  C5  IDS C   3      19.814  -7.058  41.9920  0.00  0.00     0.000 C
ATOM     46  O5  IDS C   3      20.863  -7.880  41.4770  0.00  0.00     0.000 O
ATOM     47   O  IDS C   3      21.186  -5.836  44.3740  0.00  0.00     0.000 O
ATOM     49  HD  IDS C   3      21.266  -6.664  44.6170  0.00  0.00     0.000 HD
BRANCH 42 49
ATOM     49   O  IDS C   3      21.837  -9.412  43.7720  0.00  0.00     0.000 O
ATOM     50   S  IDS C   3      23.111 -10.376  43.9010  0.00  0.00     0.000 S
ATOM     51   O  IDS C   3      23.628 -10.071  45.2170  0.00  0.00     0.000 OA
ATOM     52   O  IDS C   3      24.059 -10.068  42.8440  0.00  0.00     0.000 OA
ATOM     53   O  IDS C   3      22.599 -11.726  43.7960  0.00  0.00     0.000 OA
ENDBRANCH 42 49
BRANCH 45 54
ATOM     54   C  IDS C   3      18.577  -7.245  41.1290  0.00  0.00     0.000 C
ATOM     55   O  IDS C   3      17.533  -6.748  41.4650  0.00  0.00     0.000 OA
ATOM     56   O  IDS C   3      18.641  -7.910  40.1130  0.00  0.00     0.000 OA
ENDBRANCH 45 54
BRANCH 41 57
ATOM     57  O4  SGN C   4      22.685  -6.402  42.0230  0.00  0.00     0.000 O
BRANCH 57 61
ATOM     58  C1  SGN C   4      23.505  -3.550  39.0710  0.00  0.00     0.000 C
ATOM     59  C2  SGN C   4      22.026  -3.772  39.4250  0.00  0.00     0.000 C
ATOM     60  C3  SGN C   4      21.881  -4.507  40.7650  0.00  0.00     0.000 C
ATOM     61  C4  SGN C   4      22.693  -5.791  40.7290  0.00  0.00     0.000 C
ATOM     62  C5  SGN C   4      24.142  -5.499  40.3430  0.00  0.00     0.000 C
ATOM     63  O5  SGN C   4      24.200  -4.788  39.0910  0.00  0.00     0.000 O
BRANCH 59 66
ATOM     64   N  SGN C   4      21.444  -2.435  39.2690  0.00  0.00     0.000 N
ATOM     66  HD  SGN C   4      21.602  -3.248  39.5200  0.00  0.00     0.000 HD
ATOM     66   O  SGN C   4      19.763  -0.862  38.4720  0.00  0.00     0.000 OA
ATOM     67   O  SGN C   4      20.499  -2.709  37.0260  0.00  0.00     0.000 OA
ATOM     68   S  SGN C   4      20.069  -2.253  38.4630  0.00  0.00     0.000 S
ATOM     69   O  SGN C   4      19.123  -3.177  38.9760  0.00  0.00     0.000 OA
ENDBRANCH 59 66
BRANCH 62 70
ATOM     70   C  SGN C   4      24.936  -6.769  40.1700  0.00  0.00     0.000 C
ATOM     71   S  SGN C   4      25.680  -8.511  38.4420  0.00  0.00     0.000 S
ATOM     72   O  SGN C   4      27.023  -8.454  38.9850  0.00  0.00     0.000 OA
ATOM     73   O  SGN C   4      24.840  -9.497  39.0920  0.00  0.00     0.000 OA
ATOM     74   O  SGN C   4      25.642  -8.573  36.9990  0.00  0.00     0.000 OA
ATOM     75   O  SGN C   4      25.047  -7.094  38.7790  0.00  0.00     0.000 O
ENDBRANCH 62 70
ENDBRANCH 57 61
ENDBRANCH 41 57
ENDBRANCH 40 44
ENDBRANCH 20 40
ENDBRANCH 19 23
ENDBRANCH 1 19
TORSDOF 14
ENDMDL
MODEL 45
REMARK VINA RESULT:      -6.3     28.607     34.313
ROOT
ATOM      1  C1  IDS C   1      -2.072  -7.205  17.3220  0.00  0.00     0.000 C
ATOM      2  C2  IDS C   1      -2.306  -8.032  16.0700  0.00  0.00     0.000 C
ATOM      3  C3  IDS C   1      -2.322  -9.519  16.4000  0.00  0.00     0.000 C
ATOM      4  C4  IDS C   1      -3.282  -9.819  17.5510  0.00  0.00     0.000 C
ATOM      5  C5  IDS C   1      -3.016  -8.861  18.7300  0.00  0.00     0.000 C
ATOM      6  O5  IDS C   1      -3.073  -7.507  18.2940  0.00  0.00     0.000 O
ATOM      7   O  IDS C   1      -1.000  -9.950  16.7260  0.00  0.00     0.000 O
ATOM      9  HD  IDS C   1      -1.470 -10.525  17.1710  0.00  0.00     0.000 HD
ATOM      9   O  IDS C   1      -4.631  -9.646  17.0920  0.00  0.00     0.000 O
ATOM     11  HD  IDS C   1      -5.101 -10.221  17.5370  0.00  0.00     0.000 HD
ENDROOT
BRANCH 2 11
ATOM     11   O  IDS C   1      -3.614  -7.690  15.4690  0.00  0.00     0.000 O
ATOM     12   S  IDS C   1      -3.818  -7.733  13.8850  0.00  0.00     0.000 S
ATOM     13   O  IDS C   1      -5.191  -8.173  13.7650  0.00  0.00     0.000 OA
ATOM     14   O  IDS C   1      -2.876  -8.661  13.3070  0.00  0.00     0.000 OA
ATOM     15   O  IDS C   1      -3.611  -6.373  13.4550  0.00  0.00     0.000 OA
ENDBRANCH 2 11
BRANCH 5 16
ATOM     16   C  IDS C   1      -4.007  -9.022  19.8680  0.00  0.00     0.000 C
ATOM     17   O  IDS C   1      -4.568 -10.088  20.0090  0.00  0.00     0.000 OA
ATOM     18   O  IDS C   1      -4.248  -8.108  20.6090  0.00  0.00     0.000 OA
ENDBRANCH 5 16
BRANCH 1 19
ATOM     19  O4  SGN C   2      -0.827  -7.072  17.7890  0.00  0.00     0.000 O
BRANCH 19 23
ATOM     20  C1  SGN C   2       2.022  -4.385  19.2360  0.00  0.00     0.000 C
ATOM     21  C2  SGN C   2       0.850  -4.711  20.1700  0.00  0.00     0.000 C
ATOM     22  C3  SGN C   2       0.160  -5.991  19.7060  0.00  0.00     0.000 C
ATOM     23  C4  SGN C   2      -0.291  -5.833  18.2580  0.00  0.00     0.000 C
ATOM     24  C5  SGN C   2       0.897  -5.424  17.3850  0.00  0.00     0.000 C
ATOM     25  O5  SGN C   2       1.511  -4.238  17.9210  0.00  0.00     0.000 O
ATOM     26   O  SGN C   2      -0.940  -6.299  20.5540  0.00  0.00     0.000 O
ATOM     28  HD  SGN C   2      -1.545  -6.452  21.1540  0.00  0.00     0.000 HD
BRANCH 21 30
ATOM     28   N  SGN C   2       0.517  -4.597  21.5960  0.00  0.00     0.000 N
ATOM     30  HD  SGN C   2      -0.102  -4.037  21.8250  0.00  0.00     0.000 HD
ATOM     30   S  SGN C   2       1.193  -3.479  22.5200  0.00  0.00     0.000 S
ATOM     31   O  SGN C   2       0.956  -2.244  21.8500  0.00  0.00     0.000 OA
ATOM     32   O  SGN C   2       0.740  -3.660  23.8490  0.00  0.00     0.000 OA
ATOM     33   O  SGN C   2       2.717  -3.840  22.5010  0.00  0.00     0.000 OA
ENDBRANCH 21 30
BRANCH 24 34
ATOM     34   C  SGN C   2       0.519  -5.100  15.9580  0.00  0.00     0.000 C
ATOM     35   O  SGN C   2       0.681  -6.281  15.1530  0.00  0.00     0.000 O
ATOM     36   S  SGN C   2       0.800  -6.071  13.5750  0.00  0.00     0.000 S
ATOM     37   O  SGN C   2       1.878  -5.116  13.4100  0.00  0.00     0.000 OA
ATOM     38   O  SGN C   2       1.099  -7.374  13.0300  0.00  0.00     0.000 OA
ATOM     39   O  SGN C   2      -0.495  -5.564  13.1920  0.00  0.00     0.000 OA
ENDBRANCH 24 34
BRANCH 20 40
ATOM     40  O4  IDS C   3       3.046  -5.234  19.2150  0.00  0.00     0.000 O
BRANCH 40 44
ATOM     41  C1  IDS C   3       5.891  -7.276  19.6220  0.00  0.00     0.000 C
ATOM     42  C2  IDS C   3       5.255  -6.550  20.8030  0.00  0.00     0.000 C
ATOM     43  C3  IDS C   3       5.090  -5.065  20.4880  0.00  0.00     0.000 C
ATOM     44  C4  IDS C   3       4.420  -4.846  19.1410  0.00  0.00     0.000 C
ATOM     45  C5  IDS C   3       5.138  -5.677  18.0560  0.00  0.00     0.000 C
ATOM     46  O5  IDS C   3       5.136  -7.056  18.4330  0.00  0.00     0.000 O
ATOM     47   O  IDS C   3       6.368  -4.434  20.5030  0.00  0.00     0.000 O
ATOM     49  HD  IDS C   3       5.683  -4.789  20.8960  0.00  0.00     0.000 HD
BRANCH 42 49
ATOM     49   O  IDS C   3       3.920  -7.123  21.0940  0.00  0.00     0.000 O
ATOM     50   S  IDS C   3       3.798  -8.403  22.0500  0.00  0.00     0.000 S
ATOM     51   O  IDS C   3       4.095  -7.871  23.3610  0.00  0.00     0.000 OA
ATOM     52   O  IDS C   3       4.754  -9.414  21.6280  0.00  0.00     0.000 OA
ATOM     53   O  IDS C   3       2.431  -8.863  21.9250  0.00  0.00     0.000 OA
ENDBRANCH 42 49
BRANCH 45 54
ATOM     54   C  IDS C   3       4.505  -5.546  16.6800  0.00  0.00     0.000 C
ATOM     55   O  IDS C   3       4.054  -6.521  16.1360  0.00  0.00     0.000 OA
ATOM     56   O  IDS C   3       4.471  -4.464  16.1280  0.00  0.00     0.000 OA
ENDBRANCH 45 54
BRANCH 41 57
ATOM     57  O4  SGN C   4       7.205  -7.021  19.6670  0.00  0.00     0.000 O
BRANCH 57 61
ATOM     58  C1  SGN C   4      10.408  -9.004  17.8400  0.00  0.00     0.000 C
ATOM     59  C2  SGN C   4       8.994  -9.464  17.4460  0.00  0.00     0.000 C
ATOM     60  C3  SGN C   4       7.941  -8.422  17.8460  0.00  0.00     0.000 C
ATOM     61  C4  SGN C   4       8.080  -8.100  19.3240  0.00  0.00     0.000 C
ATOM     62  C5  SGN C   4       9.513  -7.679  19.6480  0.00  0.00     0.000 C
ATOM     63  O5  SGN C   4      10.447  -8.691  19.2240  0.00  0.00     0.000 O
BRANCH 59 66
ATOM     64   N  SGN C   4       8.770  -9.808  16.0380  0.00  0.00     0.000 N
ATOM     66  HD  SGN C   4       8.709  -9.753  16.9010  0.00  0.00     0.000 HD
ATOM     66   O  SGN C   4       8.847 -11.299  14.1140  0.00  0.00     0.000 OA
ATOM     67   O  SGN C   4      10.725 -11.245  15.6990  0.00  0.00     0.000 OA
ATOM     68   S  SGN C   4       9.170 -11.266  15.5000  0.00  0.00     0.000 S
ATOM     69   O  SGN C   4       8.606 -12.234  16.3690  0.00  0.00     0.000 OA
ENDBRANCH 59 66
BRANCH 62 70
ATOM     70   C  SGN C   4       9.712  -7.483  21.1300  0.00  0.00     0.000 C
ATOM     71   S  SGN C   4       9.697  -5.721  22.9920  0.00  0.00     0.000 S
ATOM     72   O  SGN C   4       8.927  -6.627  23.8230  0.00  0.00     0.000 OA
ATOM     73   O  SGN C   4      11.129  -5.883  23.1400  0.00  0.00     0.000 OA
ATOM     74   O  SGN C   4       9.254  -4.348  23.0710  0.00  0.00     0.000 OA
ATOM     75   O  SGN C   4       9.352  -6.147  21.5020  0.00  0.00     0.000 O
ENDBRANCH 62 70
ENDBRANCH 57 61
ENDBRANCH 41 57
ENDBRANCH 40 44
ENDBRANCH 20 40
ENDBRANCH 19 23
ENDBRANCH 1 19
TORSDOF 14
ENDMDL
MODEL 46
REMARK VINA RESULT:      -6.2     27.973     32.212
ROOT
ATOM      1  C1  IDS C   1      34.295 -60.064  25.5000  0.00  0.00     0.000 C
ATOM      2  C2  IDS C   1      33.587 -61.387  25.2690  0.00  0.00     0.000 C
ATOM      3  C3  IDS C   1      32.326 -61.480  26.1180  0.00  0.00     0.000 C
ATOM      4  C4  IDS C   1      31.445 -60.244  25.9370  0.00  0.00     0.000 C
ATOM      5  C5  IDS C   1      32.286 -58.962  26.1010  0.00  0.00     0.000 C
ATOM      6  O5  IDS C   1      33.405 -58.984  25.2210  0.00  0.00     0.000 O
ATOM      7   O  IDS C   1      32.686 -61.640  27.4910  0.00  0.00     0.000 O
ATOM      9  HD  IDS C   1      31.913 -61.260  27.5720  0.00  0.00     0.000 HD
ATOM      9   O  IDS C   1      30.868 -60.270  24.6220  0.00  0.00     0.000 O
ATOM     11  HD  IDS C   1      30.094 -59.890  24.7030  0.00  0.00     0.000 HD
ENDROOT
BRANCH 2 11
ATOM     11   O  IDS C   1      33.184 -61.509  23.8500  0.00  0.00     0.000 O
ATOM     12   S  IDS C   1      34.141 -62.230  22.7920  0.00  0.00     0.000 S
ATOM     13   O  IDS C   1      33.192 -62.867  21.9060  0.00  0.00     0.000 OA
ATOM     14   O  IDS C   1      34.990 -63.172  23.4790  0.00  0.00     0.000 OA
ATOM     15   O  IDS C   1      34.872 -61.153  22.1710  0.00  0.00     0.000 OA
ENDBRANCH 2 11
BRANCH 5 16
ATOM     16   C  IDS C   1      31.503 -57.692  25.8210  0.00  0.00     0.000 C
ATOM     17   O  IDS C   1      31.526 -57.226  24.7010  0.00  0.00     0.000 OA
ATOM     18   O  IDS C   1      30.885 -57.145  26.6920  0.00  0.00     0.000 OA
ENDBRANCH 5 16
BRANCH 1 19
ATOM     19  O4  SGN C   2      35.066 -59.921  26.5830  0.00  0.00     0.000 O
BRANCH 19 23
ATOM     20  C1  SGN C   2      37.986 -57.558  28.4050  0.00  0.00     0.000 C
ATOM     21  C2  SGN C   2      36.540 -57.058  28.5040  0.00  0.00     0.000 C
ATOM     22  C3  SGN C   2      35.576 -58.201  28.1950  0.00  0.00     0.000 C
ATOM     23  C4  SGN C   2      35.887 -58.776  26.8180  0.00  0.00     0.000 C
ATOM     24  C5  SGN C   2      37.363 -59.178  26.7440  0.00  0.00     0.000 C
ATOM     25  O5  SGN C   2      38.193 -58.056  27.0930  0.00  0.00     0.000 O
ATOM     26   O  SGN C   2      34.229 -57.750  28.2680  0.00  0.00     0.000 O
ATOM     28  HD  SGN C   2      33.441 -57.414  28.4000  0.00  0.00     0.000 HD
BRANCH 21 30
ATOM     28   N  SGN C   2      35.783 -56.166  29.3930  0.00  0.00     0.000 N
ATOM     30  HD  SGN C   2      35.381 -55.486  29.0390  0.00  0.00     0.000 HD
ATOM     30   S  SGN C   2      36.446 -54.842  29.9990  0.00  0.00     0.000 S
ATOM     31   O  SGN C   2      36.945 -54.123  28.8750  0.00  0.00     0.000 OA
ATOM     32   O  SGN C   2      35.513 -54.231  30.8710  0.00  0.00     0.000 OA
ATOM     33   O  SGN C   2      37.621 -55.376  30.8860  0.00  0.00     0.000 OA
ENDBRANCH 21 30
BRANCH 24 34
ATOM     34   C  SGN C   2      37.802 -59.623  25.3690  0.00  0.00     0.000 C
ATOM     35   O  SGN C   2      38.510 -58.544  24.7330  0.00  0.00     0.000 O
ATOM     36   S  SGN C   2      38.648 -58.605  23.1440  0.00  0.00     0.000 S
ATOM     37   O  SGN C   2      37.290 -58.760  22.6610  0.00  0.00     0.000 OA
ATOM     38   O  SGN C   2      39.256 -57.354  22.7580  0.00  0.00     0.000 OA
ATOM     39   O  SGN C   2      39.487 -59.755  22.9110  0.00  0.00     0.000 OA
ENDBRANCH 24 34
BRANCH 20 40
ATOM     40  O4  IDS C   3      38.383 -58.472  29.2870  0.00  0.00     0.000 O
BRANCH 40 44
ATOM     41  C1  IDS C   3      39.514 -60.608  31.8540  0.00  0.00     0.000 C
ATOM     42  C2  IDS C   3      38.898 -59.246  32.1620  0.00  0.00     0.000 C
ATOM     43  C3  IDS C   3      39.592 -58.154  31.3520  0.00  0.00     0.000 C
ATOM     44  C4  IDS C   3      39.684 -58.518  29.8780  0.00  0.00     0.000 C
ATOM     45  C5  IDS C   3      40.277 -59.934  29.7230  0.00  0.00     0.000 C
ATOM     46  O5  IDS C   3      39.477 -60.868  30.4530  0.00  0.00     0.000 O
ATOM     47   O  IDS C   3      40.897 -57.930  31.8800  0.00  0.00     0.000 O
ATOM     49  HD  IDS C   3      40.035 -57.855  31.9080  0.00  0.00     0.000 HD
BRANCH 42 49
ATOM     49   O  IDS C   3      37.457 -59.249  31.8170  0.00  0.00     0.000 O
ATOM     50   S  IDS C   3      36.362 -59.261  32.9860  0.00  0.00     0.000 S
ATOM     51   O  IDS C   3      36.450 -57.927  33.5390  0.00  0.00     0.000 OA
ATOM     52   O  IDS C   3      36.700 -60.290  33.9550  0.00  0.00     0.000 OA
ATOM     53   O  IDS C   3      35.093 -59.520  32.3400  0.00  0.00     0.000 OA
ENDBRANCH 42 49
BRANCH 45 54
ATOM     54   C  IDS C   3      40.367 -60.394  28.2770  0.00  0.00     0.000 C
ATOM     55   O  IDS C   3      41.000 -59.746  27.4830  0.00  0.00     0.000 OA
ATOM     56   O  IDS C   3      39.787 -61.402  27.9230  0.00  0.00     0.000 OA
ENDBRANCH 45 54
BRANCH 41 57
ATOM     57  O4  SGN C   4      40.657 -60.686  32.5450  0.00  0.00     0.000 O
BRANCH 57 61
ATOM     58  C1  SGN C   4      43.556 -63.571  33.4390  0.00  0.00     0.000 C
ATOM     59  C2  SGN C   4      43.204 -63.382  31.9550  0.00  0.00     0.000 C
ATOM     60  C3  SGN C   4      42.466 -62.056  31.7250  0.00  0.00     0.000 C
ATOM     61  C4  SGN C   4      41.260 -61.980  32.6450  0.00  0.00     0.000 C
ATOM     62  C5  SGN C   4      41.679 -62.206  34.0970  0.00  0.00     0.000 C
ATOM     63  O5  SGN C   4      42.385 -63.454  34.2340  0.00  0.00     0.000 O
BRANCH 59 66
ATOM     64   N  SGN C   4      44.236 -64.189  31.2950  0.00  0.00     0.000 N
ATOM     66  HD  SGN C   4      43.823 -63.583  31.7550  0.00  0.00     0.000 HD
ATOM     66   O  SGN C   4      45.895 -64.628  29.5660  0.00  0.00     0.000 OA
ATOM     67   O  SGN C   4      43.758 -63.565  28.9760  0.00  0.00     0.000 OA
ATOM     68   S  SGN C   4      44.962 -63.634  29.9770  0.00  0.00     0.000 S
ATOM     69   O  SGN C   4      45.420 -62.317  30.2400  0.00  0.00     0.000 OA
ENDBRANCH 59 66
BRANCH 62 70
ATOM     70   C  SGN C   4      40.484 -62.269  35.0150  0.00  0.00     0.000 C
ATOM     71   S  SGN C   4      38.739 -63.859  36.0140  0.00  0.00     0.000 S
ATOM     72   O  SGN C   4      38.951 -63.253  37.3140  0.00  0.00     0.000 OA
ATOM     73   O  SGN C   4      37.710 -63.201  35.2350  0.00  0.00     0.000 OA
ATOM     74   O  SGN C   4      38.603 -65.297  36.0630  0.00  0.00     0.000 OA
ATOM     75   O  SGN C   4      40.103 -63.633  35.2340  0.00  0.00     0.000 O
ENDBRANCH 62 70
ENDBRANCH 57 61
ENDBRANCH 41 57
ENDBRANCH 40 44
ENDBRANCH 20 40
ENDBRANCH 19 23
ENDBRANCH 1 19
TORSDOF 14
ENDMDL
MODEL 47
REMARK VINA RESULT:      -6.2     20.282     27.909
ROOT
ATOM      1  C1  IDS C   1      39.013 -41.486  40.1290  0.00  0.00     0.000 C
ATOM      2  C2  IDS C   1      39.523 -40.836  38.8550  0.00  0.00     0.000 C
ATOM      3  C3  IDS C   1      39.687 -41.871  37.7490  0.00  0.00     0.000 C
ATOM      4  C4  IDS C   1      38.416 -42.702  37.5780  0.00  0.00     0.000 C
ATOM      5  C5  IDS C   1      37.937 -43.233  38.9440  0.00  0.00     0.000 C
ATOM      6  O5  IDS C   1      37.784 -42.161  39.8690  0.00  0.00     0.000 O
ATOM      7   O  IDS C   1      40.800 -42.715  38.0470  0.00  0.00     0.000 O
ATOM      9  HD  IDS C   1      40.321 -43.248  37.5630  0.00  0.00     0.000 HD
ATOM      9   O  IDS C   1      37.391 -41.877  37.0030  0.00  0.00     0.000 O
ATOM     11  HD  IDS C   1      36.912 -42.410  36.5180  0.00  0.00     0.000 HD
ENDROOT
BRANCH 2 11
ATOM     11   O  IDS C   1      38.558 -39.819  38.3800  0.00  0.00     0.000 O
ATOM     12   S  IDS C   1      38.394 -38.430  39.1530  0.00  0.00     0.000 S
ATOM     13   O  IDS C   1      38.116 -37.509  38.0730  0.00  0.00     0.000 OA
ATOM     14   O  IDS C   1      39.618 -38.124  39.8540  0.00  0.00     0.000 OA
ATOM     15   O  IDS C   1      37.271 -38.636  40.0340  0.00  0.00     0.000 OA
ENDBRANCH 2 11
BRANCH 5 16
ATOM     16   C  IDS C   1      36.614 -43.973  38.8710  0.00  0.00     0.000 C
ATOM     17   O  IDS C   1      35.702 -43.479  38.2440  0.00  0.00     0.000 OA
ATOM     18   O  IDS C   1      36.464 -45.022  39.4340  0.00  0.00     0.000 OA
ENDBRANCH 5 16
BRANCH 1 19
ATOM     19  O4  SGN C   2      39.877 -42.130  40.9200  0.00  0.00     0.000 O
BRANCH 19 23
ATOM     20  C1  SGN C   2      40.955 -42.963  44.8660  0.00  0.00     0.000 C
ATOM     21  C2  SGN C   2      39.646 -43.586  44.3670  0.00  0.00     0.000 C
ATOM     22  C3  SGN C   2      39.612 -43.564  42.8410  0.00  0.00     0.000 C
ATOM     23  C4  SGN C   2      39.788 -42.133  42.3450  0.00  0.00     0.000 C
ATOM     24  C5  SGN C   2      41.062 -41.529  42.9420  0.00  0.00     0.000 C
ATOM     25  O5  SGN C   2      41.027 -41.633  44.3760  0.00  0.00     0.000 O
ATOM     26   O  SGN C   2      38.396 -44.125  42.3610  0.00  0.00     0.000 O
ATOM     28  HD  SGN C   2      37.666 -44.541  42.1520  0.00  0.00     0.000 HD
BRANCH 21 30
ATOM     28   N  SGN C   2      39.253 -44.925  44.8260  0.00  0.00     0.000 N
ATOM     30  HD  SGN C   2      38.431 -45.170  44.7080  0.00  0.00     0.000 HD
ATOM     30   S  SGN C   2      38.601 -45.149  46.2700  0.00  0.00     0.000 S
ATOM     31   O  SGN C   2      37.493 -44.255  46.3250  0.00  0.00     0.000 OA
ATOM     32   O  SGN C   2      38.400 -46.537  46.4630  0.00  0.00     0.000 OA
ATOM     33   O  SGN C   2      39.725 -44.705  47.2680  0.00  0.00     0.000 OA
ENDBRANCH 21 30
BRANCH 24 34
ATOM     34   C  SGN C   2      41.244 -40.063  42.6250  0.00  0.00     0.000 C
ATOM     35   O  SGN C   2      41.973 -39.440  43.6980  0.00  0.00     0.000 O
ATOM     36   S  SGN C   2      41.873 -37.851  43.8160  0.00  0.00     0.000 S
ATOM     37   O  SGN C   2      40.450 -37.573  43.8560  0.00  0.00     0.000 OA
ATOM     38   O  SGN C   2      42.559 -37.508  45.0380  0.00  0.00     0.000 OA
ATOM     39   O  SGN C   2      42.530 -37.371  42.6250  0.00  0.00     0.000 OA
ENDBRANCH 24 34
BRANCH 20 40
ATOM     40  O4  IDS C   3      42.088 -43.597  44.5760  0.00  0.00     0.000 O
BRANCH 40 44
ATOM     41  C1  IDS C   3      44.898 -45.714  44.8120  0.00  0.00     0.000 C
ATOM     42  C2  IDS C   3      43.837 -45.671  45.9080  0.00  0.00     0.000 C
ATOM     43  C3  IDS C   3      43.592 -44.232  46.3550  0.00  0.00     0.000 C
ATOM     44  C4  IDS C   3      43.356 -43.307  45.1710  0.00  0.00     0.000 C
ATOM     45  C5  IDS C   3      44.476 -43.495  44.1260  0.00  0.00     0.000 C
ATOM     46  O5  IDS C   3      44.531 -44.866  43.7270  0.00  0.00     0.000 O
ATOM     47   O  IDS C   3      44.710 -43.775  47.1120  0.00  0.00     0.000 O
ATOM     49  HD  IDS C   3      43.988 -44.243  47.0160  0.00  0.00     0.000 HD
BRANCH 42 49
ATOM     49   O  IDS C   3      42.562 -46.234  45.4050  0.00  0.00     0.000 O
ATOM     50   S  IDS C   3      42.047 -47.648  45.9550  0.00  0.00     0.000 S
ATOM     51   O  IDS C   3      41.632 -47.349  47.3080  0.00  0.00     0.000 OA
ATOM     52   O  IDS C   3      43.135 -48.611  45.9050  0.00  0.00     0.000 OA
ATOM     53   O  IDS C   3      40.944 -48.030  45.0990  0.00  0.00     0.000 OA
ENDBRANCH 42 49
BRANCH 45 54
ATOM     54   C  IDS C   3      44.294 -42.632  42.8870  0.00  0.00     0.000 C
ATOM     55   O  IDS C   3      44.521 -41.451  42.9440  0.00  0.00     0.000 OA
ATOM     56   O  IDS C   3      43.905 -43.134  41.8500  0.00  0.00     0.000 OA
ENDBRANCH 45 54
BRANCH 41 57
ATOM     57  O4  SGN C   4      46.087 -45.596  45.4140  0.00  0.00     0.000 O
BRANCH 57 61
ATOM     58  C1  SGN C   4      50.130 -45.977  44.3960  0.00  0.00     0.000 C
ATOM     59  C2  SGN C   4      49.266 -45.097  43.4780  0.00  0.00     0.000 C
ATOM     60  C3  SGN C   4      47.949 -44.707  44.1630  0.00  0.00     0.000 C
ATOM     61  C4  SGN C   4      47.237 -45.960  44.6430  0.00  0.00     0.000 C
ATOM     62  C5  SGN C   4      48.162 -46.800  45.5230  0.00  0.00     0.000 C
ATOM     63  O5  SGN C   4      49.384 -47.106  44.8260  0.00  0.00     0.000 O
BRANCH 59 66
ATOM     64   N  SGN C   4      50.237 -44.087  43.0430  0.00  0.00     0.000 N
ATOM     66  HD  SGN C   4      49.511 -44.491  43.2880  0.00  0.00     0.000 HD
ATOM     66   O  SGN C   4      51.268 -42.609  41.4040  0.00  0.00     0.000 OA
ATOM     67   O  SGN C   4      50.581 -44.877  40.7500  0.00  0.00     0.000 OA
ATOM     68   S  SGN C   4      50.219 -43.564  41.5270  0.00  0.00     0.000 S
ATOM     69   O  SGN C   4      48.891 -43.186  41.2000  0.00  0.00     0.000 OA
ENDBRANCH 59 66
BRANCH 62 70
ATOM     70   C  SGN C   4      47.525 -48.113  45.9020  0.00  0.00     0.000 C
ATOM     71   S  SGN C   4      48.039 -50.554  46.4920  0.00  0.00     0.000 S
ATOM     72   O  SGN C   4      47.106 -50.468  47.5990  0.00  0.00     0.000 OA
ATOM     73   O  SGN C   4      47.420 -50.972  45.2510  0.00  0.00     0.000 OA
ATOM     74   O  SGN C   4      49.249 -51.276  46.8120  0.00  0.00     0.000 OA
ATOM     75   O  SGN C   4      48.534 -49.063  46.2640  0.00  0.00     0.000 O
ENDBRANCH 62 70
ENDBRANCH 57 61
ENDBRANCH 41 57
ENDBRANCH 40 44
ENDBRANCH 20 40
ENDBRANCH 19 23
ENDBRANCH 1 19
TORSDOF 14
ENDMDL
MODEL 48
REMARK VINA RESULT:      -6.1     18.281     23.053
ROOT
ATOM      1  C1  IDS C   1      16.419 -41.314   7.4100  0.00  0.00     0.000 C
ATOM      2  C2  IDS C   1      15.616 -40.534   8.4360  0.00  0.00     0.000 C
ATOM      3  C3  IDS C   1      14.437 -39.829   7.7770  0.00  0.00     0.000 C
ATOM      4  C4  IDS C   1      13.617 -40.801   6.9290  0.00  0.00     0.000 C
ATOM      5  C5  IDS C   1      14.542 -41.605   5.9930  0.00  0.00     0.000 C
ATOM      6  O5  IDS C   1      15.571 -42.246   6.7400  0.00  0.00     0.000 O
ATOM      7   O  IDS C   1      14.915 -38.747   6.9770  0.00  0.00     0.000 O
ATOM      9  HD  IDS C   1      14.176 -38.935   6.5670  0.00  0.00     0.000 HD
ATOM      9   O  IDS C   1      12.918 -41.705   7.7990  0.00  0.00     0.000 O
ATOM     11  HD  IDS C   1      12.179 -41.893   7.3890  0.00  0.00     0.000 HD
ENDROOT
BRANCH 2 11
ATOM     11   O  IDS C   1      15.075 -41.450   9.4650  0.00  0.00     0.000 O
ATOM     12   S  IDS C   1      15.869 -41.702  10.8290  0.00  0.00     0.000 S
ATOM     13   O  IDS C   1      14.795 -41.871  11.7820  0.00  0.00     0.000 OA
ATOM     14   O  IDS C   1      16.702 -40.559  11.1150  0.00  0.00     0.000 OA
ATOM     15   O  IDS C   1      16.623 -42.908  10.5920  0.00  0.00     0.000 OA
ENDBRANCH 2 11
BRANCH 5 16
ATOM     16   C  IDS C   1      13.812 -42.673   5.2000  0.00  0.00     0.000 C
ATOM     17   O  IDS C   1      14.446 -43.607   4.7560  0.00  0.00     0.000 OA
ATOM     18   O  IDS C   1      12.631 -42.592   5.0000  0.00  0.00     0.000 OA
ENDBRANCH 5 16
BRANCH 1 19
ATOM     19  O4  SGN C   2      17.295 -40.663   6.6400  0.00  0.00     0.000 O
BRANCH 19 23
ATOM     20  C1  SGN C   2      21.386 -40.542   5.8220  0.00  0.00     0.000 C
ATOM     21  C2  SGN C   2      20.481 -41.074   4.7050  0.00  0.00     0.000 C
ATOM     22  C3  SGN C   2      19.036 -40.657   4.9700  0.00  0.00     0.000 C
ATOM     23  C4  SGN C   2      18.602 -41.157   6.3440  0.00  0.00     0.000 C
ATOM     24  C5  SGN C   2      19.588 -40.671   7.4090  0.00  0.00     0.000 C
ATOM     25  O5  SGN C   2      20.925 -41.069   7.0550  0.00  0.00     0.000 O
ATOM     26   O  SGN C   2      18.178 -41.155   3.9510  0.00  0.00     0.000 O
ATOM     28  HD  SGN C   2      17.739 -41.435   3.2590  0.00  0.00     0.000 HD
BRANCH 21 30
ATOM     28   N  SGN C   2      21.403 -41.965   3.9890  0.00  0.00     0.000 N
ATOM     30  HD  SGN C   2      22.252 -41.805   4.0530  0.00  0.00     0.000 HD
ATOM     30   S  SGN C   2      21.938 -41.601   2.5260  0.00  0.00     0.000 S
ATOM     31   O  SGN C   2      22.493 -40.294   2.6410  0.00  0.00     0.000 OA
ATOM     32   O  SGN C   2      22.741 -42.672   2.0630  0.00  0.00     0.000 OA
ATOM     33   O  SGN C   2      20.645 -41.583   1.6420  0.00  0.00     0.000 OA
ENDBRANCH 21 30
BRANCH 24 34
ATOM     34   C  SGN C   2      19.324 -41.238   8.7840  0.00  0.00     0.000 C
ATOM     35   O  SGN C   2      20.577 -41.610   9.3850  0.00  0.00     0.000 O
ATOM     36   S  SGN C   2      20.520 -42.642  10.6020  0.00  0.00     0.000 S
ATOM     37   O  SGN C   2      19.774 -43.775  10.0900  0.00  0.00     0.000 OA
ATOM     38   O  SGN C   2      21.894 -42.954  10.9130  0.00  0.00     0.000 OA
ATOM     39   O  SGN C   2      19.838 -41.915  11.6440  0.00  0.00     0.000 OA
ENDBRANCH 24 34
BRANCH 20 40
ATOM     40  O4  IDS C   3      21.518 -39.223   5.9320  0.00  0.00     0.000 O
BRANCH 40 44
ATOM     41  C1  IDS C   3      22.243 -35.782   5.6740  0.00  0.00     0.000 C
ATOM     42  C2  IDS C   3      22.544 -36.749   4.5330  0.00  0.00     0.000 C
ATOM     43  C3  IDS C   3      23.357 -37.936   5.0430  0.00  0.00     0.000 C
ATOM     44  C4  IDS C   3      22.733 -38.555   6.2840  0.00  0.00     0.000 C
ATOM     45  C5  IDS C   3      22.439 -37.456   7.3270  0.00  0.00     0.000 C
ATOM     46  O5  IDS C   3      21.594 -36.461   6.7460  0.00  0.00     0.000 O
ATOM     47   O  IDS C   3      24.687 -37.511   5.3290  0.00  0.00     0.000 O
ATOM     49  HD  IDS C   3      24.052 -37.727   4.7820  0.00  0.00     0.000 HD
BRANCH 42 49
ATOM     49   O  IDS C   3      21.281 -37.256   3.9470  0.00  0.00     0.000 O
ATOM     50   S  IDS C   3      20.773 -36.683   2.5400  0.00  0.00     0.000 S
ATOM     51   O  IDS C   3      21.698 -37.261   1.5910  0.00  0.00     0.000 OA
ATOM     52   O  IDS C   3      20.829 -35.231   2.5610  0.00  0.00     0.000 OA
ATOM     53   O  IDS C   3      19.420 -37.173   2.3770  0.00  0.00     0.000 OA
ENDBRANCH 42 49
BRANCH 45 54
ATOM     54   C  IDS C   3      21.774 -37.986   8.5880  0.00  0.00     0.000 C
ATOM     55   O  IDS C   3      22.353 -38.786   9.2770  0.00  0.00     0.000 OA
ATOM     56   O  IDS C   3      20.657 -37.613   8.8880  0.00  0.00     0.000 OA
ENDBRANCH 45 54
BRANCH 41 57
ATOM     57  O4  SGN C   4      23.351 -35.060   5.8790  0.00  0.00     0.000 O
BRANCH 57 61
ATOM     58  C1  SGN C   4      24.513 -31.687   8.0710  0.00  0.00     0.000 C
ATOM     59  C2  SGN C   4      23.878 -32.842   8.8630  0.00  0.00     0.000 C
ATOM     60  C3  SGN C   4      23.879 -34.141   8.0460  0.00  0.00     0.000 C
ATOM     61  C4  SGN C   4      23.217 -33.896   6.7010  0.00  0.00     0.000 C
ATOM     62  C5  SGN C   4      23.878 -32.720   5.9840  0.00  0.00     0.000 C
ATOM     63  O5  SGN C   4      23.862 -31.545   6.8160  0.00  0.00     0.000 O
BRANCH 59 66
ATOM     64   N  SGN C   4      24.589 -32.852  10.1450  0.00  0.00     0.000 N
ATOM     66  HD  SGN C   4      24.114 -33.075   9.4560  0.00  0.00     0.000 HD
ATOM     66   O  SGN C   4      24.711 -32.798  12.5770  0.00  0.00     0.000 OA
ATOM     67   O  SGN C   4      23.104 -31.360  11.3970  0.00  0.00     0.000 OA
ATOM     68   S  SGN C   4      23.761 -32.779  11.5180  0.00  0.00     0.000 S
ATOM     69   O  SGN C   4      22.742 -33.765  11.4780  0.00  0.00     0.000 OA
ENDBRANCH 59 66
BRANCH 62 70
ATOM     70   C  SGN C   4      23.154 -32.371   4.7080  0.00  0.00     0.000 C
ATOM     71   S  SGN C   4      21.304 -30.889   3.7320  0.00  0.00     0.000 S
ATOM     72   O  SGN C   4      22.176 -30.557   2.6220  0.00  0.00     0.000 OA
ATOM     73   O  SGN C   4      20.499 -32.070   3.4950  0.00  0.00     0.000 OA
ATOM     74   O  SGN C   4      20.552 -29.762   4.2330  0.00  0.00     0.000 OA
ATOM     75   O  SGN C   4      22.288 -31.251   4.9250  0.00  0.00     0.000 O
ENDBRANCH 62 70
ENDBRANCH 57 61
ENDBRANCH 41 57
ENDBRANCH 40 44
ENDBRANCH 20 40
ENDBRANCH 19 23
ENDBRANCH 1 19
TORSDOF 14
ENDMDL
MODEL 49
REMARK VINA RESULT:      -6.1     21.541     24.994
ROOT
ATOM      1  C1  IDS C   1      15.756 -15.520  44.0680  0.00  0.00     0.000 C
ATOM      2  C2  IDS C   1      17.155 -15.171  43.5930  0.00  0.00     0.000 C
ATOM      3  C3  IDS C   1      17.265 -15.318  42.0800  0.00  0.00     0.000 C
ATOM      4  C4  IDS C   1      16.141 -14.563  41.3690  0.00  0.00     0.000 C
ATOM      5  C5  IDS C   1      14.778 -14.923  41.9940  0.00  0.00     0.000 C
ATOM      6  O5  IDS C   1      14.800 -14.699  43.3990  0.00  0.00     0.000 O
ATOM      7   O  IDS C   1      17.234 -16.704  41.7320  0.00  0.00     0.000 O
ATOM      9  HD  IDS C   1      16.918 -16.350  41.0080  0.00  0.00     0.000 HD
ATOM      9   O  IDS C   1      16.369 -13.152  41.5040  0.00  0.00     0.000 O
ATOM     11  HD  IDS C   1      16.054 -12.798  40.7790  0.00  0.00     0.000 HD
ENDROOT
BRANCH 2 11
ATOM     11   O  IDS C   1      17.474 -13.767  43.9320  0.00  0.00     0.000 O
ATOM     12   S  IDS C   1      18.450 -13.426  45.1500  0.00  0.00     0.000 S
ATOM     13   O  IDS C   1      19.133 -12.243  44.6740  0.00  0.00     0.000 OA
ATOM     14   O  IDS C   1      19.341 -14.539  45.3750  0.00  0.00     0.000 OA
ATOM     15   O  IDS C   1      17.568 -13.171  46.2620  0.00  0.00     0.000 OA
ENDBRANCH 2 11
BRANCH 5 16
ATOM     16   C  IDS C   1      13.624 -14.124  41.4150  0.00  0.00     0.000 C
ATOM     17   O  IDS C   1      12.508 -14.311  41.8510  0.00  0.00     0.000 OA
ATOM     18   O  IDS C   1      13.805 -13.332  40.5320  0.00  0.00     0.000 OA
ENDBRANCH 5 16
BRANCH 1 19
ATOM     19  O4  SGN C   2      15.421 -16.806  44.2120  0.00  0.00     0.000 O
BRANCH 19 23
ATOM     20  C1  SGN C   2      13.257 -19.425  46.6370  0.00  0.00     0.000 C
ATOM     21  C2  SGN C   2      12.562 -18.945  45.3570  0.00  0.00     0.000 C
ATOM     22  C3  SGN C   2      13.598 -18.375  44.3910  0.00  0.00     0.000 C
ATOM     23  C4  SGN C   2      14.374 -17.255  45.0740  0.00  0.00     0.000 C
ATOM     24  C5  SGN C   2      14.973 -17.764  46.3880  0.00  0.00     0.000 C
ATOM     25  O5  SGN C   2      13.935 -18.322  47.2140  0.00  0.00     0.000 O
ATOM     26   O  SGN C   2      12.968 -17.909  43.2030  0.00  0.00     0.000 O
ATOM     28  HD  SGN C   2      12.517 -17.715  42.4900  0.00  0.00     0.000 HD
BRANCH 21 30
ATOM     28   N  SGN C   2      11.469 -19.718  45.9610  0.00  0.00     0.000 N
ATOM     30  HD  SGN C   2      11.486 -20.580  45.8750  0.00  0.00     0.000 HD
ATOM     30   S  SGN C   2      10.185 -20.146  45.1070  0.00  0.00     0.000 S
ATOM     31   O  SGN C   2      10.701 -20.817  43.9620  0.00  0.00     0.000 OA
ATOM     32   O  SGN C   2       9.275 -20.809  45.9660  0.00  0.00     0.000 OA
ATOM     33   O  SGN C   2       9.526 -18.783  44.7050  0.00  0.00     0.000 OA
ENDBRANCH 21 30
BRANCH 24 34
ATOM     34   C  SGN C   2      15.638 -16.685  47.2100  0.00  0.00     0.000 C
ATOM     35   O  SGN C   2      16.528 -17.301  48.1580  0.00  0.00     0.000 O
ATOM     36   S  SGN C   2      16.966 -16.423  49.4180  0.00  0.00     0.000 S
ATOM     37   O  SGN C   2      15.719 -15.980  50.0100  0.00  0.00     0.000 OA
ATOM     38   O  SGN C   2      17.721 -17.312  50.2680  0.00  0.00     0.000 OA
ATOM     39   O  SGN C   2      17.753 -15.359  48.8440  0.00  0.00     0.000 OA
ENDBRANCH 24 34
BRANCH 20 40
ATOM     40  O4  IDS C   3      14.099 -20.451  46.5320  0.00  0.00     0.000 O
BRANCH 40 44
ATOM     41  C1  IDS C   3      15.393 -23.669  47.1610  0.00  0.00     0.000 C
ATOM     42  C2  IDS C   3      14.130 -23.167  47.8560  0.00  0.00     0.000 C
ATOM     43  C3  IDS C   3      14.387 -21.810  48.5060  0.00  0.00     0.000 C
ATOM     44  C4  IDS C   3      15.039 -20.835  47.5380  0.00  0.00     0.000 C
ATOM     45  C5  IDS C   3      16.268 -21.495  46.8770  0.00  0.00     0.000 C
ATOM     46  O5  IDS C   3      15.868 -22.703  46.2270  0.00  0.00     0.000 O
ATOM     47   O  IDS C   3      15.216 -21.983  49.6530  0.00  0.00     0.000 O
ATOM     49  HD  IDS C   3      14.457 -22.039  49.2390  0.00  0.00     0.000 HD
BRANCH 42 49
ATOM     49   O  IDS C   3      13.032 -23.021  46.8730  0.00  0.00     0.000 O
ATOM     50   S  IDS C   3      11.676 -23.852  47.0700  0.00  0.00     0.000 S
ATOM     51   O  IDS C   3      11.046 -23.200  48.1970  0.00  0.00     0.000 OA
ATOM     52   O  IDS C   3      11.997 -25.244  47.3380  0.00  0.00     0.000 OA
ATOM     53   O  IDS C   3      10.930 -23.694  45.8390  0.00  0.00     0.000 OA
ENDBRANCH 42 49
BRANCH 45 54
ATOM     54   C  IDS C   3      16.959 -20.599  45.8610  0.00  0.00     0.000 C
ATOM     55   O  IDS C   3      16.691 -20.705  44.6930  0.00  0.00     0.000 OA
ATOM     56   O  IDS C   3      17.790 -19.792  46.2300  0.00  0.00     0.000 OA
ENDBRANCH 45 54
BRANCH 41 57
ATOM     57  O4  SGN C   4      16.192 -24.167  48.1120  0.00  0.00     0.000 O
BRANCH 57 61
ATOM     58  C1  SGN C   4      20.147 -25.536  48.2150  0.00  0.00     0.000 C
ATOM     59  C2  SGN C   4      19.798 -24.513  47.1220  0.00  0.00     0.000 C
ATOM     60  C3  SGN C   4      18.478 -23.795  47.4360  0.00  0.00     0.000 C
ATOM     61  C4  SGN C   4      17.384 -24.824  47.6710  0.00  0.00     0.000 C
ATOM     62  C5  SGN C   4      17.811 -25.823  48.7460  0.00  0.00     0.000 C
ATOM     63  O5  SGN C   4      19.065 -26.438  48.3970  0.00  0.00     0.000 O
BRANCH 59 66
ATOM     64   N  SGN C   4      20.972 -23.646  46.9770  0.00  0.00     0.000 N
ATOM     66  HD  SGN C   4      20.173 -23.979  46.9320  0.00  0.00     0.000 HD
ATOM     66   O  SGN C   4      22.817 -22.655  45.7340  0.00  0.00     0.000 OA
ATOM     67   O  SGN C   4      22.251 -25.025  45.4080  0.00  0.00     0.000 OA
ATOM     68   S  SGN C   4      21.727 -23.555  45.5650  0.00  0.00     0.000 S
ATOM     69   O  SGN C   4      20.763 -23.299  44.5570  0.00  0.00     0.000 OA
ENDBRANCH 59 66
BRANCH 62 70
ATOM     70   C  SGN C   4      16.800 -26.931  48.9030  0.00  0.00     0.000 C
ATOM     71   S  SGN C   4      15.381 -28.622  47.6000  0.00  0.00     0.000 S
ATOM     72   O  SGN C   4      15.768 -29.653  48.5430  0.00  0.00     0.000 OA
ATOM     73   O  SGN C   4      14.186 -27.903  47.9920  0.00  0.00     0.000 OA
ATOM     74   O  SGN C   4      15.366 -29.072  46.2270  0.00  0.00     0.000 OA
ATOM     75   O  SGN C   4      16.569 -27.569  47.6410  0.00  0.00     0.000 O
ENDBRANCH 62 70
ENDBRANCH 57 61
ENDBRANCH 41 57
ENDBRANCH 40 44
ENDBRANCH 20 40
ENDBRANCH 19 23
ENDBRANCH 1 19
TORSDOF 14
ENDMDL
MODEL 50
REMARK VINA RESULT:      -6.1     17.228     24.555
ROOT
ATOM      1  C1  IDS C   1      35.247 -37.028  41.8490  0.00  0.00     0.000 C
ATOM      2  C2  IDS C   1      35.218 -37.288  40.3540  0.00  0.00     0.000 C
ATOM      3  C3  IDS C   1      33.790 -37.508  39.8700  0.00  0.00     0.000 C
ATOM      4  C4  IDS C   1      32.869 -36.383  40.3410  0.00  0.00     0.000 C
ATOM      5  C5  IDS C   1      33.049 -36.143  41.8540  0.00  0.00     0.000 C
ATOM      6  O5  IDS C   1      34.419 -35.908  42.1610  0.00  0.00     0.000 O
ATOM      7   O  IDS C   1      33.317 -38.771  40.3410  0.00  0.00     0.000 O
ATOM      9  HD  IDS C   1      32.570 -38.340  40.2620  0.00  0.00     0.000 HD
ATOM      9   O  IDS C   1      33.196 -35.181  39.6260  0.00  0.00     0.000 O
ATOM     11  HD  IDS C   1      32.449 -34.750  39.5470  0.00  0.00     0.000 HD
ENDROOT
BRANCH 2 11
ATOM     11   O  IDS C   1      35.766 -36.124  39.6220  0.00  0.00     0.000 O
ATOM     12   S  IDS C   1      37.211 -36.197  38.9420  0.00  0.00     0.000 S
ATOM     13   O  IDS C   1      37.035 -35.380  37.7610  0.00  0.00     0.000 OA
ATOM     14   O  IDS C   1      37.526 -37.571  38.6350  0.00  0.00     0.000 OA
ATOM     15   O  IDS C   1      38.100 -35.614  39.9160  0.00  0.00     0.000 OA
ENDBRANCH 2 11
BRANCH 5 16
ATOM     16   C  IDS C   1      32.250 -34.961  42.3730  0.00  0.00     0.000 C
ATOM     17   O  IDS C   1      31.284 -34.587  41.7420  0.00  0.00     0.000 OA
ATOM     18   O  IDS C   1      32.574 -34.395  43.3800  0.00  0.00     0.000 OA
ENDBRANCH 5 16
BRANCH 1 19
ATOM     19  O4  SGN C   2      35.169 -38.064  42.6900  0.00  0.00     0.000 O
BRANCH 19 23
ATOM     20  C1  SGN C   2      36.823 -39.294  46.3190  0.00  0.00     0.000 C
ATOM     21  C2  SGN C   2      35.306 -39.077  46.2980  0.00  0.00     0.000 C
ATOM     22  C3  SGN C   2      34.807 -39.065  44.8550  0.00  0.00     0.000 C
ATOM     23  C4  SGN C   2      35.549 -37.992  44.0650  0.00  0.00     0.000 C
ATOM     24  C5  SGN C   2      37.060 -38.204  44.1920  0.00  0.00     0.000 C
ATOM     25  O5  SGN C   2      37.431 -38.246  45.5820  0.00  0.00     0.000 O
ATOM     26   O  SGN C   2      33.401 -38.848  44.8150  0.00  0.00     0.000 O
ATOM     28  HD  SGN C   2      32.540 -38.782  44.8810  0.00  0.00     0.000 HD
BRANCH 21 30
ATOM     28   N  SGN C   2      35.498 -39.552  47.6740  0.00  0.00     0.000 N
ATOM     30  HD  SGN C   2      35.412 -40.400  47.8270  0.00  0.00     0.000 HD
ATOM     30   S  SGN C   2      34.258 -39.742  48.6670  0.00  0.00     0.000 S
ATOM     31   O  SGN C   2      33.344 -40.583  47.9700  0.00  0.00     0.000 OA
ATOM     32   O  SGN C   2      34.752 -40.133  49.9340  0.00  0.00     0.000 OA
ATOM     33   O  SGN C   2      33.674 -38.297  48.8280  0.00  0.00     0.000 OA
ENDBRANCH 21 30
BRANCH 24 34
ATOM     34   C  SGN C   2      37.882 -37.103  43.5640  0.00  0.00     0.000 C
ATOM     35   O  SGN C   2      38.004 -36.019  44.5010  0.00  0.00     0.000 O
ATOM     36   S  SGN C   2      38.407 -34.592  43.9100  0.00  0.00     0.000 S
ATOM     37   O  SGN C   2      37.434 -34.337  42.8650  0.00  0.00     0.000 OA
ATOM     38   O  SGN C   2      38.314 -33.671  45.0170  0.00  0.00     0.000 OA
ATOM     39   O  SGN C   2      39.751 -34.783  43.4230  0.00  0.00     0.000 OA
ENDBRANCH 24 34
BRANCH 20 40
ATOM     40  O4  IDS C   3      37.284 -40.463  45.8810  0.00  0.00     0.000 O
BRANCH 40 44
ATOM     41  C1  IDS C   3      38.642 -43.710  46.0850  0.00  0.00     0.000 C
ATOM     42  C2  IDS C   3      38.390 -42.870  47.3340  0.00  0.00     0.000 C
ATOM     43  C3  IDS C   3      39.033 -41.493  47.1870  0.00  0.00     0.000 C
ATOM     44  C4  IDS C   3      38.664 -40.838  45.8660  0.00  0.00     0.000 C
ATOM     45  C5  IDS C   3      38.924 -41.817  44.7020  0.00  0.00     0.000 C
ATOM     46  O5  IDS C   3      38.189 -43.023  44.9210  0.00  0.00     0.000 O
ATOM     47   O  IDS C   3      40.450 -41.619  47.2870  0.00  0.00     0.000 O
ATOM     49  HD  IDS C   3      39.654 -41.603  47.6300  0.00  0.00     0.000 HD
BRANCH 42 49
ATOM     49   O  IDS C   3      36.935 -42.693  47.5440  0.00  0.00     0.000 O
ATOM     50   S  IDS C   3      36.194 -43.518  48.7000  0.00  0.00     0.000 S
ATOM     51   O  IDS C   3      36.666 -42.889  49.9140  0.00  0.00     0.000 OA
ATOM     52   O  IDS C   3      36.574 -44.919  48.6140  0.00  0.00     0.000 OA
ATOM     53   O  IDS C   3      34.776 -43.326  48.4810  0.00  0.00     0.000 OA
ENDBRANCH 42 49
BRANCH 45 54
ATOM     54   C  IDS C   3      38.542 -41.252  43.3430  0.00  0.00     0.000 C
ATOM     55   O  IDS C   3      39.308 -40.528  42.7610  0.00  0.00     0.000 OA
ATOM     56   O  IDS C   3      37.461 -41.520  42.8560  0.00  0.00     0.000 OA
ENDBRANCH 45 54
BRANCH 41 57
ATOM     57  O4  SGN C   4      39.893 -44.177  46.1730  0.00  0.00     0.000 O
BRANCH 57 61
ATOM     58  C1  SGN C   4      42.535 -46.475  43.8770  0.00  0.00     0.000 C
ATOM     59  C2  SGN C   4      42.216 -45.063  43.3580  0.00  0.00     0.000 C
ATOM     60  C3  SGN C   4      41.593 -44.195  44.4600  0.00  0.00     0.000 C
ATOM     61  C4  SGN C   4      40.386 -44.909  45.0460  0.00  0.00     0.000 C
ATOM     62  C5  SGN C   4      40.768 -46.313  45.5130  0.00  0.00     0.000 C
ATOM     63  O5  SGN C   4      41.368 -47.059  44.4370  0.00  0.00     0.000 O
BRANCH 59 66
ATOM     64   N  SGN C   4      43.373 -44.921  42.4680  0.00  0.00     0.000 N
ATOM     66  HD  SGN C   4      42.832 -44.870  43.1420  0.00  0.00     0.000 HD
ATOM     66   O  SGN C   4      44.822 -43.687  40.9470  0.00  0.00     0.000 OA
ATOM     67   O  SGN C   4      42.384 -43.391  40.8300  0.00  0.00     0.000 OA
ATOM     68   S  SGN C   4      43.653 -43.517  41.7420  0.00  0.00     0.000 S
ATOM     69   O  SGN C   4      43.621 -42.493  42.7230  0.00  0.00     0.000 OA
ENDBRANCH 59 66
BRANCH 62 70
ATOM     70   C  SGN C   4      39.562 -47.091  45.9750  0.00  0.00     0.000 C
ATOM     71   S  SGN C   4      38.828 -49.112  47.3710  0.00  0.00     0.000 S
ATOM     72   O  SGN C   4      37.789 -48.301  47.9740  0.00  0.00     0.000 OA
ATOM     73   O  SGN C   4      38.403 -49.781  46.1570  0.00  0.00     0.000 OA
ATOM     74   O  SGN C   4      39.501 -49.981  48.3090  0.00  0.00     0.000 OA
ATOM     75   O  SGN C   4      39.952 -48.076  46.9390  0.00  0.00     0.000 O
ENDBRANCH 62 70
ENDBRANCH 57 61
ENDBRANCH 41 57
ENDBRANCH 40 44
ENDBRANCH 20 40
ENDBRANCH 19 23
ENDBRANCH 1 19
TORSDOF 14
ENDMDL
MODEL 51
REMARK VINA RESULT:      -6.0     28.933     33.447
ROOT
ATOM      1  C1  IDS C   1      38.731 -63.207  24.9960  0.00  0.00     0.000 C
ATOM      2  C2  IDS C   1      39.642 -64.406  24.8080  0.00  0.00     0.000 C
ATOM      3  C3  IDS C   1      39.062 -65.639  25.4890  0.00  0.00     0.000 C
ATOM      4  C4  IDS C   1      37.609 -65.868  25.0720  0.00  0.00     0.000 C
ATOM      5  C5  IDS C   1      36.800 -64.563  25.2160  0.00  0.00     0.000 C
ATOM      6  O5  IDS C   1      37.428 -63.506  24.4970  0.00  0.00     0.000 O
ATOM      7   O  IDS C   1      39.157 -65.489  26.9070  0.00  0.00     0.000 O
ATOM      9  HD  IDS C   1      38.475 -66.019  26.8480  0.00  0.00     0.000 HD
ATOM      9   O  IDS C   1      37.579 -66.298  23.7020  0.00  0.00     0.000 O
ATOM     11  HD  IDS C   1      36.897 -66.829  23.6440  0.00  0.00     0.000 HD
ENDROOT
BRANCH 2 11
ATOM     11   O  IDS C   1      39.787 -64.715  23.3680  0.00  0.00     0.000 O
ATOM     12   S  IDS C   1      41.220 -65.061  22.7500  0.00  0.00     0.000 S
ATOM     13   O  IDS C   1      40.889 -66.034  21.7330  0.00  0.00     0.000 OA
ATOM     14   O  IDS C   1      42.071 -65.595  23.7860  0.00  0.00     0.000 OA
ATOM     15   O  IDS C   1      41.696 -63.810  22.2140  0.00  0.00     0.000 OA
ENDBRANCH 2 11
BRANCH 5 16
ATOM     16   C  IDS C   1      35.374 -64.683  24.7110  0.00  0.00     0.000 C
ATOM     17   O  IDS C   1      34.475 -64.790  25.5180  0.00  0.00     0.000 OA
ATOM     18   O  IDS C   1      35.136 -64.688  23.5340  0.00  0.00     0.000 OA
ENDBRANCH 5 16
BRANCH 1 19
ATOM     19  O4  SGN C   2      38.773 -62.535  26.1510  0.00  0.00     0.000 O
BRANCH 19 23
ATOM     20  C1  SGN C   2      38.276 -58.736  27.8080  0.00  0.00     0.000 C
ATOM     21  C2  SGN C   2      37.425 -59.062  26.5760  0.00  0.00     0.000 C
ATOM     22  C3  SGN C   2      37.386 -60.573  26.3610  0.00  0.00     0.000 C
ATOM     23  C4  SGN C   2      38.807 -61.109  26.2300  0.00  0.00     0.000 C
ATOM     24  C5  SGN C   2      39.637 -60.681  27.4440  0.00  0.00     0.000 C
ATOM     25  O5  SGN C   2      39.580 -59.251  27.5950  0.00  0.00     0.000 O
ATOM     26   O  SGN C   2      36.612 -60.892  25.2100  0.00  0.00     0.000 O
ATOM     28  HD  SGN C   2      36.072 -61.004  24.5420  0.00  0.00     0.000 HD
BRANCH 21 30
ATOM     28   N  SGN C   2      36.058 -58.530  26.4960  0.00  0.00     0.000 N
ATOM     30  HD  SGN C   2      35.656 -58.557  25.7290  0.00  0.00     0.000 HD
ATOM     30   S  SGN C   2      35.780 -57.021  26.0420  0.00  0.00     0.000 S
ATOM     31   O  SGN C   2      36.448 -56.875  24.7930  0.00  0.00     0.000 OA
ATOM     32   O  SGN C   2      34.389 -56.774  26.1330  0.00  0.00     0.000 OA
ATOM     33   O  SGN C   2      36.473 -56.157  27.1500  0.00  0.00     0.000 OA
ENDBRANCH 21 30
BRANCH 24 34
ATOM     34   C  SGN C   2      41.100 -61.041  27.3350  0.00  0.00     0.000 C
ATOM     35   O  SGN C   2      41.539 -60.811  25.9850  0.00  0.00     0.000 O
ATOM     36   S  SGN C   2      42.877 -61.548  25.5220  0.00  0.00     0.000 S
ATOM     37   O  SGN C   2      42.648 -62.949  25.8160  0.00  0.00     0.000 OA
ATOM     38   O  SGN C   2      43.005 -61.271  24.1110  0.00  0.00     0.000 OA
ATOM     39   O  SGN C   2      43.906 -60.940  26.3290  0.00  0.00     0.000 OA
ENDBRANCH 24 34
BRANCH 20 40
ATOM     40  O4  IDS C   3      37.830 -59.151  28.9920  0.00  0.00     0.000 O
BRANCH 40 44
ATOM     41  C1  IDS C   3      36.287 -59.787  32.0970  0.00  0.00     0.000 C
ATOM     42  C2  IDS C   3      35.672 -58.828  31.0820  0.00  0.00     0.000 C
ATOM     43  C3  IDS C   3      36.701 -57.792  30.6380  0.00  0.00     0.000 C
ATOM     44  C4  IDS C   3      38.011 -58.443  30.2210  0.00  0.00     0.000 C
ATOM     45  C5  IDS C   3      38.485 -59.419  31.3180  0.00  0.00     0.000 C
ATOM     46  O5  IDS C   3      37.465 -60.389  31.5670  0.00  0.00     0.000 O
ATOM     47   O  IDS C   3      36.933 -56.870  31.7000  0.00  0.00     0.000 O
ATOM     49  HD  IDS C   3      36.455 -57.192  31.0540  0.00  0.00     0.000 HD
BRANCH 42 49
ATOM     49   O  IDS C   3      35.208 -59.577  29.8900  0.00  0.00     0.000 O
ATOM     50   S  IDS C   3      33.709 -59.378  29.3620  0.00  0.00     0.000 S
ATOM     51   O  IDS C   3      33.730 -58.050  28.7890  0.00  0.00     0.000 OA
ATOM     52   O  IDS C   3      32.785 -59.489  30.4790  0.00  0.00     0.000 OA
ATOM     53   O  IDS C   3      33.494 -60.414  28.3750  0.00  0.00     0.000 OA
ENDBRANCH 42 49
BRANCH 45 54
ATOM     54   C  IDS C   3      39.773 -60.145  30.9630  0.00  0.00     0.000 C
ATOM     55   O  IDS C   3      40.774 -59.512  30.7460  0.00  0.00     0.000 OA
ATOM     56   O  IDS C   3      39.784 -61.358  30.8820  0.00  0.00     0.000 OA
ENDBRANCH 45 54
BRANCH 41 57
ATOM     57  O4  SGN C   4      36.301 -59.153  33.2760  0.00  0.00     0.000 O
BRANCH 57 61
ATOM     58  C1  SGN C   4      37.978 -59.835  37.0510  0.00  0.00     0.000 C
ATOM     59  C2  SGN C   4      38.797 -60.301  35.8360  0.00  0.00     0.000 C
ATOM     60  C3  SGN C   4      38.295 -59.644  34.5440  0.00  0.00     0.000 C
ATOM     61  C4  SGN C   4      36.803 -59.890  34.3950  0.00  0.00     0.000 C
ATOM     62  C5  SGN C   4      36.057 -59.431  35.6480  0.00  0.00     0.000 C
ATOM     63  O5  SGN C   4      36.596 -60.068  36.8210  0.00  0.00     0.000 O
BRANCH 59 66
ATOM     64   N  SGN C   4      40.105 -60.862  36.1920  0.00  0.00     0.000 N
ATOM     66  HD  SGN C   4      39.354 -60.430  36.2050  0.00  0.00     0.000 HD
ATOM     66   O  SGN C   4      42.510 -60.736  36.5610  0.00  0.00     0.000 OA
ATOM     67   O  SGN C   4      41.494 -59.537  34.6700  0.00  0.00     0.000 OA
ATOM     68   S  SGN C   4      41.404 -59.920  36.1880  0.00  0.00     0.000 S
ATOM     69   O  SGN C   4      41.114 -58.754  36.9420  0.00  0.00     0.000 OA
ENDBRANCH 59 66
BRANCH 62 70
ATOM     70   C  SGN C   4      34.593 -59.787  35.5820  0.00  0.00     0.000 C
ATOM     71   S  SGN C   4      32.959 -61.686  35.0380  0.00  0.00     0.000 S
ATOM     72   O  SGN C   4      32.213 -61.369  36.2400  0.00  0.00     0.000 OA
ATOM     73   O  SGN C   4      32.511 -60.951  33.8730  0.00  0.00     0.000 OA
ATOM     74   O  SGN C   4      33.110 -63.105  34.8100  0.00  0.00     0.000 OA
ATOM     75   O  SGN C   4      34.438 -61.189  35.3370  0.00  0.00     0.000 O
ENDBRANCH 62 70
ENDBRANCH 57 61
ENDBRANCH 41 57
ENDBRANCH 40 44
ENDBRANCH 20 40
ENDBRANCH 19 23
ENDBRANCH 1 19
TORSDOF 14
ENDMDL
MODEL 52
REMARK VINA RESULT:      -6.0     26.045     29.201
ROOT
ATOM      1  C1  IDS C   1      16.564 -11.956  43.0930  0.00  0.00     0.000 C
ATOM      2  C2  IDS C   1      15.906 -12.742  41.9730  0.00  0.00     0.000 C
ATOM      3  C3  IDS C   1      16.806 -13.881  41.5110  0.00  0.00     0.000 C
ATOM      4  C4  IDS C   1      17.276 -14.727  42.6940  0.00  0.00     0.000 C
ATOM      5  C5  IDS C   1      17.838 -13.821  43.8080  0.00  0.00     0.000 C
ATOM      6  O5  IDS C   1      16.883 -12.831  44.1740  0.00  0.00     0.000 O
ATOM      7   O  IDS C   1      17.925 -13.347  40.8020  0.00  0.00     0.000 O
ATOM      9  HD  IDS C   1      18.262 -14.087  41.0990  0.00  0.00     0.000 HD
ATOM      9   O  IDS C   1      16.162 -15.475  43.2050  0.00  0.00     0.000 O
ATOM     11  HD  IDS C   1      16.500 -16.216  43.5030  0.00  0.00     0.000 HD
ENDROOT
BRANCH 2 11
ATOM     11   O  IDS C   1      14.634 -13.335  42.4440  0.00  0.00     0.000 O
ATOM     12   S  IDS C   1      13.272 -13.074  41.6510  0.00  0.00     0.000 S
ATOM     13   O  IDS C   1      12.570 -14.327  41.8260  0.00  0.00     0.000 OA
ATOM     14   O  IDS C   1      13.570 -12.784  40.2690  0.00  0.00     0.000 OA
ATOM     15   O  IDS C   1      12.655 -11.970  42.3430  0.00  0.00     0.000 OA
ENDBRANCH 2 11
BRANCH 5 16
ATOM     16   C  IDS C   1      18.221 -14.582  45.0640  0.00  0.00     0.000 C
ATOM     17   O  IDS C   1      17.340 -15.051  45.7540  0.00  0.00     0.000 OA
ATOM     18   O  IDS C   1      19.371 -14.706  45.3830  0.00  0.00     0.000 OA
ENDBRANCH 5 16
BRANCH 1 19
ATOM     19  O4  SGN C   2      17.490 -11.043  42.7880  0.00  0.00     0.000 O
BRANCH 19 23
ATOM     20  C1  SGN C   2      19.689  -7.830  44.2940  0.00  0.00     0.000 C
ATOM     21  C2  SGN C   2      20.305  -9.223  44.4700  0.00  0.00     0.000 C
ATOM     22  C3  SGN C   2      19.633 -10.208  43.5160  0.00  0.00     0.000 C
ATOM     23  C4  SGN C   2      18.128 -10.214  43.7610  0.00  0.00     0.000 C
ATOM     24  C5  SGN C   2      17.580  -8.788  43.6590  0.00  0.00     0.000 C
ATOM     25  O5  SGN C   2      18.299  -7.923  44.5580  0.00  0.00     0.000 O
ATOM     26   O  SGN C   2      20.182 -11.511  43.6770  0.00  0.00     0.000 O
ATOM     28  HD  SGN C   2      20.614 -12.253  43.7880  0.00  0.00     0.000 HD
BRANCH 21 30
ATOM     28   N  SGN C   2      21.151  -9.311  45.6680  0.00  0.00     0.000 N
ATOM     30  HD  SGN C   2      21.300  -8.583  46.1130  0.00  0.00     0.000 HD
ATOM     30   S  SGN C   2      22.721  -9.014  45.5970  0.00  0.00     0.000 S
ATOM     31   O  SGN C   2      22.835  -7.728  44.9960  0.00  0.00     0.000 OA
ATOM     32   O  SGN C   2      23.281  -9.249  46.8760  0.00  0.00     0.000 OA
ATOM     33   O  SGN C   2      23.275 -10.127  44.6430  0.00  0.00     0.000 OA
ENDBRANCH 21 30
BRANCH 24 34
ATOM     34   C  SGN C   2      16.121  -8.671  44.0320  0.00  0.00     0.000 C
ATOM     35   O  SGN C   2      15.329  -8.690  42.8320  0.00  0.00     0.000 O
ATOM     36   S  SGN C   2      13.843  -8.116  42.9340  0.00  0.00     0.000 S
ATOM     37   O  SGN C   2      13.998  -6.787  43.4930  0.00  0.00     0.000 OA
ATOM     38   O  SGN C   2      13.332  -8.114  41.5840  0.00  0.00     0.000 OA
ATOM     39   O  SGN C   2      13.170  -9.044  43.8090  0.00  0.00     0.000 OA
ENDBRANCH 24 34
BRANCH 20 40
ATOM     40  O4  IDS C   3      19.873  -7.219  43.1260  0.00  0.00     0.000 O
BRANCH 40 44
ATOM     41  C1  IDS C   3      20.913  -5.495  40.2320  0.00  0.00     0.000 C
ATOM     42  C2  IDS C   3      21.917  -6.005  41.2610  0.00  0.00     0.000 C
ATOM     43  C3  IDS C   3      21.532  -5.529  42.6600  0.00  0.00     0.000 C
ATOM     44  C4  IDS C   3      20.071  -5.812  42.9690  0.00  0.00     0.000 C
ATOM     45  C5  IDS C   3      19.181  -5.287  41.8230  0.00  0.00     0.000 C
ATOM     46  O5  IDS C   3      19.589  -5.884  40.5900  0.00  0.00     0.000 O
ATOM     47   O  IDS C   3      21.791  -4.131  42.7720  0.00  0.00     0.000 O
ATOM     49  HD  IDS C   3      22.045  -4.958  42.7380  0.00  0.00     0.000 HD
BRANCH 42 49
ATOM     49   O  IDS C   3      21.946  -7.486  41.2560  0.00  0.00     0.000 O
ATOM     50   S  IDS C   3      23.309  -8.252  40.9080  0.00  0.00     0.000 S
ATOM     51   O  IDS C   3      24.128  -8.024  42.0780  0.00  0.00     0.000 OA
ATOM     52   O  IDS C   3      23.888  -7.684  39.7020  0.00  0.00     0.000 OA
ATOM     53   O  IDS C   3      22.950  -9.644  40.7340  0.00  0.00     0.000 OA
ENDBRANCH 42 49
BRANCH 45 54
ATOM     54   C  IDS C   3      17.701  -5.565  42.0330  0.00  0.00     0.000 C
ATOM     55   O  IDS C   3      17.175  -6.474  41.4440  0.00  0.00     0.000 OA
ATOM     56   O  IDS C   3      17.051  -4.860  42.7810  0.00  0.00     0.000 OA
ENDBRANCH 45 54
BRANCH 41 57
ATOM     57  O4  SGN C   4      21.218  -4.216  39.9860  0.00  0.00     0.000 O
BRANCH 57 61
ATOM     58  C1  SGN C   4      20.540  -1.359  37.0020  0.00  0.00     0.000 C
ATOM     59  C2  SGN C   4      19.314  -1.823  37.8060  0.00  0.00     0.000 C
ATOM     60  C3  SGN C   4      19.737  -2.529  39.1010  0.00  0.00     0.000 C
ATOM     61  C4  SGN C   4      20.705  -3.654  38.7740  0.00  0.00     0.000 C
ATOM     62  C5  SGN C   4      21.880  -3.127  37.9510  0.00  0.00     0.000 C
ATOM     63  O5  SGN C   4      21.409  -2.457  36.7670  0.00  0.00     0.000 O
BRANCH 59 66
ATOM     64   N  SGN C   4      18.327  -0.829  37.3750  0.00  0.00     0.000 N
ATOM     66  HD  SGN C   4      19.000  -1.223  37.7520  0.00  0.00     0.000 HD
ATOM     66   O  SGN C   4      16.394   0.618  37.7050  0.00  0.00     0.000 OA
ATOM     67   O  SGN C   4      16.402  -1.653  38.6470  0.00  0.00     0.000 OA
ATOM     68   S  SGN C   4      17.201  -0.326  38.4020  0.00  0.00     0.000 S
ATOM     69   O  SGN C   4      17.837   0.060  39.6090  0.00  0.00     0.000 OA
ENDBRANCH 59 66
BRANCH 62 70
ATOM     70   C  SGN C   4      22.786  -4.245  37.5000  0.00  0.00     0.000 C
ATOM     71   S  SGN C   4      24.993  -4.746  36.2960  0.00  0.00     0.000 S
ATOM     72   O  SGN C   4      25.326  -5.701  37.3340  0.00  0.00     0.000 OA
ATOM     73   O  SGN C   4      24.248  -5.328  35.1980  0.00  0.00     0.000 OA
ATOM     74   O  SGN C   4      26.113  -3.935  35.8760  0.00  0.00     0.000 OA
ATOM     75   O  SGN C   4      24.016  -3.709  36.9980  0.00  0.00     0.000 O
ENDBRANCH 62 70
ENDBRANCH 57 61
ENDBRANCH 41 57
ENDBRANCH 40 44
ENDBRANCH 20 40
ENDBRANCH 19 23
ENDBRANCH 1 19
TORSDOF 14
ENDMDL
MODEL 53
REMARK VINA RESULT:      -5.9     10.322     17.337
ROOT
ATOM      1  C1  IDS C   1      14.305 -35.933  30.5700  0.00  0.00     0.000 C
ATOM      2  C2  IDS C   1      14.687 -37.113  31.4450  0.00  0.00     0.000 C
ATOM      3  C3  IDS C   1      16.094 -37.596  31.1170  0.00  0.00     0.000 C
ATOM      4  C4  IDS C   1      17.093 -36.439  31.1320  0.00  0.00     0.000 C
ATOM      5  C5  IDS C   1      16.560 -35.263  30.2890  0.00  0.00     0.000 C
ATOM      6  O5  IDS C   1      15.260 -34.885  30.7280  0.00  0.00     0.000 O
ATOM      7   O  IDS C   1      16.091 -38.238  29.8410  0.00  0.00     0.000 O
ATOM      9  HD  IDS C   1      16.912 -37.965  29.8810  0.00  0.00     0.000 HD
ATOM      9   O  IDS C   1      17.284 -36.005  32.4870  0.00  0.00     0.000 O
ATOM     11  HD  IDS C   1      18.105 -35.732  32.5270  0.00  0.00     0.000 HD
ENDROOT
BRANCH 2 11
ATOM     11   O  IDS C   1      14.669 -36.717  32.8720  0.00  0.00     0.000 O
ATOM     12   S  IDS C   1      14.161 -37.737  33.9920  0.00  0.00     0.000 S
ATOM     13   O  IDS C   1      15.009 -37.406  35.1160  0.00  0.00     0.000 OA
ATOM     14   O  IDS C   1      14.345 -39.091  33.5260  0.00  0.00     0.000 OA
ATOM     15   O  IDS C   1      12.776 -37.391  34.1970  0.00  0.00     0.000 OA
ENDBRANCH 2 11
BRANCH 5 16
ATOM     16   C  IDS C   1      17.446 -34.032  30.3500  0.00  0.00     0.000 C
ATOM     17   O  IDS C   1      17.707 -33.553  31.4330  0.00  0.00     0.000 OA
ATOM     18   O  IDS C   1      17.868 -33.528  29.3460  0.00  0.00     0.000 OA
ENDBRANCH 5 16
BRANCH 1 19
ATOM     19  O4  SGN C   2      13.888 -36.160  29.3210  0.00  0.00     0.000 O
BRANCH 19 23
ATOM     20  C1  SGN C   2      11.545 -34.670  26.2030  0.00  0.00     0.000 C
ATOM     21  C2  SGN C   2      12.985 -34.149  26.2870  0.00  0.00     0.000 C
ATOM     22  C3  SGN C   2      13.819 -35.077  27.1660  0.00  0.00     0.000 C
ATOM     23  C4  SGN C   2      13.174 -35.198  28.5420  0.00  0.00     0.000 C
ATOM     24  C5  SGN C   2      11.715 -35.636  28.3960  0.00  0.00     0.000 C
ATOM     25  O5  SGN C   2      11.019 -34.732  27.5190  0.00  0.00     0.000 O
ATOM     26   O  SGN C   2      15.155 -34.599  27.2680  0.00  0.00     0.000 O
ATOM     28  HD  SGN C   2      15.959 -34.280  27.2220  0.00  0.00     0.000 HD
BRANCH 21 30
ATOM     28   N  SGN C   2      13.730 -33.871  25.0530  0.00  0.00     0.000 N
ATOM     30  HD  SGN C   2      14.449 -33.392  25.1120  0.00  0.00     0.000 HD
ATOM     30   S  SGN C   2      13.486 -32.525  24.2220  0.00  0.00     0.000 S
ATOM     31   O  SGN C   2      13.658 -31.468  25.1590  0.00  0.00     0.000 OA
ATOM     32   O  SGN C   2      14.282 -32.570  23.0510  0.00  0.00     0.000 OA
ATOM     33   O  SGN C   2      11.991 -32.627  23.7630  0.00  0.00     0.000 OA
ENDBRANCH 21 30
BRANCH 24 34
ATOM     34   C  SGN C   2      10.949 -35.641  29.6980  0.00  0.00     0.000 C
ATOM     35   O  SGN C   2      10.848 -36.994  30.1750  0.00  0.00     0.000 O
ATOM     36   S  SGN C   2       9.707 -37.301  31.2500  0.00  0.00     0.000 S
ATOM     37   O  SGN C   2       8.484 -36.819  30.6370  0.00  0.00     0.000 OA
ATOM     38   O  SGN C   2       9.728 -38.731  31.4420  0.00  0.00     0.000 OA
ATOM     39   O  SGN C   2      10.114 -36.551  32.4130  0.00  0.00     0.000 OA
ENDBRANCH 24 34
BRANCH 20 40
ATOM     40  O4  IDS C   3      11.348 -35.838  25.5970  0.00  0.00     0.000 O
BRANCH 40 44
ATOM     41  C1  IDS C   3      10.733 -38.235  23.0870  0.00  0.00     0.000 C
ATOM     42  C2  IDS C   3      10.848 -36.749  22.7600  0.00  0.00     0.000 C
ATOM     43  C3  IDS C   3       9.917 -35.935  23.6560  0.00  0.00     0.000 C
ATOM     44  C4  IDS C   3      10.083 -36.303  25.1220  0.00  0.00     0.000 C
ATOM     45  C5  IDS C   3       9.993 -37.834  25.2920  0.00  0.00     0.000 C
ATOM     46  O5  IDS C   3      10.979 -38.464  24.4720  0.00  0.00     0.000 O
ATOM     47   O  IDS C   3       8.567 -36.146  23.2520  0.00  0.00     0.000 O
ATOM     49  HD  IDS C   3       9.353 -35.797  23.1490  0.00  0.00     0.000 HD
BRANCH 42 49
ATOM     49   O  IDS C   3      12.238 -36.286  22.9760  0.00  0.00     0.000 O
ATOM     50   S  IDS C   3      13.149 -35.896  21.7170  0.00  0.00     0.000 S
ATOM     51   O  IDS C   3      12.574 -34.649  21.2630  0.00  0.00     0.000 OA
ATOM     52   O  IDS C   3      13.066 -36.947  20.7170  0.00  0.00     0.000 OA
ATOM     53   O  IDS C   3      14.494 -35.741  22.2320  0.00  0.00     0.000 OA
ENDBRANCH 42 49
BRANCH 45 54
ATOM     54   C  IDS C   3      10.189 -38.293  26.7290  0.00  0.00     0.000 C
ATOM     55   O  IDS C   3       9.311 -38.121  27.5350  0.00  0.00     0.000 OA
ATOM     56   O  IDS C   3      11.235 -38.815  27.0620  0.00  0.00     0.000 OA
ENDBRANCH 45 54
BRANCH 41 57
ATOM     57  O4  SGN C   4       9.617 -38.680  22.4970  0.00  0.00     0.000 O
BRANCH 57 61
ATOM     58  C1  SGN C   4       8.265 -42.597  21.8950  0.00  0.00     0.000 C
ATOM     59  C2  SGN C   4       9.531 -42.426  22.7490  0.00  0.00     0.000 C
ATOM     60  C3  SGN C   4       9.683 -40.978  23.2320  0.00  0.00     0.000 C
ATOM     61  C4  SGN C   4       9.629 -40.037  22.0400  0.00  0.00     0.000 C
ATOM     62  C5  SGN C   4       8.362 -40.281  21.2220  0.00  0.00     0.000 C
ATOM     63  O5  SGN C   4       8.273 -41.663  20.8250  0.00  0.00     0.000 O
BRANCH 59 66
ATOM     64   N  SGN C   4       9.452 -43.448  23.7990  0.00  0.00     0.000 N
ATOM     66  HD  SGN C   4       9.671 -42.754  23.3290  0.00  0.00     0.000 HD
ATOM     66   O  SGN C   4      10.262 -45.392  25.0220  0.00  0.00     0.000 OA
ATOM     67   O  SGN C   4      10.474 -45.307  22.5740  0.00  0.00     0.000 OA
ATOM     68   S  SGN C   4      10.617 -44.543  23.9360  0.00  0.00     0.000 S
ATOM     69   O  SGN C   4      11.864 -43.868  23.9580  0.00  0.00     0.000 OA
ENDBRANCH 59 66
BRANCH 62 70
ATOM     70   C  SGN C   4       8.349 -39.454  19.9610  0.00  0.00     0.000 C
ATOM     71   S  SGN C   4       9.832 -38.563  18.0690  0.00  0.00     0.000 S
ATOM     72   O  SGN C   4       8.817 -38.954  17.1100  0.00  0.00     0.000 OA
ATOM     73   O  SGN C   4       9.653 -37.219  18.5780  0.00  0.00     0.000 OA
ATOM     74   O  SGN C   4      11.180 -38.847  17.6330  0.00  0.00     0.000 OA
ATOM     75   O  SGN C   4       9.618 -39.540  19.3030  0.00  0.00     0.000 O
ENDBRANCH 62 70
ENDBRANCH 57 61
ENDBRANCH 41 57
ENDBRANCH 40 44
ENDBRANCH 20 40
ENDBRANCH 19 23
ENDBRANCH 1 19
TORSDOF 14
ENDMDL
MODEL 54
REMARK VINA RESULT:      -5.9     21.772     25.138
ROOT
ATOM      1  C1  IDS C   1      13.939 -15.193  43.5310  0.00  0.00     0.000 C
ATOM      2  C2  IDS C   1      15.130 -14.517  42.8770  0.00  0.00     0.000 C
ATOM      3  C3  IDS C   1      15.268 -14.952  41.4240  0.00  0.00     0.000 C
ATOM      4  C4  IDS C   1      13.948 -14.788  40.6710  0.00  0.00     0.000 C
ATOM      5  C5  IDS C   1      12.795 -15.429  41.4690  0.00  0.00     0.000 C
ATOM      6  O5  IDS C   1      12.753 -14.904  42.7920  0.00  0.00     0.000 O
ATOM      7   O  IDS C   1      15.708 -16.310  41.3730  0.00  0.00     0.000 O
ATOM      9  HD  IDS C   1      15.284 -16.251  40.6200  0.00  0.00     0.000 HD
ATOM      9   O  IDS C   1      13.683 -13.388  40.4920  0.00  0.00     0.000 O
ATOM     11  HD  IDS C   1      13.259 -13.329  39.7400  0.00  0.00     0.000 HD
ENDROOT
BRANCH 2 11
ATOM     11   O  IDS C   1      14.955 -13.047  42.8920  0.00  0.00     0.000 O
ATOM     12   S  IDS C   1      16.217 -12.079  43.0420  0.00  0.00     0.000 S
ATOM     13   O  IDS C   1      15.834 -10.947  42.2270  0.00  0.00     0.000 OA
ATOM     14   O  IDS C   1      17.397 -12.751  42.5540  0.00  0.00     0.000 OA
ATOM     15   O  IDS C   1      16.278 -11.777  44.4510  0.00  0.00     0.000 OA
ENDBRANCH 2 11
BRANCH 5 16
ATOM     16   C  IDS C   1      11.433 -15.206  40.8400  0.00  0.00     0.000 C
ATOM     17   O  IDS C   1      10.440 -15.469  41.4850  0.00  0.00     0.000 OA
ATOM     18   O  IDS C   1      11.334 -14.793  39.7170  0.00  0.00     0.000 OA
ENDBRANCH 5 16
BRANCH 1 19
ATOM     19  O4  SGN C   2      14.064 -16.451  43.9650  0.00  0.00     0.000 O
BRANCH 19 23
ATOM     20  C1  SGN C   2      12.425 -19.419  46.4000  0.00  0.00     0.000 C
ATOM     21  C2  SGN C   2      11.646 -19.071  45.1260  0.00  0.00     0.000 C
ATOM     22  C3  SGN C   2      12.555 -18.323  44.1540  0.00  0.00     0.000 C
ATOM     23  C4  SGN C   2      13.121 -17.082  44.8330  0.00  0.00     0.000 C
ATOM     24  C5  SGN C   2      13.812 -17.475  46.1420  0.00  0.00     0.000 C
ATOM     25  O5  SGN C   2      12.897 -18.211  46.9750  0.00  0.00     0.000 O
ATOM     26   O  SGN C   2      11.843 -17.978  42.9710  0.00  0.00     0.000 O
ATOM     28  HD  SGN C   2      11.360 -17.868  42.2610  0.00  0.00     0.000 HD
BRANCH 21 30
ATOM     28   N  SGN C   2      10.679 -19.985  45.7500  0.00  0.00     0.000 N
ATOM     30  HD  SGN C   2      10.848 -20.834  45.7220  0.00  0.00     0.000 HD
ATOM     30   S  SGN C   2       9.523 -20.681  44.8900  0.00  0.00     0.000 S
ATOM     31   O  SGN C   2      10.191 -21.320  43.8080  0.00  0.00     0.000 OA
ATOM     32   O  SGN C   2       8.708 -21.439  45.7650  0.00  0.00     0.000 OA
ATOM     33   O  SGN C   2       8.655 -19.481  44.3790  0.00  0.00     0.000 OA
ENDBRANCH 21 30
BRANCH 24 34
ATOM     34   C  SGN C   2      14.277 -16.294  46.9620  0.00  0.00     0.000 C
ATOM     35   O  SGN C   2      13.162 -15.413  47.1870  0.00  0.00     0.000 O
ATOM     36   S  SGN C   2      13.498 -13.909  47.6040  0.00  0.00     0.000 S
ATOM     37   O  SGN C   2      14.400 -13.434  46.5730  0.00  0.00     0.000 OA
ATOM     38   O  SGN C   2      12.231 -13.218  47.6210  0.00  0.00     0.000 OA
ATOM     39   O  SGN C   2      14.109 -14.036  48.9040  0.00  0.00     0.000 OA
ENDBRANCH 24 34
BRANCH 20 40
ATOM     40  O4  IDS C   3      13.437 -20.275  46.2880  0.00  0.00     0.000 O
BRANCH 40 44
ATOM     41  C1  IDS C   3      15.206 -23.250  46.9600  0.00  0.00     0.000 C
ATOM     42  C2  IDS C   3      13.885 -22.932  47.6550  0.00  0.00     0.000 C
ATOM     43  C3  IDS C   3      13.935 -21.541  48.2820  0.00  0.00     0.000 C
ATOM     44  C4  IDS C   3      14.429 -20.496  47.2940  0.00  0.00     0.000 C
ATOM     45  C5  IDS C   3      15.740 -20.973  46.6360  0.00  0.00     0.000 C
ATOM     46  O5  IDS C   3      15.525 -22.239  46.0080  0.00  0.00     0.000 O
ATOM     47   O  IDS C   3      14.786 -21.568  49.4260  0.00  0.00     0.000 O
ATOM     49  HD  IDS C   3      14.043 -21.745  49.0180  0.00  0.00     0.000 HD
BRANCH 42 49
ATOM     49   O  IDS C   3      12.772 -22.971  46.6780  0.00  0.00     0.000 O
ATOM     50   S  IDS C   3      11.496 -23.897  46.9640  0.00  0.00     0.000 S
ATOM     51   O  IDS C   3      10.817 -23.205  48.0380  0.00  0.00     0.000 OA
ATOM     52   O  IDS C   3      11.941 -25.226  47.3500  0.00  0.00     0.000 OA
ATOM     53   O  IDS C   3      10.734 -23.914  45.7340  0.00  0.00     0.000 OA
ENDBRANCH 42 49
BRANCH 45 54
ATOM     54   C  IDS C   3      16.283 -20.000  45.6010  0.00  0.00     0.000 C
ATOM     55   O  IDS C   3      16.950 -19.063  45.9550  0.00  0.00     0.000 OA
ATOM     56   O  IDS C   3      16.029 -20.163  44.4230  0.00  0.00     0.000 OA
ENDBRANCH 45 54
BRANCH 41 57
ATOM     57  O4  SGN C   4      16.075 -23.605  47.9140  0.00  0.00     0.000 O
BRANCH 57 61
ATOM     58  C1  SGN C   4      20.042 -24.940  48.0020  0.00  0.00     0.000 C
ATOM     59  C2  SGN C   4      19.660 -23.982  46.8620  0.00  0.00     0.000 C
ATOM     60  C3  SGN C   4      18.342 -23.257  47.1650  0.00  0.00     0.000 C
ATOM     61  C4  SGN C   4      17.262 -24.277  47.4830  0.00  0.00     0.000 C
ATOM     62  C5  SGN C   4      17.721 -25.211  48.6030  0.00  0.00     0.000 C
ATOM     63  O5  SGN C   4      18.972 -25.837  48.2610  0.00  0.00     0.000 O
BRANCH 59 66
ATOM     64   N  SGN C   4      20.793 -23.082  46.6240  0.00  0.00     0.000 N
ATOM     66  HD  SGN C   4      20.015 -23.462  46.6040  0.00  0.00     0.000 HD
ATOM     66   O  SGN C   4      22.632 -22.186  45.3020  0.00  0.00     0.000 OA
ATOM     67   O  SGN C   4      22.201 -24.606  45.3220  0.00  0.00     0.000 OA
ATOM     68   S  SGN C   4      21.598 -23.162  45.2380  0.00  0.00     0.000 S
ATOM     69   O  SGN C   4      20.661 -23.114  44.1730  0.00  0.00     0.000 OA
ENDBRANCH 59 66
BRANCH 62 70
ATOM     70   C  SGN C   4      16.723 -26.316  48.8460  0.00  0.00     0.000 C
ATOM     71   S  SGN C   4      15.434 -28.213  47.7010  0.00  0.00     0.000 S
ATOM     72   O  SGN C   4      15.771 -29.089  48.8050  0.00  0.00     0.000 OA
ATOM     73   O  SGN C   4      14.200 -27.481  47.9040  0.00  0.00     0.000 OA
ATOM     74   O  SGN C   4      15.526 -28.851  46.4070  0.00  0.00     0.000 OA
ATOM     75   O  SGN C   4      16.595 -27.130  47.6740  0.00  0.00     0.000 O
ENDBRANCH 62 70
ENDBRANCH 57 61
ENDBRANCH 41 57
ENDBRANCH 40 44
ENDBRANCH 20 40
ENDBRANCH 19 23
ENDBRANCH 1 19
TORSDOF 14
ENDMDL
MODEL 55
REMARK VINA RESULT:      -5.8     29.266     33.700
ROOT
ATOM      1  C1  IDS C   1      38.767 -63.121  25.0470  0.00  0.00     0.000 C
ATOM      2  C2  IDS C   1      39.392 -64.499  24.9100  0.00  0.00     0.000 C
ATOM      3  C3  IDS C   1      38.581 -65.538  25.6740  0.00  0.00     0.000 C
ATOM      4  C4  IDS C   1      37.100 -65.467  25.3000  0.00  0.00     0.000 C
ATOM      5  C5  IDS C   1      36.598 -64.012  25.3830  0.00  0.00     0.000 C
ATOM      6  O5  IDS C   1      37.416 -63.156  24.5920  0.00  0.00     0.000 O
ATOM      7   O  IDS C   1      38.752 -65.337  27.0780  0.00  0.00     0.000 O
ATOM      9  HD  IDS C   1      37.970 -65.710  27.0640  0.00  0.00     0.000 HD
ATOM      9   O  IDS C   1      36.935 -65.952  23.9580  0.00  0.00     0.000 O
ATOM     11  HD  IDS C   1      36.153 -66.325  23.9440  0.00  0.00     0.000 HD
ENDROOT
BRANCH 2 11
ATOM     11   O  IDS C   1      39.421 -64.907  23.4880  0.00  0.00     0.000 O
ATOM     12   S  IDS C   1      39.968 -63.910  22.3660  0.00  0.00     0.000 S
ATOM     13   O  IDS C   1      40.598 -64.816  21.4310  0.00  0.00     0.000 OA
ATOM     14   O  IDS C   1      40.896 -62.980  22.9630  0.00  0.00     0.000 OA
ATOM     15   O  IDS C   1      38.786 -63.273  21.8390  0.00  0.00     0.000 OA
ENDBRANCH 2 11
BRANCH 5 16
ATOM     16   C  IDS C   1      35.164 -63.845  24.9140  0.00  0.00     0.000 C
ATOM     17   O  IDS C   1      34.263 -64.140  25.6700  0.00  0.00     0.000 OA
ATOM     18   O  IDS C   1      34.921 -63.443  23.8090  0.00  0.00     0.000 OA
ENDBRANCH 5 16
BRANCH 1 19
ATOM     19  O4  SGN C   2      38.991 -62.415  26.1590  0.00  0.00     0.000 O
BRANCH 19 23
ATOM     20  C1  SGN C   2      39.935 -58.655  27.7060  0.00  0.00     0.000 C
ATOM     21  C2  SGN C   2      38.601 -58.772  26.9600  0.00  0.00     0.000 C
ATOM     22  C3  SGN C   2      38.202 -60.241  26.8460  0.00  0.00     0.000 C
ATOM     23  C4  SGN C   2      39.313 -61.023  26.1550  0.00  0.00     0.000 C
ATOM     24  C5  SGN C   2      40.639 -60.801  26.8890  0.00  0.00     0.000 C
ATOM     25  O5  SGN C   2      40.911 -59.391  26.9880  0.00  0.00     0.000 O
ATOM     26   O  SGN C   2      36.972 -60.371  26.1410  0.00  0.00     0.000 O
ATOM     28  HD  SGN C   2      36.192 -60.357  25.7660  0.00  0.00     0.000 HD
BRANCH 21 30
ATOM     28   N  SGN C   2      37.430 -58.006  27.4070  0.00  0.00     0.000 N
ATOM     30  HD  SGN C   2      36.770 -57.915  26.8540  0.00  0.00     0.000 HD
ATOM     30   S  SGN C   2      37.285 -56.447  27.0770  0.00  0.00     0.000 S
ATOM     31   O  SGN C   2      37.442 -56.344  25.6660  0.00  0.00     0.000 OA
ATOM     32   O  SGN C   2      36.105 -55.966  27.6950  0.00  0.00     0.000 OA
ATOM     33   O  SGN C   2      38.494 -55.786  27.8230  0.00  0.00     0.000 OA
ENDBRANCH 21 30
BRANCH 24 34
ATOM     34   C  SGN C   2      41.829 -61.417  26.1930  0.00  0.00     0.000 C
ATOM     35   O  SGN C   2      43.031 -60.999  26.8630  0.00  0.00     0.000 O
ATOM     36   S  SGN C   2      44.398 -61.127  26.0480  0.00  0.00     0.000 S
ATOM     37   O  SGN C   2      44.157 -60.413  24.8100  0.00  0.00     0.000 OA
ATOM     38   O  SGN C   2      45.405 -60.513  26.8790  0.00  0.00     0.000 OA
ATOM     39   O  SGN C   2      44.571 -62.549  25.8800  0.00  0.00     0.000 OA
ENDBRANCH 24 34
BRANCH 20 40
ATOM     40  O4  IDS C   3      39.960 -59.025  28.9850  0.00  0.00     0.000 O
BRANCH 40 44
ATOM     41  C1  IDS C   3      39.602 -59.218  32.4860  0.00  0.00     0.000 C
ATOM     42  C2  IDS C   3      38.961 -58.092  31.6800  0.00  0.00     0.000 C
ATOM     43  C3  IDS C   3      40.001 -57.420  30.7870  0.00  0.00     0.000 C
ATOM     44  C4  IDS C   3      40.796 -58.437  29.9840  0.00  0.00     0.000 C
ATOM     45  C5  IDS C   3      41.339 -59.537  30.9200  0.00  0.00     0.000 C
ATOM     46  O5  IDS C   3      40.253 -60.145  31.6220  0.00  0.00     0.000 O
ATOM     47   O  IDS C   3      40.883 -56.641  31.5920  0.00  0.00     0.000 O
ATOM     49  HD  IDS C   3      40.122 -56.782  31.2030  0.00  0.00     0.000 HD
BRANCH 42 49
ATOM     49   O  IDS C   3      37.879 -58.631  30.8230  0.00  0.00     0.000 O
ATOM     50   S  IDS C   3      36.361 -58.195  31.0930  0.00  0.00     0.000 S
ATOM     51   O  IDS C   3      36.325 -56.820  30.6470  0.00  0.00     0.000 OA
ATOM     52   O  IDS C   3      36.064 -58.331  32.5100  0.00  0.00     0.000 OA
ATOM     53   O  IDS C   3      35.545 -59.072  30.2810  0.00  0.00     0.000 OA
ENDBRANCH 42 49
BRANCH 45 54
ATOM     54   C  IDS C   3      42.116 -60.621  30.1890  0.00  0.00     0.000 C
ATOM     55   O  IDS C   3      41.559 -61.635  29.8600  0.00  0.00     0.000 OA
ATOM     56   O  IDS C   3      43.300 -60.467  29.9560  0.00  0.00     0.000 OA
ENDBRANCH 45 54
BRANCH 41 57
ATOM     57  O4  SGN C   4      40.251 -58.647  33.5080  0.00  0.00     0.000 O
BRANCH 57 61
ATOM     58  C1  SGN C   4      42.537 -59.923  36.7750  0.00  0.00     0.000 C
ATOM     59  C2  SGN C   4      42.768 -60.654  35.4420  0.00  0.00     0.000 C
ATOM     60  C3  SGN C   4      42.202 -59.849  34.2640  0.00  0.00     0.000 C
ATOM     61  C4  SGN C   4      40.741 -59.523  34.5280  0.00  0.00     0.000 C
ATOM     62  C5  SGN C   4      40.583 -58.827  35.8790  0.00  0.00     0.000 C
ATOM     63  O5  SGN C   4      41.158 -59.625  36.9310  0.00  0.00     0.000 O
BRANCH 59 66
ATOM     64   N  SGN C   4      44.160 -61.064  35.6570  0.00  0.00     0.000 N
ATOM     66  HD  SGN C   4      43.434 -60.727  35.3250  0.00  0.00     0.000 HD
ATOM     66   O  SGN C   4      46.124 -62.440  35.2290  0.00  0.00     0.000 OA
ATOM     67   O  SGN C   4      43.892 -63.469  35.2820  0.00  0.00     0.000 OA
ATOM     68   S  SGN C   4      44.778 -62.270  34.7980  0.00  0.00     0.000 S
ATOM     69   O  SGN C   4      44.513 -62.024  33.4260  0.00  0.00     0.000 OA
ENDBRANCH 59 66
BRANCH 62 70
ATOM     70   C  SGN C   4      39.131 -58.613  36.2250  0.00  0.00     0.000 C
ATOM     71   S  SGN C   4      36.852 -59.779  36.3470  0.00  0.00     0.000 S
ATOM     72   O  SGN C   4      36.630 -59.179  37.6480  0.00  0.00     0.000 OA
ATOM     73   O  SGN C   4      36.386 -58.956  35.2490  0.00  0.00     0.000 OA
ATOM     74   O  SGN C   4      36.424 -61.156  36.2650  0.00  0.00     0.000 OA
ATOM     75   O  SGN C   4      38.431 -59.862  36.2030  0.00  0.00     0.000 O
ENDBRANCH 62 70
ENDBRANCH 57 61
ENDBRANCH 41 57
ENDBRANCH 40 44
ENDBRANCH 20 40
ENDBRANCH 19 23
ENDBRANCH 1 19
TORSDOF 14
ENDMDL
MODEL 56
REMARK VINA RESULT:      -5.8     38.685     45.516
ROOT
ATOM      1  C1  IDS C   1      48.506 -65.085  48.6820  0.00  0.00     0.000 C
ATOM      2  C2  IDS C   1      47.897 -63.833  49.2890  0.00  0.00     0.000 C
ATOM      3  C3  IDS C   1      46.375 -63.884  49.2180  0.00  0.00     0.000 C
ATOM      4  C4  IDS C   1      45.839 -65.197  49.7880  0.00  0.00     0.000 C
ATOM      5  C5  IDS C   1      46.593 -66.393  49.1720  0.00  0.00     0.000 C
ATOM      6  O5  IDS C   1      47.997 -66.241  49.3460  0.00  0.00     0.000 O
ATOM      7   O  IDS C   1      45.956 -63.719  47.8620  0.00  0.00     0.000 O
ATOM      9  HD  IDS C   1      45.293 -64.176  48.1800  0.00  0.00     0.000 HD
ATOM      9   O  IDS C   1      46.027 -65.199  51.2120  0.00  0.00     0.000 O
ATOM     11  HD  IDS C   1      45.363 -65.655  51.5300  0.00  0.00     0.000 HD
ENDROOT
BRANCH 2 11
ATOM     11   O  IDS C   1      48.277 -63.720  50.7150  0.00  0.00     0.000 O
ATOM     12   S  IDS C   1      49.292 -62.585  51.1980  0.00  0.00     0.000 S
ATOM     13   O  IDS C   1      48.784 -62.259  52.5130  0.00  0.00     0.000 OA
ATOM     14   O  IDS C   1      49.239 -61.473  50.2810  0.00  0.00     0.000 OA
ATOM     15   O  IDS C   1      50.578 -63.237  51.2260  0.00  0.00     0.000 OA
ENDBRANCH 2 11
BRANCH 5 16
ATOM     16   C  IDS C   1      46.194 -67.728  49.7750  0.00  0.00     0.000 C
ATOM     17   O  IDS C   1      46.841 -68.714  49.4900  0.00  0.00     0.000 OA
ATOM     18   O  IDS C   1      45.248 -67.814  50.5080  0.00  0.00     0.000 OA
ENDBRANCH 5 16
BRANCH 1 19
ATOM     19  O4  SGN C   2      48.615 -65.174  47.3530  0.00  0.00     0.000 O
BRANCH 19 23
ATOM     20  C1  SGN C   2      50.823 -66.793  44.2020  0.00  0.00     0.000 C
ATOM     21  C2  SGN C   2      49.890 -67.754  44.9490  0.00  0.00     0.000 C
ATOM     22  C3  SGN C   2      48.861 -66.957  45.7470  0.00  0.00     0.000 C
ATOM     23  C4  SGN C   2      49.576 -66.003  46.6960  0.00  0.00     0.000 C
ATOM     24  C5  SGN C   2      50.557 -65.128  45.9120  0.00  0.00     0.000 C
ATOM     25  O5  SGN C   2      51.457 -65.959  45.1570  0.00  0.00     0.000 O
ATOM     26   O  SGN C   2      47.996 -67.834  46.4600  0.00  0.00     0.000 O
ATOM     28  HD  SGN C   2      47.474 -68.433  46.8030  0.00  0.00     0.000 HD
BRANCH 21 30
ATOM     28   N  SGN C   2      49.425 -68.653  43.8850  0.00  0.00     0.000 N
ATOM     30  HD  SGN C   2      48.755 -69.174  44.0570  0.00  0.00     0.000 HD
ATOM     30   S  SGN C   2      49.946 -70.163  43.7880  0.00  0.00     0.000 S
ATOM     31   O  SGN C   2      49.695 -70.731  45.0690  0.00  0.00     0.000 OA
ATOM     32   O  SGN C   2      49.390 -70.757  42.6290  0.00  0.00     0.000 OA
ATOM     33   O  SGN C   2      51.486 -70.017  43.5340  0.00  0.00     0.000 OA
ENDBRANCH 21 30
BRANCH 24 34
ATOM     34   C  SGN C   2      51.421 -64.250  46.7870  0.00  0.00     0.000 C
ATOM     35   O  SGN C   2      50.893 -62.912  46.7720  0.00  0.00     0.000 O
ATOM     36   S  SGN C   2      51.879 -61.739  47.2210  0.00  0.00     0.000 S
ATOM     37   O  SGN C   2      53.050 -61.899  46.3820  0.00  0.00     0.000 OA
ATOM     38   O  SGN C   2      51.161 -60.511  46.9750  0.00  0.00     0.000 OA
ATOM     39   O  SGN C   2      52.119 -62.001  48.6190  0.00  0.00     0.000 OA
ENDBRANCH 24 34
BRANCH 20 40
ATOM     40  O4  IDS C   3      50.289 -66.036  43.2460  0.00  0.00     0.000 O
BRANCH 40 44
ATOM     41  C1  IDS C   3      48.872 -64.559  40.3760  0.00  0.00     0.000 C
ATOM     42  C2  IDS C   3      48.946 -66.074  40.5390  0.00  0.00     0.000 C
ATOM     43  C3  IDS C   3      50.372 -66.503  40.8790  0.00  0.00     0.000 C
ATOM     44  C4  IDS C   3      50.947 -65.686  42.0260  0.00  0.00     0.000 C
ATOM     45  C5  IDS C   3      50.757 -64.181  41.7460  0.00  0.00     0.000 C
ATOM     46  O5  IDS C   3      49.370 -63.905  41.5400  0.00  0.00     0.000 O
ATOM     47   O  IDS C   3      51.195 -66.364  39.7240  0.00  0.00     0.000 O
ATOM     49  HD  IDS C   3      50.586 -66.768  40.1880  0.00  0.00     0.000 HD
BRANCH 42 49
ATOM     49   O  IDS C   3      48.047 -66.514  41.6310  0.00  0.00     0.000 O
ATOM     50   S  IDS C   3      46.636 -67.184  41.2760  0.00  0.00     0.000 S
ATOM     51   O  IDS C   3      47.004 -68.484  40.7620  0.00  0.00     0.000 OA
ATOM     52   O  IDS C   3      45.949 -66.368  40.2880  0.00  0.00     0.000 OA
ATOM     53   O  IDS C   3      45.905 -67.257  42.5230  0.00  0.00     0.000 OA
ENDBRANCH 42 49
BRANCH 45 54
ATOM     54   C  IDS C   3      51.271 -63.290  42.8660  0.00  0.00     0.000 C
ATOM     55   O  IDS C   3      52.436 -63.326  43.1700  0.00  0.00     0.000 OA
ATOM     56   O  IDS C   3      50.504 -62.559  43.4610  0.00  0.00     0.000 OA
ENDBRANCH 45 54
BRANCH 41 57
ATOM     57  O4  SGN C   4      49.352 -64.272  39.1600  0.00  0.00     0.000 O
BRANCH 57 61
ATOM     58  C1  SGN C   4      48.450 -61.708  35.9750  0.00  0.00     0.000 C
ATOM     59  C2  SGN C   4      49.018 -61.058  37.2470  0.00  0.00     0.000 C
ATOM     60  C3  SGN C   4      49.679 -62.102  38.1560  0.00  0.00     0.000 C
ATOM     61  C4  SGN C   4      48.694 -63.224  38.4410  0.00  0.00     0.000 C
ATOM     62  C5  SGN C   4      48.150 -63.803  37.1350  0.00  0.00     0.000 C
ATOM     63  O5  SGN C   4      47.567 -62.764  36.3240  0.00  0.00     0.000 O
BRANCH 59 66
ATOM     64   N  SGN C   4      49.695 -59.905  36.6450  0.00  0.00     0.000 N
ATOM     66  HD  SGN C   4      49.509 -60.604  37.1210  0.00  0.00     0.000 HD
ATOM     66   O  SGN C   4      50.570 -57.631  36.6600  0.00  0.00     0.000 OA
ATOM     67   O  SGN C   4      48.413 -58.122  37.7310  0.00  0.00     0.000 OA
ATOM     68   S  SGN C   4      49.900 -58.563  37.5020  0.00  0.00     0.000 S
ATOM     69   O  SGN C   4      50.475 -58.913  38.7500  0.00  0.00     0.000 OA
ENDBRANCH 59 66
BRANCH 62 70
ATOM     70   C  SGN C   4      47.071 -64.825  37.3900  0.00  0.00     0.000 C
ATOM     71   S  SGN C   4      44.980 -65.906  36.3750  0.00  0.00     0.000 S
ATOM     72   O  SGN C   4      45.474 -67.208  36.7790  0.00  0.00     0.000 OA
ATOM     73   O  SGN C   4      44.169 -65.261  37.3870  0.00  0.00     0.000 OA
ATOM     74   O  SGN C   4      44.384 -65.898  35.0580  0.00  0.00     0.000 OA
ATOM     75   O  SGN C   4      46.282 -65.012  36.2090  0.00  0.00     0.000 O
ENDBRANCH 62 70
ENDBRANCH 57 61
ENDBRANCH 41 57
ENDBRANCH 40 44
ENDBRANCH 20 40
ENDBRANCH 19 23
ENDBRANCH 1 19
TORSDOF 14
ENDMDL
MODEL 57
REMARK VINA RESULT:      -5.7     16.110     19.524
ROOT
ATOM      1  C1  IDS C   1      32.039 -35.327   8.9450  0.00  0.00     0.000 C
ATOM      2  C2  IDS C   1      32.137 -34.017   8.1840  0.00  0.00     0.000 C
ATOM      3  C3  IDS C   1      33.213 -34.095   7.1080  0.00  0.00     0.000 C
ATOM      4  C4  IDS C   1      33.027 -35.333   6.2300  0.00  0.00     0.000 C
ATOM      5  C5  IDS C   1      32.845 -36.587   7.1070  0.00  0.00     0.000 C
ATOM      6  O5  IDS C   1      31.783 -36.396   8.0360  0.00  0.00     0.000 O
ATOM      7   O  IDS C   1      34.502 -34.109   7.7240  0.00  0.00     0.000 O
ATOM      9  HD  IDS C   1      34.673 -34.530   6.9870  0.00  0.00     0.000 HD
ATOM      9   O  IDS C   1      31.862 -35.152   5.4100  0.00  0.00     0.000 O
ATOM     11  HD  IDS C   1      32.033 -35.573   4.6720  0.00  0.00     0.000 HD
ENDROOT
BRANCH 2 11
ATOM     11   O  IDS C   1      30.851 -33.720   7.5130  0.00  0.00     0.000 O
ATOM     12   S  IDS C   1      29.626 -33.109   8.3370  0.00  0.00     0.000 S
ATOM     13   O  IDS C   1      28.999 -32.246   7.3590  0.00  0.00     0.000 OA
ATOM     14   O  IDS C   1      30.130 -32.390   9.4820  0.00  0.00     0.000 OA
ATOM     15   O  IDS C   1      28.822 -34.252   8.6930  0.00  0.00     0.000 OA
ENDBRANCH 2 11
BRANCH 5 16
ATOM     16   C  IDS C   1      32.539 -37.840   6.3060  0.00  0.00     0.000 C
ATOM     17   O  IDS C   1      31.411 -38.009   5.8940  0.00  0.00     0.000 OA
ATOM     18   O  IDS C   1      33.391 -38.659   6.0960  0.00  0.00     0.000 OA
ENDBRANCH 5 16
BRANCH 1 19
ATOM     19  O4  SGN C   2      32.926 -35.583   9.9120  0.00  0.00     0.000 O
BRANCH 19 23
ATOM     20  C1  SGN C   2      33.445 -36.977  13.8120  0.00  0.00     0.000 C
ATOM     21  C2  SGN C   2      32.939 -37.995  12.7830  0.00  0.00     0.000 C
ATOM     22  C3  SGN C   2      33.214 -37.482  11.3720  0.00  0.00     0.000 C
ATOM     23  C4  SGN C   2      32.566 -36.114  11.1880  0.00  0.00     0.000 C
ATOM     24  C5  SGN C   2      33.038 -35.163  12.2920  0.00  0.00     0.000 C
ATOM     25  O5  SGN C   2      32.780 -35.746  13.5820  0.00  0.00     0.000 O
ATOM     26   O  SGN C   2      32.736 -38.407  10.4030  0.00  0.00     0.000 O
ATOM     28  HD  SGN C   2      32.481 -39.051   9.8820  0.00  0.00     0.000 HD
BRANCH 21 30
ATOM     28   N  SGN C   2      33.484 -39.021  13.6830  0.00  0.00     0.000 N
ATOM     30  HD  SGN C   2      33.966 -39.650  13.3350  0.00  0.00     0.000 HD
ATOM     30   S  SGN C   2      32.718 -40.406  13.9210  0.00  0.00     0.000 S
ATOM     31   O  SGN C   2      32.501 -40.944  12.6200  0.00  0.00     0.000 OA
ATOM     32   O  SGN C   2      33.434 -41.154  14.8860  0.00  0.00     0.000 OA
ATOM     33   O  SGN C   2      31.363 -39.982  14.5830  0.00  0.00     0.000 OA
ENDBRANCH 21 30
BRANCH 24 34
ATOM     34   C  SGN C   2      32.336 -33.825  12.2810  0.00  0.00     0.000 C
ATOM     35   O  SGN C   2      32.001 -33.463  13.6320  0.00  0.00     0.000 O
ATOM     36   S  SGN C   2      30.866 -32.357  13.8250  0.00  0.00     0.000 S
ATOM     37   O  SGN C   2      29.733 -32.855  13.0700  0.00  0.00     0.000 OA
ATOM     38   O  SGN C   2      30.624 -32.291  15.2460  0.00  0.00     0.000 OA
ATOM     39   O  SGN C   2      31.451 -31.157  13.2780  0.00  0.00     0.000 OA
ENDBRANCH 24 34
BRANCH 20 40
ATOM     40  O4  IDS C   3      34.757 -36.762  13.8700  0.00  0.00     0.000 O
BRANCH 40 44
ATOM     41  C1  IDS C   3      38.256 -36.637  14.2860  0.00  0.00     0.000 C
ATOM     42  C2  IDS C   3      37.479 -37.940  14.4500  0.00  0.00     0.000 C
ATOM     43  C3  IDS C   3      36.319 -37.748  15.4250  0.00  0.00     0.000 C
ATOM     44  C4  IDS C   3      35.488 -36.523  15.0760  0.00  0.00     0.000 C
ATOM     45  C5  IDS C   3      36.409 -35.298  14.8930  0.00  0.00     0.000 C
ATOM     46  O5  IDS C   3      37.385 -35.582  13.8880  0.00  0.00     0.000 O
ATOM     47   O  IDS C   3      36.830 -37.627  16.7500  0.00  0.00     0.000 O
ATOM     49  HD  IDS C   3      36.626 -38.087  16.0450  0.00  0.00     0.000 HD
BRANCH 42 49
ATOM     49   O  IDS C   3      36.932 -38.376  13.1440  0.00  0.00     0.000 O
ATOM     50   S  IDS C   3      37.163 -39.882  12.6500  0.00  0.00     0.000 S
ATOM     51   O  IDS C   3      36.297 -40.653  13.5140  0.00  0.00     0.000 OA
ATOM     52   O  IDS C   3      38.565 -40.233  12.8070  0.00  0.00     0.000 OA
ATOM     53   O  IDS C   3      36.748 -39.914  11.2630  0.00  0.00     0.000 OA
ENDBRANCH 42 49
BRANCH 45 54
ATOM     54   C  IDS C   3      35.659 -34.034  14.5020  0.00  0.00     0.000 C
ATOM     55   O  IDS C   3      34.815 -33.590  15.2370  0.00  0.00     0.000 OA
ATOM     56   O  IDS C   3      35.902 -33.487  13.4440  0.00  0.00     0.000 OA
ENDBRANCH 45 54
BRANCH 41 57
ATOM     57  O4  SGN C   4      39.049 -36.517  15.3580  0.00  0.00     0.000 O
BRANCH 57 61
ATOM     58  C1  SGN C   4      41.495 -33.615  17.1240  0.00  0.00     0.000 C
ATOM     59  C2  SGN C   4      39.988 -33.315  17.0810  0.00  0.00     0.000 C
ATOM     60  C3  SGN C   4      39.178 -34.588  16.8020  0.00  0.00     0.000 C
ATOM     61  C4  SGN C   4      39.697 -35.254  15.5380  0.00  0.00     0.000 C
ATOM     62  C5  SGN C   4      41.202 -35.494  15.6390  0.00  0.00     0.000 C
ATOM     63  O5  SGN C   4      41.894 -34.264  15.9260  0.00  0.00     0.000 O
BRANCH 59 66
ATOM     64   N  SGN C   4      39.859 -32.098  17.8890  0.00  0.00     0.000 N
ATOM     66  HD  SGN C   4      40.036 -32.902  17.6190  0.00  0.00     0.000 HD
ATOM     66   O  SGN C   4      38.859 -30.734  19.6420  0.00  0.00     0.000 OA
ATOM     67   O  SGN C   4      37.431 -32.127  18.2070  0.00  0.00     0.000 OA
ATOM     68   S  SGN C   4      38.751 -32.022  19.0460  0.00  0.00     0.000 S
ATOM     69   O  SGN C   4      38.873 -33.177  19.8600  0.00  0.00     0.000 OA
ENDBRANCH 59 66
BRANCH 62 70
ATOM     70   C  SGN C   4      41.766 -36.030  14.3470  0.00  0.00     0.000 C
ATOM     71   S  SGN C   4      43.163 -35.398  12.2930  0.00  0.00     0.000 S
ATOM     72   O  SGN C   4      43.902 -36.637  12.4320  0.00  0.00     0.000 OA
ATOM     73   O  SGN C   4      41.981 -35.525  11.4640  0.00  0.00     0.000 OA
ATOM     74   O  SGN C   4      43.993 -34.265  11.9540  0.00  0.00     0.000 OA
ATOM     75   O  SGN C   4      42.647 -35.067  13.7580  0.00  0.00     0.000 O
ENDBRANCH 62 70
ENDBRANCH 57 61
ENDBRANCH 41 57
ENDBRANCH 40 44
ENDBRANCH 20 40
ENDBRANCH 19 23
ENDBRANCH 1 19
TORSDOF 14
ENDMDL
MODEL 58
REMARK VINA RESULT:      -5.7     19.665     23.543
ROOT
ATOM      1  C1  IDS C   1      15.516 -26.303  50.7620  0.00  0.00     0.000 C
ATOM      2  C2  IDS C   1      15.850 -27.394  51.7630  0.00  0.00     0.000 C
ATOM      3  C3  IDS C   1      16.191 -26.794  53.1220  0.00  0.00     0.000 C
ATOM      4  C4  IDS C   1      15.111 -25.815  53.5800  0.00  0.00     0.000 C
ATOM      5  C5  IDS C   1      14.785 -24.814  52.4540  0.00  0.00     0.000 C
ATOM      6  O5  IDS C   1      14.442 -25.504  51.2570  0.00  0.00     0.000 O
ATOM      7   O  IDS C   1      17.460 -26.141  53.0490  0.00  0.00     0.000 O
ATOM      9  HD  IDS C   1      17.086 -25.693  53.6890  0.00  0.00     0.000 HD
ATOM      9   O  IDS C   1      13.926 -26.553  53.9190  0.00  0.00     0.000 O
ATOM     11  HD  IDS C   1      13.552 -26.105  54.5590  0.00  0.00     0.000 HD
ENDROOT
BRANCH 2 11
ATOM     11   O  IDS C   1      14.688 -28.292  51.9470  0.00  0.00     0.000 O
ATOM     12   S  IDS C   1      14.790 -29.842  51.5720  0.00  0.00     0.000 S
ATOM     13   O  IDS C   1      13.944 -30.455  52.5720  0.00  0.00     0.000 OA
ATOM     14   O  IDS C   1      16.167 -30.266  51.6620  0.00  0.00     0.000 OA
ATOM     15   O  IDS C   1      14.256 -29.928  50.2360  0.00  0.00     0.000 OA
ENDBRANCH 2 11
BRANCH 5 16
ATOM     16   C  IDS C   1      13.638 -23.880  52.7940  0.00  0.00     0.000 C
ATOM     17   O  IDS C   1      13.890 -22.739  53.1200  0.00  0.00     0.000 OA
ATOM     18   O  IDS C   1      12.502 -24.264  52.7590  0.00  0.00     0.000 OA
ENDBRANCH 5 16
BRANCH 1 19
ATOM     19  O4  SGN C   2      16.513 -25.638  50.1690  0.00  0.00     0.000 O
BRANCH 19 23
ATOM     20  C1  SGN C   2      17.793 -23.878  46.6070  0.00  0.00     0.000 C
ATOM     21  C2  SGN C   2      16.838 -23.051  47.4750  0.00  0.00     0.000 C
ATOM     22  C3  SGN C   2      16.812 -23.612  48.8940  0.00  0.00     0.000 C
ATOM     23  C4  SGN C   2      16.418 -25.085  48.8560  0.00  0.00     0.000 C
ATOM     24  C5  SGN C   2      17.349 -25.847  47.9090  0.00  0.00     0.000 C
ATOM     25  O5  SGN C   2      17.344 -25.223  46.6120  0.00  0.00     0.000 O
ATOM     26   O  SGN C   2      15.917 -22.865  49.7090  0.00  0.00     0.000 O
ATOM     28  HD  SGN C   2      15.409 -22.320  50.1510  0.00  0.00     0.000 HD
BRANCH 21 30
ATOM     28   N  SGN C   2      16.871 -21.588  47.6010  0.00  0.00     0.000 N
ATOM     30  HD  SGN C   2      16.136 -21.182  47.8130  0.00  0.00     0.000 HD
ATOM     30   S  SGN C   2      16.469 -20.640  46.3760  0.00  0.00     0.000 S
ATOM     31   O  SGN C   2      15.177 -21.079  45.9690  0.00  0.00     0.000 OA
ATOM     32   O  SGN C   2      16.669 -19.294  46.7650  0.00  0.00     0.000 OA
ATOM     33   O  SGN C   2      17.540 -20.963  45.2790  0.00  0.00     0.000 OA
ENDBRANCH 21 30
BRANCH 24 34
ATOM     34   C  SGN C   2      16.946 -27.287  47.6910  0.00  0.00     0.000 C
ATOM     35   O  SGN C   2      18.053 -28.139  48.0330  0.00  0.00     0.000 O
ATOM     36   S  SGN C   2      18.033 -29.624  47.4480  0.00  0.00     0.000 S
ATOM     37   O  SGN C   2      17.864 -29.455  46.0180  0.00  0.00     0.000 OA
ATOM     38   O  SGN C   2      19.304 -30.203  47.8110  0.00  0.00     0.000 OA
ATOM     39   O  SGN C   2      16.905 -30.241  48.1020  0.00  0.00     0.000 OA
ENDBRANCH 24 34
BRANCH 20 40
ATOM     40  O4  IDS C   3      19.088 -23.848  46.9170  0.00  0.00     0.000 O
BRANCH 40 44
ATOM     41  C1  IDS C   3      22.372 -22.585  47.1250  0.00  0.00     0.000 C
ATOM     42  C2  IDS C   3      21.256 -21.797  46.4460  0.00  0.00     0.000 C
ATOM     43  C3  IDS C   3      20.551 -22.664  45.4050  0.00  0.00     0.000 C
ATOM     44  C4  IDS C   3      20.151 -24.015  45.9760  0.00  0.00     0.000 C
ATOM     45  C5  IDS C   3      21.363 -24.671  46.6720  0.00  0.00     0.000 C
ATOM     46  O5  IDS C   3      21.863 -23.794  47.6830  0.00  0.00     0.000 O
ATOM     47   O  IDS C   3      21.408 -22.845  44.2810  0.00  0.00     0.000 O
ATOM     49  HD  IDS C   3      20.871 -22.371  44.7680  0.00  0.00     0.000 HD
BRANCH 42 49
ATOM     49   O  IDS C   3      20.260 -21.357  47.4500  0.00  0.00     0.000 O
ATOM     50   S  IDS C   3      20.328 -19.868  48.0360  0.00  0.00     0.000 S
ATOM     51   O  IDS C   3      19.891 -19.051  46.9260  0.00  0.00     0.000 OA
ATOM     52   O  IDS C   3      21.692 -19.571  48.4440  0.00  0.00     0.000 OA
ATOM     53   O  IDS C   3      19.409 -19.837  49.1540  0.00  0.00     0.000 OA
ENDBRANCH 42 49
BRANCH 45 54
ATOM     54   C  IDS C   3      21.039 -26.014  47.3070  0.00  0.00     0.000 C
ATOM     55   O  IDS C   3      20.869 -26.979  46.6070  0.00  0.00     0.000 OA
ATOM     56   O  IDS C   3      20.935 -26.105  48.5140  0.00  0.00     0.000 OA
ENDBRANCH 45 54
BRANCH 41 57
ATOM     57  O4  SGN C   4      23.413 -22.593  46.2830  0.00  0.00     0.000 O
BRANCH 57 61
ATOM     58  C1  SGN C   4      27.536 -23.304  46.4630  0.00  0.00     0.000 C
ATOM     59  C2  SGN C   4      26.622 -24.540  46.4250  0.00  0.00     0.000 C
ATOM     60  C3  SGN C   4      25.209 -24.171  45.9520  0.00  0.00     0.000 C
ATOM     61  C4  SGN C   4      24.664 -23.044  46.8140  0.00  0.00     0.000 C
ATOM     62  C5  SGN C   4      25.635 -21.864  46.8290  0.00  0.00     0.000 C
ATOM     63  O5  SGN C   4      26.942 -22.288  47.2570  0.00  0.00     0.000 O
BRANCH 59 66
ATOM     64   N  SGN C   4      27.118 -25.653  45.6090  0.00  0.00     0.000 N
ATOM     66  HD  SGN C   4      26.679 -25.172  46.1790  0.00  0.00     0.000 HD
ATOM     66   O  SGN C   4      28.372 -27.710  45.2490  0.00  0.00     0.000 OA
ATOM     67   O  SGN C   4      29.304 -25.940  46.6760  0.00  0.00     0.000 OA
ATOM     68   S  SGN C   4      28.043 -26.781  46.2760  0.00  0.00     0.000 S
ATOM     69   O  SGN C   4      27.404 -27.244  47.4550  0.00  0.00     0.000 OA
ENDBRANCH 59 66
BRANCH 62 70
ATOM     70   C  SGN C   4      25.182 -20.786  47.7820  0.00  0.00     0.000 C
ATOM     71   S  SGN C   4      25.600 -19.787  50.1060  0.00  0.00     0.000 S
ATOM     72   O  SGN C   4      25.553 -18.459  49.5270  0.00  0.00     0.000 OA
ATOM     73   O  SGN C   4      24.303 -20.273  50.5340  0.00  0.00     0.000 OA
ATOM     74   O  SGN C   4      26.639 -19.950  51.0960  0.00  0.00     0.000 OA
ATOM     75   O  SGN C   4      26.058 -20.732  48.9140  0.00  0.00     0.000 O
ENDBRANCH 62 70
ENDBRANCH 57 61
ENDBRANCH 41 57
ENDBRANCH 40 44
ENDBRANCH 20 40
ENDBRANCH 19 23
ENDBRANCH 1 19
TORSDOF 14
ENDMDL
MODEL 59
REMARK VINA RESULT:      -5.6     37.503     44.744
ROOT
ATOM      1  C1  IDS C   1      49.908 -65.418  45.1550  0.00  0.00     0.000 C
ATOM      2  C2  IDS C   1      49.474 -64.246  46.0170  0.00  0.00     0.000 C
ATOM      3  C3  IDS C   1      48.114 -64.515  46.6510  0.00  0.00     0.000 C
ATOM      4  C4  IDS C   1      48.093 -65.870  47.3570  0.00  0.00     0.000 C
ATOM      5  C5  IDS C   1      48.640 -66.968  46.4230  0.00  0.00     0.000 C
ATOM      6  O5  IDS C   1      49.930 -66.611  45.9380  0.00  0.00     0.000 O
ATOM      7   O  IDS C   1      47.101 -64.459  45.6450  0.00  0.00     0.000 O
ATOM      9  HD  IDS C   1      46.730 -64.994  46.2170  0.00  0.00     0.000 HD
ATOM      9   O  IDS C   1      48.911 -65.796  48.5350  0.00  0.00     0.000 O
ATOM     11  HD  IDS C   1      48.540 -66.330  49.1060  0.00  0.00     0.000 HD
ENDROOT
BRANCH 2 11
ATOM     11   O  IDS C   1      50.445 -64.030  47.1130  0.00  0.00     0.000 O
ATOM     12   S  IDS C   1      51.599 -62.933  46.9730  0.00  0.00     0.000 S
ATOM     13   O  IDS C   1      51.729 -62.451  48.3300  0.00  0.00     0.000 OA
ATOM     14   O  IDS C   1      51.174 -61.908  46.0490  0.00  0.00     0.000 OA
ATOM     15   O  IDS C   1      52.748 -63.671  46.5130  0.00  0.00     0.000 OA
ENDBRANCH 2 11
BRANCH 5 16
ATOM     16   C  IDS C   1      48.758 -68.324  47.0950  0.00  0.00     0.000 C
ATOM     17   O  IDS C   1      48.375 -68.444  48.2390  0.00  0.00     0.000 OA
ATOM     18   O  IDS C   1      49.235 -69.259  46.5140  0.00  0.00     0.000 OA
ENDBRANCH 5 16
BRANCH 1 19
ATOM     19  O4  SGN C   2      49.406 -65.538  43.9230  0.00  0.00     0.000 O
BRANCH 19 23
ATOM     20  C1  SGN C   2      49.989 -67.159  40.1200  0.00  0.00     0.000 C
ATOM     21  C2  SGN C   2      49.778 -68.157  41.2650  0.00  0.00     0.000 C
ATOM     22  C3  SGN C   2      49.159 -67.443  42.4640  0.00  0.00     0.000 C
ATOM     23  C4  SGN C   2      50.046 -66.276  42.8800  0.00  0.00     0.000 C
ATOM     24  C5  SGN C   2      50.295 -65.358  41.6800  0.00  0.00     0.000 C
ATOM     25  O5  SGN C   2      50.836 -66.122  40.5860  0.00  0.00     0.000 O
ATOM     26   O  SGN C   2      48.971 -68.353  43.5420  0.00  0.00     0.000 O
ATOM     28  HD  SGN C   2      48.828 -68.981  44.1210  0.00  0.00     0.000 HD
BRANCH 21 30
ATOM     28   N  SGN C   2      50.454 -69.249  40.5510  0.00  0.00     0.000 N
ATOM     30  HD  SGN C   2      50.317 -69.323  39.7000  0.00  0.00     0.000 HD
ATOM     30   S  SGN C   2      49.724 -70.650  40.2990  0.00  0.00     0.000 S
ATOM     31   O  SGN C   2      48.492 -70.324  39.6640  0.00  0.00     0.000 OA
ATOM     32   O  SGN C   2      50.638 -71.524  39.6620  0.00  0.00     0.000 OA
ATOM     33   O  SGN C   2      49.477 -71.216  41.7390  0.00  0.00     0.000 OA
ENDBRANCH 21 30
BRANCH 24 34
ATOM     34   C  SGN C   2      51.285 -64.252  41.9580  0.00  0.00     0.000 C
ATOM     35   O  SGN C   2      50.618 -62.984  41.8250  0.00  0.00     0.000 O
ATOM     36   S  SGN C   2      51.540 -61.699  41.6060  0.00  0.00     0.000 S
ATOM     37   O  SGN C   2      52.368 -62.030  40.4630  0.00  0.00     0.000 OA
ATOM     38   O  SGN C   2      50.631 -60.606  41.3590  0.00  0.00     0.000 OA
ATOM     39   O  SGN C   2      52.271 -61.579  42.8430  0.00  0.00     0.000 OA
ENDBRANCH 24 34
BRANCH 20 40
ATOM     40  O4  IDS C   3      48.905 -66.622  39.5650  0.00  0.00     0.000 O
BRANCH 40 44
ATOM     41  C1  IDS C   3      45.953 -65.869  37.7900  0.00  0.00     0.000 C
ATOM     42  C2  IDS C   3      46.468 -67.300  37.9120  0.00  0.00     0.000 C
ATOM     43  C3  IDS C   3      47.933 -67.375  37.4880  0.00  0.00     0.000 C
ATOM     44  C4  IDS C   3      48.773 -66.311  38.1760  0.00  0.00     0.000 C
ATOM     45  C5  IDS C   3      48.107 -64.929  38.0120  0.00  0.00     0.000 C
ATOM     46  O5  IDS C   3      46.778 -64.976  38.5340  0.00  0.00     0.000 O
ATOM     47   O  IDS C   3      48.024 -67.227  36.0730  0.00  0.00     0.000 O
ATOM     49  HD  IDS C   3      47.840 -67.681  36.7860  0.00  0.00     0.000 HD
BRANCH 42 49
ATOM     49   O  IDS C   3      46.356 -67.765  39.3140  0.00  0.00     0.000 O
ATOM     50   S  IDS C   3      44.958 -68.330  39.8540  0.00  0.00     0.000 S
ATOM     51   O  IDS C   3      44.837 -69.609  39.1910  0.00  0.00     0.000 OA
ATOM     52   O  IDS C   3      43.893 -67.410  39.4890  0.00  0.00     0.000 OA
ATOM     53   O  IDS C   3      45.105 -68.450  41.2890  0.00  0.00     0.000 OA
ENDBRANCH 42 49
BRANCH 45 54
ATOM     54   C  IDS C   3      48.865 -63.809  38.7070  0.00  0.00     0.000 C
ATOM     55   O  IDS C   3      49.942 -63.468  38.2900  0.00  0.00     0.000 OA
ATOM     56   O  IDS C   3      48.391 -63.274  39.6910  0.00  0.00     0.000 OA
ENDBRANCH 45 54
BRANCH 41 57
ATOM     57  O4  SGN C   4      45.690 -65.656  36.4950  0.00  0.00     0.000 O
BRANCH 57 61
ATOM     58  C1  SGN C   4      44.079 -62.631  34.0910  0.00  0.00     0.000 C
ATOM     59  C2  SGN C   4      45.364 -62.290  34.8630  0.00  0.00     0.000 C
ATOM     60  C3  SGN C   4      46.067 -63.561  35.3590  0.00  0.00     0.000 C
ATOM     61  C4  SGN C   4      45.087 -64.402  36.1600  0.00  0.00     0.000 C
ATOM     62  C5  SGN C   4      43.824 -64.677  35.3450  0.00  0.00     0.000 C
ATOM     63  O5  SGN C   4      43.234 -63.443  34.8930  0.00  0.00     0.000 O
BRANCH 59 66
ATOM     64   N  SGN C   4      45.727 -61.001  34.2640  0.00  0.00     0.000 N
ATOM     66  HD  SGN C   4      45.565 -61.842  34.3910  0.00  0.00     0.000 HD
ATOM     66   O  SGN C   4      47.305 -59.360  33.3980  0.00  0.00     0.000 OA
ATOM     67   O  SGN C   4      47.861 -60.653  35.4140  0.00  0.00     0.000 OA
ATOM     68   S  SGN C   4      47.267 -60.666  33.9630  0.00  0.00     0.000 S
ATOM     69   O  SGN C   4      47.828 -61.753  33.2440  0.00  0.00     0.000 OA
ENDBRANCH 59 66
BRANCH 62 70
ATOM     70   C  SGN C   4      42.781 -65.395  36.1640  0.00  0.00     0.000 C
ATOM     71   S  SGN C   4      41.030 -67.265  36.0810  0.00  0.00     0.000 S
ATOM     72   O  SGN C   4      41.504 -67.747  37.3630  0.00  0.00     0.000 OA
ATOM     73   O  SGN C   4      39.981 -66.272  36.1930  0.00  0.00     0.000 OA
ATOM     74   O  SGN C   4      40.733 -68.321  35.1400  0.00  0.00     0.000 OA
ATOM     75   O  SGN C   4      42.279 -66.524  35.4390  0.00  0.00     0.000 O
ENDBRANCH 62 70
ENDBRANCH 57 61
ENDBRANCH 41 57
ENDBRANCH 40 44
ENDBRANCH 20 40
ENDBRANCH 19 23
ENDBRANCH 1 19
TORSDOF 14
ENDMDL
MODEL 60
REMARK VINA RESULT:      -5.6     10.975     16.611
ROOT
ATOM      1  C1  IDS C   1      23.712 -32.091   9.9650  0.00  0.00     0.000 C
ATOM      2  C2  IDS C   1      23.869 -33.367  10.7740  0.00  0.00     0.000 C
ATOM      3  C3  IDS C   1      22.587 -34.191  10.7380  0.00  0.00     0.000 C
ATOM      4  C4  IDS C   1      22.105 -34.399   9.3020  0.00  0.00     0.000 C
ATOM      5  C5  IDS C   1      22.074 -33.054   8.5490  0.00  0.00     0.000 C
ATOM      6  O5  IDS C   1      23.343 -32.412   8.6240  0.00  0.00     0.000 O
ATOM      7   O  IDS C   1      21.580 -33.539  11.5140  0.00  0.00     0.000 O
ATOM      9  HD  IDS C   1      21.089 -33.977  10.9500  0.00  0.00     0.000 HD
ATOM      9   O  IDS C   1      23.004 -35.299   8.6340  0.00  0.00     0.000 O
ATOM     11  HD  IDS C   1      22.513 -35.737   8.0710  0.00  0.00     0.000 HD
ENDROOT
BRANCH 2 11
ATOM     11   O  IDS C   1      24.954 -34.199  10.2090  0.00  0.00     0.000 O
ATOM     12   S  IDS C   1      26.395 -34.236  10.9000  0.00  0.00     0.000 S
ATOM     13   O  IDS C   1      26.810 -35.602  10.6710  0.00  0.00     0.000 OA
ATOM     14   O  IDS C   1      26.262 -33.914  12.3010  0.00  0.00     0.000 OA
ATOM     15   O  IDS C   1      27.173 -33.269  10.1670  0.00  0.00     0.000 OA
ENDBRANCH 2 11
BRANCH 5 16
ATOM     16   C  IDS C   1      21.715 -33.197   7.0810  0.00  0.00     0.000 C
ATOM     17   O  IDS C   1      20.576 -32.969   6.7330  0.00  0.00     0.000 OA
ATOM     18   O  IDS C   1      22.536 -33.544   6.2770  0.00  0.00     0.000 OA
ENDBRANCH 5 16
BRANCH 1 19
ATOM     19  O4  SGN C   2      23.079 -31.050  10.5120  0.00  0.00     0.000 O
BRANCH 19 23
ATOM     20  C1  SGN C   2      23.212 -26.891  10.8500  0.00  0.00     0.000 C
ATOM     21  C2  SGN C   2      22.241 -27.463   9.8100  0.00  0.00     0.000 C
ATOM     22  C3  SGN C   2      21.985 -28.939  10.1000  0.00  0.00     0.000 C
ATOM     23  C4  SGN C   2      23.309 -29.695  10.1210  0.00  0.00     0.000 C
ATOM     24  C5  SGN C   2      24.270 -29.031  11.1110  0.00  0.00     0.000 C
ATOM     25  O5  SGN C   2      24.417 -27.636  10.7880  0.00  0.00     0.000 O
ATOM     26   O  SGN C   2      21.097 -29.491   9.1340  0.00  0.00     0.000 O
ATOM     28  HD  SGN C   2      20.503 -29.729   8.5510  0.00  0.00     0.000 HD
BRANCH 21 30
ATOM     28   N  SGN C   2      20.943 -26.861   9.4750  0.00  0.00     0.000 N
ATOM     30  HD  SGN C   2      20.606 -27.031   8.6960  0.00  0.00     0.000 HD
ATOM     30   S  SGN C   2      20.852 -25.479   8.6750  0.00  0.00     0.000 S
ATOM     31   O  SGN C   2      21.633 -25.672   7.5000  0.00  0.00     0.000 OA
ATOM     32   O  SGN C   2      19.489 -25.112   8.5660  0.00  0.00     0.000 OA
ATOM     33   O  SGN C   2      21.531 -24.440   9.6320  0.00  0.00     0.000 OA
ENDBRANCH 21 30
BRANCH 24 34
ATOM     34   C  SGN C   2      25.661 -29.621  11.0940  0.00  0.00     0.000 C
ATOM     35   O  SGN C   2      26.598 -28.597  10.7170  0.00  0.00     0.000 O
ATOM     36   S  SGN C   2      28.022 -29.079  10.1790  0.00  0.00     0.000 S
ATOM     37   O  SGN C   2      27.717 -29.998   9.1000  0.00  0.00     0.000 OA
ATOM     38   O  SGN C   2      28.698 -27.882   9.7390  0.00  0.00     0.000 OA
ATOM     39   O  SGN C   2      28.634 -29.705  11.3260  0.00  0.00     0.000 OA
ENDBRANCH 24 34
BRANCH 20 40
ATOM     40  O4  IDS C   3      22.797 -26.834  12.1130  0.00  0.00     0.000 O
BRANCH 40 44
ATOM     41  C1  IDS C   3      21.261 -25.804  15.1140  0.00  0.00     0.000 C
ATOM     42  C2  IDS C   3      21.072 -25.028  13.8140  0.00  0.00     0.000 C
ATOM     43  C3  IDS C   3      22.426 -24.704  13.1870  0.00  0.00     0.000 C
ATOM     44  C4  IDS C   3      23.314 -25.936  13.0980  0.00  0.00     0.000 C
ATOM     45  C5  IDS C   3      23.371 -26.642  14.4680  0.00  0.00     0.000 C
ATOM     46  O5  IDS C   3      22.046 -26.972  14.8900  0.00  0.00     0.000 O
ATOM     47   O  IDS C   3      23.073 -23.693  13.9550  0.00  0.00     0.000 O
ATOM     49  HD  IDS C   3      22.477 -23.962  13.3880  0.00  0.00     0.000 HD
BRANCH 42 49
ATOM     49   O  IDS C   3      20.284 -25.832  12.8510  0.00  0.00     0.000 O
ATOM     50   S  IDS C   3      18.786 -25.392  12.4890  0.00  0.00     0.000 S
ATOM     51   O  IDS C   3      18.972 -24.208  11.6810  0.00  0.00     0.000 OA
ATOM     52   O  IDS C   3      18.052 -25.122  13.7150  0.00  0.00     0.000 OA
ATOM     53   O  IDS C   3      18.216 -26.497  11.7470  0.00  0.00     0.000 OA
ENDBRANCH 42 49
BRANCH 45 54
ATOM     54   C  IDS C   3      24.210 -27.911  14.4570  0.00  0.00     0.000 C
ATOM     55   O  IDS C   3      23.689 -28.972  14.6870  0.00  0.00     0.000 OA
ATOM     56   O  IDS C   3      25.403 -27.847  14.2340  0.00  0.00     0.000 OA
ENDBRANCH 45 54
BRANCH 41 57
ATOM     57  O4  SGN C   4      21.594 -24.913  16.0570  0.00  0.00     0.000 O
BRANCH 57 61
ATOM     58  C1  SGN C   4      22.116 -24.947  20.2110  0.00  0.00     0.000 C
ATOM     59  C2  SGN C   4      22.562 -26.205  19.4480  0.00  0.00     0.000 C
ATOM     60  C3  SGN C   4      22.706 -25.920  17.9460  0.00  0.00     0.000 C
ATOM     61  C4  SGN C   4      21.414 -25.320  17.4170  0.00  0.00     0.000 C
ATOM     62  C5  SGN C   4      21.017 -24.095  18.2380  0.00  0.00     0.000 C
ATOM     63  O5  SGN C   4      20.924 -24.429  19.6360  0.00  0.00     0.000 O
BRANCH 59 66
ATOM     64   N  SGN C   4      23.706 -26.652  20.2480  0.00  0.00     0.000 N
ATOM     66  HD  SGN C   4      23.165 -26.483  19.5940  0.00  0.00     0.000 HD
ATOM     66   O  SGN C   4      25.082 -28.339  21.3420  0.00  0.00     0.000 OA
ATOM     67   O  SGN C   4      22.632 -28.529  21.3990  0.00  0.00     0.000 OA
ATOM     68   S  SGN C   4      23.909 -28.216  20.5450  0.00  0.00     0.000 S
ATOM     69   O  SGN C   4      23.826 -28.919  19.3150  0.00  0.00     0.000 OA
ENDBRANCH 59 66
BRANCH 62 70
ATOM     70   C  SGN C   4      19.670 -23.560  17.8190  0.00  0.00     0.000 C
ATOM     71   S  SGN C   4      17.897 -21.792  18.3690  0.00  0.00     0.000 S
ATOM     72   O  SGN C   4      17.791 -21.479  16.9580  0.00  0.00     0.000 OA
ATOM     73   O  SGN C   4      16.996 -22.844  18.7940  0.00  0.00     0.000 OA
ATOM     74   O  SGN C   4      17.874 -20.626  19.2220  0.00  0.00     0.000 OA
ATOM     75   O  SGN C   4      19.368 -22.364  18.5480  0.00  0.00     0.000 O
ENDBRANCH 62 70
ENDBRANCH 57 61
ENDBRANCH 41 57
ENDBRANCH 40 44
ENDBRANCH 20 40
ENDBRANCH 19 23
ENDBRANCH 1 19
TORSDOF 14
ENDMDL
MODEL 61
REMARK VINA RESULT:      -5.6     14.998     20.615
ROOT
ATOM      1  C1  IDS C   1      31.791 -31.770  12.5220  0.00  0.00     0.000 C
ATOM      2  C2  IDS C   1      31.652 -30.936  13.7830  0.00  0.00     0.000 C
ATOM      3  C3  IDS C   1      31.194 -31.797  14.9530  0.00  0.00     0.000 C
ATOM      4  C4  IDS C   1      32.072 -33.039  15.1030  0.00  0.00     0.000 C
ATOM      5  C5  IDS C   1      32.220 -33.754  13.7450  0.00  0.00     0.000 C
ATOM      6  O5  IDS C   1      32.696 -32.849  12.7540  0.00  0.00     0.000 O
ATOM      7   O  IDS C   1      29.828 -32.170  14.7630  0.00  0.00     0.000 O
ATOM      9  HD  IDS C   1      30.108 -32.829  15.2510  0.00  0.00     0.000 HD
ATOM      9   O  IDS C   1      33.369 -32.639  15.5740  0.00  0.00     0.000 O
ATOM     11  HD  IDS C   1      33.648 -33.298  16.0620  0.00  0.00     0.000 HD
ENDROOT
BRANCH 2 11
ATOM     11   O  IDS C   1      32.957 -30.340  14.1470  0.00  0.00     0.000 O
ATOM     12   S  IDS C   1      33.131 -28.753  14.2340  0.00  0.00     0.000 S
ATOM     13   O  IDS C   1      34.079 -28.608  15.3170  0.00  0.00     0.000 OA
ATOM     14   O  IDS C   1      31.853 -28.147  14.5180  0.00  0.00     0.000 OA
ATOM     15   O  IDS C   1      33.665 -28.376  12.9490  0.00  0.00     0.000 OA
ENDBRANCH 2 11
BRANCH 5 16
ATOM     16   C  IDS C   1      33.174 -34.934  13.7890  0.00  0.00     0.000 C
ATOM     17   O  IDS C   1      32.921 -35.916  13.1230  0.00  0.00     0.000 OA
ATOM     18   O  IDS C   1      34.154 -34.907  14.4820  0.00  0.00     0.000 OA
ENDBRANCH 5 16
BRANCH 1 19
ATOM     19  O4  SGN C   2      30.696 -32.068  11.8170  0.00  0.00     0.000 O
BRANCH 19 23
ATOM     20  C1  SGN C   2      29.217 -33.074   8.0450  0.00  0.00     0.000 C
ATOM     21  C2  SGN C   2      29.990 -34.168   8.7920  0.00  0.00     0.000 C
ATOM     22  C3  SGN C   2      30.078 -33.817  10.2750  0.00  0.00     0.000 C
ATOM     23  C4  SGN C   2      30.725 -32.447  10.4400  0.00  0.00     0.000 C
ATOM     24  C5  SGN C   2      29.967 -31.410   9.6060  0.00  0.00     0.000 C
ATOM     25  O5  SGN C   2      29.896 -31.844   8.2360  0.00  0.00     0.000 O
ATOM     26   O  SGN C   2      30.807 -34.815  10.9810  0.00  0.00     0.000 O
ATOM     28  HD  SGN C   2      31.199 -35.496  11.3440  0.00  0.00     0.000 HD
BRANCH 21 30
ATOM     28   N  SGN C   2      29.351 -35.009   7.7710  0.00  0.00     0.000 N
ATOM     30  HD  SGN C   2      28.792 -35.615   8.0370  0.00  0.00     0.000 HD
ATOM     30   S  SGN C   2      29.957 -36.435   7.3720  0.00  0.00     0.000 S
ATOM     31   O  SGN C   2      30.086 -37.146   8.5990  0.00  0.00     0.000 OA
ATOM     32   O  SGN C   2      29.180 -36.975   6.3190  0.00  0.00     0.000 OA
ATOM     33   O  SGN C   2      31.365 -36.095   6.7740  0.00  0.00     0.000 OA
ENDBRANCH 21 30
BRANCH 24 34
ATOM     34   C  SGN C   2      30.623 -30.049   9.5890  0.00  0.00     0.000 C
ATOM     35   O  SGN C   2      29.866 -29.156  10.4250  0.00  0.00     0.000 O
ATOM     36   S  SGN C   2      30.079 -27.590  10.1930  0.00  0.00     0.000 S
ATOM     37   O  SGN C   2      29.835 -27.391   8.7780  0.00  0.00     0.000 OA
ATOM     38   O  SGN C   2      29.111 -26.936  11.0400  0.00  0.00     0.000 OA
ATOM     39   O  SGN C   2      31.447 -27.362  10.5890  0.00  0.00     0.000 OA
ENDBRANCH 24 34
BRANCH 20 40
ATOM     40  O4  IDS C   3      27.931 -32.916   8.3460  0.00  0.00     0.000 O
BRANCH 40 44
ATOM     41  C1  IDS C   3      24.444 -32.865   8.8630  0.00  0.00     0.000 C
ATOM     42  C2  IDS C   3      25.160 -34.122   8.3770  0.00  0.00     0.000 C
ATOM     43  C3  IDS C   3      26.025 -33.804   7.1600  0.00  0.00     0.000 C
ATOM     44  C4  IDS C   3      26.910 -32.590   7.3990  0.00  0.00     0.000 C
ATOM     45  C5  IDS C   3      26.060 -31.418   7.9330  0.00  0.00     0.000 C
ATOM     46  O5  IDS C   3      25.381 -31.824   9.1230  0.00  0.00     0.000 O
ATOM     47   O  IDS C   3      25.186 -33.577   6.0300  0.00  0.00     0.000 O
ATOM     49  HD  IDS C   3      25.569 -34.093   6.6100  0.00  0.00     0.000 HD
BRANCH 42 49
ATOM     49   O  IDS C   3      26.031 -34.658   9.4490  0.00  0.00     0.000 O
ATOM     50   S  IDS C   3      25.794 -36.147   9.9920  0.00  0.00     0.000 S
ATOM     51   O  IDS C   3      26.257 -36.977   8.9020  0.00  0.00     0.000 OA
ATOM     52   O  IDS C   3      24.382 -36.338  10.2790  0.00  0.00     0.000 OA
ATOM     53   O  IDS C   3      26.612 -36.271  11.1810  0.00  0.00     0.000 OA
ENDBRANCH 42 49
BRANCH 45 54
ATOM     54   C  IDS C   3      26.878 -30.172   8.2370  0.00  0.00     0.000 C
ATOM     55   O  IDS C   3      27.572 -29.689   7.3800  0.00  0.00     0.000 OA
ATOM     56   O  IDS C   3      26.841 -29.679   9.3480  0.00  0.00     0.000 OA
ENDBRANCH 45 54
BRANCH 41 57
ATOM     57  O4  SGN C   4      23.398 -32.671   8.0490  0.00  0.00     0.000 O
BRANCH 57 61
ATOM     58  C1  SGN C   4      20.111 -30.082   8.1800  0.00  0.00     0.000 C
ATOM     59  C2  SGN C   4      21.315 -29.715   9.0620  0.00  0.00     0.000 C
ATOM     60  C3  SGN C   4      22.574 -30.479   8.6270  0.00  0.00     0.000 C
ATOM     61  C4  SGN C   4      22.279 -31.969   8.5980  0.00  0.00     0.000 C
ATOM     62  C5  SGN C   4      21.056 -32.257   7.7290  0.00  0.00     0.000 C
ATOM     63  O5  SGN C   4      19.922 -31.490   8.1790  0.00  0.00     0.000 O
BRANCH 59 66
ATOM     64   N  SGN C   4      21.502 -28.261   9.0510  0.00  0.00     0.000 N
ATOM     66  HD  SGN C   4      21.594 -29.110   9.1960  0.00  0.00     0.000 HD
ATOM     66   O  SGN C   4      21.432 -26.041  10.0520  0.00  0.00     0.000 OA
ATOM     67   O  SGN C   4      19.619 -27.641  10.4890  0.00  0.00     0.000 OA
ATOM     68   S  SGN C   4      21.163 -27.403  10.3640  0.00  0.00     0.000 S
ATOM     69   O  SGN C   4      21.814 -28.005  11.4720  0.00  0.00     0.000 OA
ENDBRANCH 59 66
BRANCH 62 70
ATOM     70   C  SGN C   4      20.661 -33.711   7.7910  0.00  0.00     0.000 C
ATOM     71   S  SGN C   4      20.581 -35.756   9.3350  0.00  0.00     0.000 S
ATOM     72   O  SGN C   4      19.232 -36.030   8.8780  0.00  0.00     0.000 OA
ATOM     73   O  SGN C   4      21.601 -36.392   8.5250  0.00  0.00     0.000 OA
ATOM     74   O  SGN C   4      20.760 -35.949  10.7550  0.00  0.00     0.000 OA
ATOM     75   O  SGN C   4      20.766 -34.192   9.1370  0.00  0.00     0.000 O
ENDBRANCH 62 70
ENDBRANCH 57 61
ENDBRANCH 41 57
ENDBRANCH 40 44
ENDBRANCH 20 40
ENDBRANCH 19 23
ENDBRANCH 1 19
TORSDOF 14
ENDMDL
MODEL 62
REMARK VINA RESULT:      -5.6     16.518     20.042
ROOT
ATOM      1  C1  IDS C   1      31.375 -35.334  10.0890  0.00  0.00     0.000 C
ATOM      2  C2  IDS C   1      31.128 -34.053   9.3110  0.00  0.00     0.000 C
ATOM      3  C3  IDS C   1      31.883 -34.071   7.9870  0.00  0.00     0.000 C
ATOM      4  C4  IDS C   1      31.603 -35.356   7.2090  0.00  0.00     0.000 C
ATOM      5  C5  IDS C   1      31.793 -36.585   8.1210  0.00  0.00     0.000 C
ATOM      6  O5  IDS C   1      31.000 -36.460   9.2970  0.00  0.00     0.000 O
ATOM      7   O  IDS C   1      33.283 -33.933   8.2360  0.00  0.00     0.000 O
ATOM      9  HD  IDS C   1      33.296 -34.366   7.4860  0.00  0.00     0.000 HD
ATOM      9   O  IDS C   1      30.250 -35.325   6.7280  0.00  0.00     0.000 O
ATOM     11  HD  IDS C   1      30.262 -35.758   5.9780  0.00  0.00     0.000 HD
ENDROOT
BRANCH 2 11
ATOM     11   O  IDS C   1      29.687 -33.911   9.0050  0.00  0.00     0.000 O
ATOM     12   S  IDS C   1      28.614 -33.782  10.1810  0.00  0.00     0.000 S
ATOM     13   O  IDS C   1      27.633 -32.890   9.6050  0.00  0.00     0.000 OA
ATOM     14   O  IDS C   1      29.253 -33.235  11.3540  0.00  0.00     0.000 OA
ATOM     15   O  IDS C   1      28.126 -35.125  10.3760  0.00  0.00     0.000 OA
ENDBRANCH 2 11
BRANCH 5 16
ATOM     16   C  IDS C   1      31.420 -37.894   7.4490  0.00  0.00     0.000 C
ATOM     17   O  IDS C   1      30.952 -38.786   8.1250  0.00  0.00     0.000 OA
ATOM     18   O  IDS C   1      31.597 -38.055   6.2730  0.00  0.00     0.000 OA
ENDBRANCH 5 16
BRANCH 1 19
ATOM     19  O4  SGN C   2      32.507 -35.461  10.7870  0.00  0.00     0.000 O
BRANCH 19 23
ATOM     20  C1  SGN C   2      34.191 -36.686  14.4050  0.00  0.00     0.000 C
ATOM     21  C2  SGN C   2      33.606 -37.789  13.5140  0.00  0.00     0.000 C
ATOM     22  C3  SGN C   2      33.438 -37.265  12.0890  0.00  0.00     0.000 C
ATOM     23  C4  SGN C   2      32.563 -36.017  12.1020  0.00  0.00     0.000 C
ATOM     24  C5  SGN C   2      33.143 -34.985  13.0720  0.00  0.00     0.000 C
ATOM     25  O5  SGN C   2      33.308 -35.577  14.3730  0.00  0.00     0.000 O
ATOM     26   O  SGN C   2      32.882 -38.272  11.2510  0.00  0.00     0.000 O
ATOM     28  HD  SGN C   2      32.607 -38.956  10.7970  0.00  0.00     0.000 HD
BRANCH 21 30
ATOM     28   N  SGN C   2      34.249 -38.597  14.5580  0.00  0.00     0.000 N
ATOM     30  HD  SGN C   2      35.011 -38.965  14.3750  0.00  0.00     0.000 HD
ATOM     30   S  SGN C   2      34.048 -40.183  14.6210  0.00  0.00     0.000 S
ATOM     31   O  SGN C   2      34.407 -40.659  13.3280  0.00  0.00     0.000 OA
ATOM     32   O  SGN C   2      34.718 -40.676  15.7670  0.00  0.00     0.000 OA
ATOM     33   O  SGN C   2      32.513 -40.362  14.8750  0.00  0.00     0.000 OA
ENDBRANCH 21 30
BRANCH 24 34
ATOM     34   C  SGN C   2      32.264 -33.771  13.2640  0.00  0.00     0.000 C
ATOM     35   O  SGN C   2      33.003 -32.595  12.8880  0.00  0.00     0.000 O
ATOM     36   S  SGN C   2      32.468 -31.196  13.4400  0.00  0.00     0.000 S
ATOM     37   O  SGN C   2      32.376 -31.377  14.8760  0.00  0.00     0.000 OA
ATOM     38   O  SGN C   2      33.456 -30.220  13.0470  0.00  0.00     0.000 OA
ATOM     39   O  SGN C   2      31.193 -31.028  12.7890  0.00  0.00     0.000 OA
ENDBRANCH 24 34
BRANCH 20 40
ATOM     40  O4  IDS C   3      35.427 -36.271  14.1390  0.00  0.00     0.000 O
BRANCH 40 44
ATOM     41  C1  IDS C   3      38.939 -36.076  13.9190  0.00  0.00     0.000 C
ATOM     42  C2  IDS C   3      38.244 -37.298  14.5130  0.00  0.00     0.000 C
ATOM     43  C3  IDS C   3      37.255 -36.871  15.5960  0.00  0.00     0.000 C
ATOM     44  C4  IDS C   3      36.338 -35.758  15.1140  0.00  0.00     0.000 C
ATOM     45  C5  IDS C   3      37.175 -34.618  14.4960  0.00  0.00     0.000 C
ATOM     46  O5  IDS C   3      37.980 -35.139  13.4370  0.00  0.00     0.000 O
ATOM     47   O  IDS C   3      37.974 -36.443  16.7500  0.00  0.00     0.000 O
ATOM     49  HD  IDS C   3      37.672 -37.056  16.2180  0.00  0.00     0.000 HD
BRANCH 42 49
ATOM     49   O  IDS C   3      37.504 -38.026  13.4560  0.00  0.00     0.000 O
ATOM     50   S  IDS C   3      37.999 -39.480  12.9990  0.00  0.00     0.000 S
ATOM     51   O  IDS C   3      37.652 -40.319  14.1250  0.00  0.00     0.000 OA
ATOM     52   O  IDS C   3      39.430 -39.445  12.7480  0.00  0.00     0.000 OA
ATOM     53   O  IDS C   3      37.246 -39.799  11.8050  0.00  0.00     0.000 OA
ENDBRANCH 42 49
BRANCH 45 54
ATOM     54   C  IDS C   3      36.329 -33.478  13.9520  0.00  0.00     0.000 C
ATOM     55   O  IDS C   3      35.671 -32.810  14.7070  0.00  0.00     0.000 OA
ATOM     56   O  IDS C   3      36.308 -33.255  12.7570  0.00  0.00     0.000 OA
ENDBRANCH 45 54
BRANCH 41 57
ATOM     57  O4  SGN C   4      39.894 -35.711  14.7830  0.00  0.00     0.000 O
BRANCH 57 61
ATOM     58  C1  SGN C   4      43.540 -33.653  14.7170  0.00  0.00     0.000 C
ATOM     59  C2  SGN C   4      42.309 -32.895  14.1940  0.00  0.00     0.000 C
ATOM     60  C3  SGN C   4      41.008 -33.575  14.6430  0.00  0.00     0.000 C
ATOM     61  C4  SGN C   4      41.033 -35.038  14.2350  0.00  0.00     0.000 C
ATOM     62  C5  SGN C   4      42.295 -35.720  14.7620  0.00  0.00     0.000 C
ATOM     63  O5  SGN C   4      43.472 -35.016  14.3230  0.00  0.00     0.000 O
BRANCH 59 66
ATOM     64   N  SGN C   4      42.625 -31.516  14.5810  0.00  0.00     0.000 N
ATOM     66  HD  SGN C   4      42.209 -32.254  14.3990  0.00  0.00     0.000 HD
ATOM     66   O  SGN C   4      42.711 -29.109  14.2150  0.00  0.00     0.000 OA
ATOM     67   O  SGN C   4      43.230 -30.650  12.3710  0.00  0.00     0.000 OA
ATOM     68   S  SGN C   4      42.288 -30.310  13.5780  0.00  0.00     0.000 S
ATOM     69   O  SGN C   4      40.939 -30.438  13.1600  0.00  0.00     0.000 OA
ENDBRANCH 59 66
BRANCH 62 70
ATOM     70   C  SGN C   4      42.410 -37.137  14.2590  0.00  0.00     0.000 C
ATOM     71   S  SGN C   4      44.033 -39.107  14.0130  0.00  0.00     0.000 S
ATOM     72   O  SGN C   4      43.000 -40.000  14.5010  0.00  0.00     0.000 OA
ATOM     73   O  SGN C   4      44.009 -38.931  12.5750  0.00  0.00     0.000 OA
ATOM     74   O  SGN C   4      45.345 -39.398  14.5430  0.00  0.00     0.000 OA
ATOM     75   O  SGN C   4      43.675 -37.693  14.6410  0.00  0.00     0.000 O
ENDBRANCH 62 70
ENDBRANCH 57 61
ENDBRANCH 41 57
ENDBRANCH 40 44
ENDBRANCH 20 40
ENDBRANCH 19 23
ENDBRANCH 1 19
TORSDOF 14
ENDMDL
MODEL 63
REMARK VINA RESULT:      -5.5     23.648     26.753
ROOT
ATOM      1  C1  IDS C   1      15.649 -13.800  42.5000  0.00  0.00     0.000 C
ATOM      2  C2  IDS C   1      15.260 -14.044  41.0520  0.00  0.00     0.000 C
ATOM      3  C3  IDS C   1      15.916 -15.313  40.5230  0.00  0.00     0.000 C
ATOM      4  C4  IDS C   1      15.668 -16.495  41.4590  0.00  0.00     0.000 C
ATOM      5  C5  IDS C   1      16.007 -16.106  42.9120  0.00  0.00     0.000 C
ATOM      6  O5  IDS C   1      15.295 -14.933  43.2920  0.00  0.00     0.000 O
ATOM      7   O  IDS C   1      17.318 -15.091  40.3580  0.00  0.00     0.000 O
ATOM      9  HD  IDS C   1      17.306 -15.948  40.4880  0.00  0.00     0.000 HD
ATOM      9   O  IDS C   1      14.284 -16.872  41.3780  0.00  0.00     0.000 O
ATOM     11  HD  IDS C   1      14.272 -17.729  41.5070  0.00  0.00     0.000 HD
ENDROOT
BRANCH 2 11
ATOM     11   O  IDS C   1      13.794 -14.215  40.9390  0.00  0.00     0.000 O
ATOM     12   S  IDS C   1      12.828 -12.943  40.8990  0.00  0.00     0.000 S
ATOM     13   O  IDS C   1      11.776 -13.386  40.0100  0.00  0.00     0.000 OA
ATOM     14   O  IDS C   1      13.555 -11.805  40.3900  0.00  0.00     0.000 OA
ATOM     15   O  IDS C   1      12.393 -12.774  42.2630  0.00  0.00     0.000 OA
ENDBRANCH 2 11
BRANCH 5 16
ATOM     16   C  IDS C   1      15.676 -17.194  43.9180  0.00  0.00     0.000 C
ATOM     17   O  IDS C   1      15.875 -16.981  45.0950  0.00  0.00     0.000 OA
ATOM     18   O  IDS C   1      15.240 -18.252  43.5580  0.00  0.00     0.000 OA
ENDBRANCH 5 16
BRANCH 1 19
ATOM     19  O4  SGN C   2      16.835 -13.247  42.7680  0.00  0.00     0.000 O
BRANCH 19 23
ATOM     20  C1  SGN C   2      18.941 -10.747  45.3660  0.00  0.00     0.000 C
ATOM     21  C2  SGN C   2      18.587 -12.142  45.8940  0.00  0.00     0.000 C
ATOM     22  C3  SGN C   2      18.229 -13.060  44.7280  0.00  0.00     0.000 C
ATOM     23  C4  SGN C   2      17.087 -12.448  43.9260  0.00  0.00     0.000 C
ATOM     24  C5  SGN C   2      17.457 -11.025  43.4970  0.00  0.00     0.000 C
ATOM     25  O5  SGN C   2      17.822 -10.247  44.6520  0.00  0.00     0.000 O
ATOM     26   O  SGN C   2      17.882 -14.356  45.2030  0.00  0.00     0.000 O
ATOM     28  HD  SGN C   2      17.754 -15.132  45.5660  0.00  0.00     0.000 HD
BRANCH 21 30
ATOM     28   N  SGN C   2      19.364 -11.607  47.0210  0.00  0.00     0.000 N
ATOM     30  HD  SGN C   2      20.212 -11.782  47.0480  0.00  0.00     0.000 HD
ATOM     30   S  SGN C   2      19.635 -12.483  48.3320  0.00  0.00     0.000 S
ATOM     31   O  SGN C   2      20.208 -13.699  47.8600  0.00  0.00     0.000 OA
ATOM     32   O  SGN C   2      20.337 -11.686  49.2670  0.00  0.00     0.000 OA
ATOM     33   O  SGN C   2      18.206 -12.733  48.9240  0.00  0.00     0.000 OA
ENDBRANCH 21 30
BRANCH 24 34
ATOM     34   C  SGN C   2      16.329 -10.282  42.8220  0.00  0.00     0.000 C
ATOM     35   O  SGN C   2      15.897  -9.209  43.6780  0.00  0.00     0.000 O
ATOM     36   S  SGN C   2      14.446  -8.602  43.4040  0.00  0.00     0.000 S
ATOM     37   O  SGN C   2      13.556  -9.746  43.4300  0.00  0.00     0.000 OA
ATOM     38   O  SGN C   2      14.208  -7.665  44.4750  0.00  0.00     0.000 OA
ATOM     39   O  SGN C   2      14.567  -7.984  42.1060  0.00  0.00     0.000 OA
ENDBRANCH 24 34
BRANCH 20 40
ATOM     40  O4  IDS C   3      20.029 -10.634  44.6080  0.00  0.00     0.000 O
BRANCH 40 44
ATOM     41  C1  IDS C   3      23.412 -10.426  43.6370  0.00  0.00     0.000 C
ATOM     42  C2  IDS C   3      23.012 -10.636  45.0950  0.00  0.00     0.000 C
ATOM     43  C3  IDS C   3      21.998  -9.579  45.5250  0.00  0.00     0.000 C
ATOM     44  C4  IDS C   3      20.849  -9.465  44.5350  0.00  0.00     0.000 C
ATOM     45  C5  IDS C   3      21.403  -9.307  43.1030  0.00  0.00     0.000 C
ATOM     46  O5  IDS C   3      22.259 -10.410  42.7990  0.00  0.00     0.000 O
ATOM     47   O  IDS C   3      22.653  -8.319  45.6550  0.00  0.00     0.000 O
ATOM     49  HD  IDS C   3      22.467  -9.120  45.9290  0.00  0.00     0.000 HD
BRANCH 42 49
ATOM     49   O  IDS C   3      22.402 -11.975  45.2680  0.00  0.00     0.000 O
ATOM     50   S  IDS C   3      23.293 -13.187  45.8170  0.00  0.00     0.000 S
ATOM     51   O  IDS C   3      23.485 -12.855  47.2120  0.00  0.00     0.000 OA
ATOM     52   O  IDS C   3      24.545 -13.241  45.0790  0.00  0.00     0.000 OA
ATOM     53   O  IDS C   3      22.499 -14.383  45.6270  0.00  0.00     0.000 OA
ENDBRANCH 42 49
BRANCH 45 54
ATOM     54   C  IDS C   3      20.316  -9.225  42.0430  0.00  0.00     0.000 C
ATOM     55   O  IDS C   3      20.308 -10.016  41.1350  0.00  0.00     0.000 OA
ATOM     56   O  IDS C   3      19.472  -8.353  42.1050  0.00  0.00     0.000 OA
ENDBRANCH 45 54
BRANCH 41 57
ATOM     57  O4  SGN C   4      24.300  -9.425  43.6160  0.00  0.00     0.000 O
BRANCH 57 61
ATOM     58  C1  SGN C   4      27.478  -8.146  41.2090  0.00  0.00     0.000 C
ATOM     59  C2  SGN C   4      26.146  -8.434  40.4980  0.00  0.00     0.000 C
ATOM     60  C3  SGN C   4      24.984  -8.488  41.5000  0.00  0.00     0.000 C
ATOM     61  C4  SGN C   4      25.308  -9.483  42.6010  0.00  0.00     0.000 C
ATOM     62  C5  SGN C   4      26.656  -9.153  43.2420  0.00  0.00     0.000 C
ATOM     63  O5  SGN C   4      27.692  -9.095  42.2430  0.00  0.00     0.000 O
BRANCH 59 66
ATOM     64   N  SGN C   4      25.992  -7.435  39.4360  0.00  0.00     0.000 N
ATOM     66  HD  SGN C   4      25.850  -8.073  40.0040  0.00  0.00     0.000 HD
ATOM     66   O  SGN C   4      25.807  -6.726  37.1130  0.00  0.00     0.000 OA
ATOM     67   O  SGN C   4      27.394  -8.499  37.7320  0.00  0.00     0.000 OA
ATOM     68   S  SGN C   4      25.954  -7.902  37.9010  0.00  0.00     0.000 S
ATOM     69   O  SGN C   4      25.004  -8.948  37.7760  0.00  0.00     0.000 OA
ENDBRANCH 59 66
BRANCH 62 70
ATOM     70   C  SGN C   4      27.064 -10.202  44.2460  0.00  0.00     0.000 C
ATOM     71   S  SGN C   4      28.891 -11.910  44.8090  0.00  0.00     0.000 S
ATOM     72   O  SGN C   4      28.867 -11.459  46.1870  0.00  0.00     0.000 OA
ATOM     73   O  SGN C   4      27.954 -12.982  44.5400  0.00  0.00     0.000 OA
ATOM     74   O  SGN C   4      30.222 -12.158  44.3050  0.00  0.00     0.000 OA
ATOM     75   O  SGN C   4      28.392 -10.660  43.9660  0.00  0.00     0.000 O
ENDBRANCH 62 70
ENDBRANCH 57 61
ENDBRANCH 41 57
ENDBRANCH 40 44
ENDBRANCH 20 40
ENDBRANCH 19 23
ENDBRANCH 1 19
TORSDOF 14
ENDMDL
MODEL 64
REMARK VINA RESULT:      -5.5     20.566     27.191
ROOT
ATOM      1  C1  IDS C   1      14.634 -36.570   8.9440  0.00  0.00     0.000 C
ATOM      2  C2  IDS C   1      14.685 -35.590   7.7850  0.00  0.00     0.000 C
ATOM      3  C3  IDS C   1      13.409 -34.759   7.7240  0.00  0.00     0.000 C
ATOM      4  C4  IDS C   1      13.094 -34.129   9.0810  0.00  0.00     0.000 C
ATOM      5  C5  IDS C   1      13.162 -35.196  10.1920  0.00  0.00     0.000 C
ATOM      6  O5  IDS C   1      14.418 -35.864  10.1650  0.00  0.00     0.000 O
ATOM      7   O  IDS C   1      12.325 -35.583   7.2910  0.00  0.00     0.000 O
ATOM      9  HD  IDS C   1      11.898 -34.987   7.7530  0.00  0.00     0.000 HD
ATOM      9   O  IDS C   1      14.055 -33.098   9.3510  0.00  0.00     0.000 O
ATOM     11  HD  IDS C   1      13.629 -32.502   9.8130  0.00  0.00     0.000 HD
ENDROOT
BRANCH 2 11
ATOM     11   O  IDS C   1      15.821 -34.657   7.9560  0.00  0.00     0.000 O
ATOM     12   S  IDS C   1      17.248 -34.987   7.3170  0.00  0.00     0.000 S
ATOM     13   O  IDS C   1      17.734 -33.673   6.9580  0.00  0.00     0.000 OA
ATOM     14   O  IDS C   1      17.072 -35.854   6.1760  0.00  0.00     0.000 OA
ATOM     15   O  IDS C   1      17.992 -35.602   8.3880  0.00  0.00     0.000 OA
ENDBRANCH 2 11
BRANCH 5 16
ATOM     16   C  IDS C   1      12.973 -34.623  11.5850  0.00  0.00     0.000 C
ATOM     17   O  IDS C   1      13.572 -35.128  12.5110  0.00  0.00     0.000 OA
ATOM     18   O  IDS C   1      12.233 -33.697  11.7750  0.00  0.00     0.000 OA
ENDBRANCH 5 16
BRANCH 1 19
ATOM     19  O4  SGN C   2      13.951 -37.710   8.8000  0.00  0.00     0.000 O
BRANCH 19 23
ATOM     20  C1  SGN C   2      13.467 -41.599  10.2370  0.00  0.00     0.000 C
ATOM     21  C2  SGN C   2      12.778 -40.484  11.0330  0.00  0.00     0.000 C
ATOM     22  C3  SGN C   2      12.674 -39.226  10.1750  0.00  0.00     0.000 C
ATOM     23  C4  SGN C   2      14.063 -38.814   9.6990  0.00  0.00     0.000 C
ATOM     24  C5  SGN C   2      14.739 -39.989   8.9890  0.00  0.00     0.000 C
ATOM     25  O5  SGN C   2      14.752 -41.140   9.8530  0.00  0.00     0.000 O
ATOM     26   O  SGN C   2      12.051 -38.175  10.9040  0.00  0.00     0.000 O
ATOM     28  HD  SGN C   2      11.605 -37.615  11.3910  0.00  0.00     0.000 HD
BRANCH 21 30
ATOM     28   N  SGN C   2      12.137 -41.656  11.6440  0.00  0.00     0.000 N
ATOM     30  HD  SGN C   2      11.296 -41.788  11.4850  0.00  0.00     0.000 HD
ATOM     30   S  SGN C   2      11.357 -41.543  13.0360  0.00  0.00     0.000 S
ATOM     31   O  SGN C   2      10.412 -40.493  12.8540  0.00  0.00     0.000 OA
ATOM     32   O  SGN C   2      10.916 -42.835  13.4110  0.00  0.00     0.000 OA
ATOM     33   O  SGN C   2      12.466 -41.122  14.0610  0.00  0.00     0.000 OA
ENDBRANCH 21 30
BRANCH 24 34
ATOM     34   C  SGN C   2      16.177 -39.723   8.6110  0.00  0.00     0.000 C
ATOM     35   O  SGN C   2      16.274 -39.625   7.1790  0.00  0.00     0.000 O
ATOM     36   S  SGN C   2      17.722 -39.820   6.5350  0.00  0.00     0.000 S
ATOM     37   O  SGN C   2      18.187 -41.092   7.0520  0.00  0.00     0.000 OA
ATOM     38   O  SGN C   2      17.515 -39.823   5.1070  0.00  0.00     0.000 OA
ATOM     39   O  SGN C   2      18.471 -38.684   7.0120  0.00  0.00     0.000 OA
ENDBRANCH 24 34
BRANCH 20 40
ATOM     40  O4  IDS C   3      12.833 -42.072   9.1660  0.00  0.00     0.000 O
BRANCH 40 44
ATOM     41  C1  IDS C   3      10.703 -43.787   6.9420  0.00  0.00     0.000 C
ATOM     42  C2  IDS C   3      10.522 -43.883   8.4540  0.00  0.00     0.000 C
ATOM     43  C3  IDS C   3      11.838 -44.271   9.1230  0.00  0.00     0.000 C
ATOM     44  C4  IDS C   3      12.989 -43.396   8.6500  0.00  0.00     0.000 C
ATOM     45  C5  IDS C   3      13.018 -43.354   7.1080  0.00  0.00     0.000 C
ATOM     46  O5  IDS C   3      11.759 -42.885   6.6210  0.00  0.00     0.000 O
ATOM     47   O  IDS C   3      12.124 -45.640   8.8470  0.00  0.00     0.000 O
ATOM     49  HD  IDS C   3      11.689 -45.015   9.2590  0.00  0.00     0.000 HD
BRANCH 42 49
ATOM     49   O  IDS C   3      10.080 -42.578   8.9980  0.00  0.00     0.000 O
ATOM     50   S  IDS C   3       8.629 -42.446   9.6640  0.00  0.00     0.000 S
ATOM     51   O  IDS C   3       8.767 -43.165  10.9110  0.00  0.00     0.000 OA
ATOM     52   O  IDS C   3       7.637 -43.042   8.7830  0.00  0.00     0.000 OA
ATOM     53   O  IDS C   3       8.405 -41.029   9.8530  0.00  0.00     0.000 OA
ENDBRANCH 42 49
BRANCH 45 54
ATOM     54   C  IDS C   3      14.118 -42.465   6.5500  0.00  0.00     0.000 C
ATOM     55   O  IDS C   3      13.830 -41.502   5.8890  0.00  0.00     0.000 OA
ATOM     56   O  IDS C   3      15.284 -42.740   6.7590  0.00  0.00     0.000 OA
ENDBRANCH 45 54
BRANCH 41 57
ATOM     57  O4  SGN C   4      10.689 -45.038   6.4650  0.00  0.00     0.000 O
BRANCH 57 61
ATOM     58  C1  SGN C   4       9.890 -46.696   2.7040  0.00  0.00     0.000 C
ATOM     59  C2  SGN C   4      10.289 -45.211   2.7350  0.00  0.00     0.000 C
ATOM     60  C3  SGN C   4      10.942 -44.840   4.0740  0.00  0.00     0.000 C
ATOM     61  C4  SGN C   4      10.022 -45.241   5.2150  0.00  0.00     0.000 C
ATOM     62  C5  SGN C   4       9.645 -46.718   5.1050  0.00  0.00     0.000 C
ATOM     63  O5  SGN C   4       9.062 -46.998   3.8180  0.00  0.00     0.000 O
BRANCH 59 66
ATOM     64   N  SGN C   4      10.441 -44.867   1.3170  0.00  0.00     0.000 N
ATOM     66  HD  SGN C   4      10.518 -45.241   2.0950  0.00  0.00     0.000 HD
ATOM     66   O  SGN C   4      11.625 -43.910  -0.5840  0.00  0.00     0.000 OA
ATOM     67   O  SGN C   4      11.647 -42.752   1.5850  0.00  0.00     0.000 OA
ATOM     68   S  SGN C   4      11.767 -44.114   0.8170  0.00  0.00     0.000 S
ATOM     69   O  SGN C   4      12.895 -44.821   1.3070  0.00  0.00     0.000 OA
ENDBRANCH 59 66
BRANCH 62 70
ATOM     70   C  SGN C   4       8.628 -47.109   6.1480  0.00  0.00     0.000 C
ATOM     71   S  SGN C   4       8.324 -48.392   8.3460  0.00  0.00     0.000 S
ATOM     72   O  SGN C   4       7.549 -47.285   8.8690  0.00  0.00     0.000 OA
ATOM     73   O  SGN C   4       7.522 -49.376   7.6470  0.00  0.00     0.000 OA
ATOM     74   O  SGN C   4       9.238 -48.963   9.3090  0.00  0.00     0.000 OA
ATOM     75   O  SGN C   4       9.278 -47.740   7.2570  0.00  0.00     0.000 O
ENDBRANCH 62 70
ENDBRANCH 57 61
ENDBRANCH 41 57
ENDBRANCH 40 44
ENDBRANCH 20 40
ENDBRANCH 19 23
ENDBRANCH 1 19
TORSDOF 14
ENDMDL
MODEL 65
REMARK VINA RESULT:      -5.5     23.285     26.506
ROOT
ATOM      1  C1  IDS C   1      10.080 -48.709  42.0930  0.00  0.00     0.000 C
ATOM      2  C2  IDS C   1       9.738 -47.708  43.1820  0.00  0.00     0.000 C
ATOM      3  C3  IDS C   1      10.004 -46.284  42.7100  0.00  0.00     0.000 C
ATOM      4  C4  IDS C   1       9.335 -46.015  41.3620  0.00  0.00     0.000 C
ATOM      5  C5  IDS C   1       9.675 -47.140  40.3640  0.00  0.00     0.000 C
ATOM      6  O5  IDS C   1       9.338 -48.410  40.9110  0.00  0.00     0.000 O
ATOM      7   O  IDS C   1      11.413 -46.066  42.6220  0.00  0.00     0.000 O
ATOM      9  HD  IDS C   1      11.126 -45.498  42.0350  0.00  0.00     0.000 HD
ATOM      9   O  IDS C   1       7.913 -45.958  41.5490  0.00  0.00     0.000 O
ATOM     11  HD  IDS C   1       7.626 -45.390  40.9620  0.00  0.00     0.000 HD
ENDROOT
BRANCH 2 11
ATOM     11   O  IDS C   1       8.303 -47.805  43.5320  0.00  0.00     0.000 O
ATOM     12   S  IDS C   1       7.837 -47.807  45.0600  0.00  0.00     0.000 S
ATOM     13   O  IDS C   1       6.576 -47.101  44.9970  0.00  0.00     0.000 OA
ATOM     14   O  IDS C   1       8.824 -47.126  45.8630  0.00  0.00     0.000 OA
ATOM     15   O  IDS C   1       7.697 -49.202  45.3960  0.00  0.00     0.000 OA
ENDBRANCH 2 11
BRANCH 5 16
ATOM     16   C  IDS C   1       8.954 -47.002  39.0360  0.00  0.00     0.000 C
ATOM     17   O  IDS C   1       7.858 -47.507  38.9110  0.00  0.00     0.000 OA
ATOM     18   O  IDS C   1       9.460 -46.418  38.1180  0.00  0.00     0.000 OA
ENDBRANCH 5 16
BRANCH 1 19
ATOM     19  O4  SGN C   2      11.358 -49.055  41.9080  0.00  0.00     0.000 O
BRANCH 19 23
ATOM     20  C1  SGN C   2      13.896 -52.044  40.4770  0.00  0.00     0.000 C
ATOM     21  C2  SGN C   2      13.340 -51.063  39.4380  0.00  0.00     0.000 C
ATOM     22  C3  SGN C   2      12.812 -49.814  40.1390  0.00  0.00     0.000 C
ATOM     23  C4  SGN C   2      11.761 -50.210  41.1700  0.00  0.00     0.000 C
ATOM     24  C5  SGN C   2      12.341 -51.254  42.1280  0.00  0.00     0.000 C
ATOM     25  O5  SGN C   2      12.853 -52.372  41.3800  0.00  0.00     0.000 O
ATOM     26   O  SGN C   2      12.277 -48.899  39.1910  0.00  0.00     0.000 O
ATOM     28  HD  SGN C   2      12.036 -48.372  38.5470  0.00  0.00     0.000 HD
BRANCH 21 30
ATOM     28   N  SGN C   2      14.445 -51.598  38.6320  0.00  0.00     0.000 N
ATOM     30  HD  SGN C   2      15.044 -51.043  38.3460  0.00  0.00     0.000 HD
ATOM     30   S  SGN C   2      14.381 -51.598  37.0340  0.00  0.00     0.000 S
ATOM     31   O  SGN C   2      14.101 -50.251  36.6680  0.00  0.00     0.000 OA
ATOM     32   O  SGN C   2      15.542 -52.239  36.5380  0.00  0.00     0.000 OA
ATOM     33   O  SGN C   2      13.166 -52.530  36.7020  0.00  0.00     0.000 OA
ENDBRANCH 21 30
BRANCH 24 34
ATOM     34   C  SGN C   2      11.327 -51.818  43.0970  0.00  0.00     0.000 C
ATOM     35   O  SGN C   2      11.903 -51.840  44.4150  0.00  0.00     0.000 O
ATOM     36   S  SGN C   2      11.221 -52.807  45.4870  0.00  0.00     0.000 S
ATOM     37   O  SGN C   2      11.203 -54.109  44.8510  0.00  0.00     0.000 OA
ATOM     38   O  SGN C   2      12.067 -52.750  46.6550  0.00  0.00     0.000 OA
ATOM     39   O  SGN C   2       9.912 -52.236  45.6890  0.00  0.00     0.000 OA
ENDBRANCH 24 34
BRANCH 20 40
ATOM     40  O4  IDS C   3      14.970 -51.666  41.1670  0.00  0.00     0.000 O
BRANCH 40 44
ATOM     41  C1  IDS C   3      18.108 -50.755  42.4880  0.00  0.00     0.000 C
ATOM     42  C2  IDS C   3      17.875 -50.857  40.9830  0.00  0.00     0.000 C
ATOM     43  C3  IDS C   3      17.260 -52.210  40.6320  0.00  0.00     0.000 C
ATOM     44  C4  IDS C   3      16.059 -52.527  41.5090  0.00  0.00     0.000 C
ATOM     45  C5  IDS C   3      16.428 -52.334  42.9950  0.00  0.00     0.000 C
ATOM     46  O5  IDS C   3      16.898 -51.000  43.2000  0.00  0.00     0.000 O
ATOM     47   O  IDS C   3      18.246 -53.229  40.7720  0.00  0.00     0.000 O
ATOM     49  HD  IDS C   3      17.889 -52.559  40.3560  0.00  0.00     0.000 HD
BRANCH 42 49
ATOM     49   O  IDS C   3      16.953 -49.787  40.5370  0.00  0.00     0.000 O
ATOM     50   S  IDS C   3      17.324 -48.905  39.2520  0.00  0.00     0.000 S
ATOM     51   O  IDS C   3      17.138 -49.824  38.1510  0.00  0.00     0.000 OA
ATOM     52   O  IDS C   3      18.697 -48.440  39.3660  0.00  0.00     0.000 OA
ATOM     53   O  IDS C   3      16.379 -47.808  39.2370  0.00  0.00     0.000 OA
ENDBRANCH 42 49
BRANCH 45 54
ATOM     54   C  IDS C   3      15.267 -52.593  43.9430  0.00  0.00     0.000 C
ATOM     55   O  IDS C   3      15.007 -51.790  44.8010  0.00  0.00     0.000 OA
ATOM     56   O  IDS C   3      14.619 -53.616  43.8410  0.00  0.00     0.000 OA
ENDBRANCH 45 54
BRANCH 41 57
ATOM     57  O4  SGN C   4      19.225 -51.442  42.7580  0.00  0.00     0.000 O
BRANCH 57 61
ATOM     58  C1  SGN C   4      21.625 -52.041  46.1370  0.00  0.00     0.000 C
ATOM     59  C2  SGN C   4      20.125 -51.814  46.3860  0.00  0.00     0.000 C
ATOM     60  C3  SGN C   4      19.312 -52.019  45.1000  0.00  0.00     0.000 C
ATOM     61  C4  SGN C   4      19.879 -51.143  43.9950  0.00  0.00     0.000 C
ATOM     62  C5  SGN C   4      21.376 -51.400  43.8230  0.00  0.00     0.000 C
ATOM     63  O5  SGN C   4      22.069 -51.213  45.0720  0.00  0.00     0.000 O
BRANCH 59 66
ATOM     64   N  SGN C   4      19.812 -52.670  47.5350  0.00  0.00     0.000 N
ATOM     66  HD  SGN C   4      19.755 -52.183  46.8210  0.00  0.00     0.000 HD
ATOM     66   O  SGN C   4      18.914 -53.102  49.7580  0.00  0.00     0.000 OA
ATOM     67   O  SGN C   4      20.147 -51.021  49.3160  0.00  0.00     0.000 OA
ATOM     68   S  SGN C   4      19.072 -52.047  48.8150  0.00  0.00     0.000 S
ATOM     69   O  SGN C   4      17.928 -51.336  48.3680  0.00  0.00     0.000 OA
ENDBRANCH 59 66
BRANCH 62 70
ATOM     70   C  SGN C   4      21.990 -50.449  42.8270  0.00  0.00     0.000 C
ATOM     71   S  SGN C   4      22.017 -48.001  42.0650  0.00  0.00     0.000 S
ATOM     72   O  SGN C   4      23.465 -48.050  42.0070  0.00  0.00     0.000 OA
ATOM     73   O  SGN C   4      21.379 -48.393  40.8250  0.00  0.00     0.000 OA
ATOM     74   O  SGN C   4      21.502 -46.772  42.6230  0.00  0.00     0.000 OA
ATOM     75   O  SGN C   4      21.618 -49.102  43.1390  0.00  0.00     0.000 O
ENDBRANCH 62 70
ENDBRANCH 57 61
ENDBRANCH 41 57
ENDBRANCH 40 44
ENDBRANCH 20 40
ENDBRANCH 19 23
ENDBRANCH 1 19
TORSDOF 14
ENDMDL
MODEL 66
REMARK VINA RESULT:      -5.5     17.482     24.692
ROOT
ATOM      1  C1  IDS C   1      36.023 -36.528  41.7300  0.00  0.00     0.000 C
ATOM      2  C2  IDS C   1      35.572 -36.815  40.3090  0.00  0.00     0.000 C
ATOM      3  C3  IDS C   1      34.239 -37.553  40.3030  0.00  0.00     0.000 C
ATOM      4  C4  IDS C   1      33.205 -36.831  41.1670  0.00  0.00     0.000 C
ATOM      5  C5  IDS C   1      33.800 -36.508  42.5520  0.00  0.00     0.000 C
ATOM      6  O5  IDS C   1      35.017 -35.782  42.4140  0.00  0.00     0.000 O
ATOM      7   O  IDS C   1      34.432 -38.890  40.7660  0.00  0.00     0.000 O
ATOM      9  HD  IDS C   1      33.604 -38.764  40.9840  0.00  0.00     0.000 HD
ATOM      9   O  IDS C   1      32.822 -35.610  40.5160  0.00  0.00     0.000 O
ATOM     11  HD  IDS C   1      31.994 -35.484  40.7340  0.00  0.00     0.000 HD
ENDROOT
BRANCH 2 11
ATOM     11   O  IDS C   1      35.389 -35.549  39.5660  0.00  0.00     0.000 O
ATOM     12   S  IDS C   1      36.623 -34.855  38.8230  0.00  0.00     0.000 S
ATOM     13   O  IDS C   1      35.992 -34.274  37.6590  0.00  0.00     0.000 OA
ATOM     14   O  IDS C   1      37.605 -35.858  38.4890  0.00  0.00     0.000 OA
ATOM     15   O  IDS C   1      37.108 -33.875  39.7630  0.00  0.00     0.000 OA
ENDBRANCH 2 11
BRANCH 5 16
ATOM     16   C  IDS C   1      32.870 -35.688  43.4280  0.00  0.00     0.000 C
ATOM     17   O  IDS C   1      33.014 -34.485  43.4680  0.00  0.00     0.000 OA
ATOM     18   O  IDS C   1      32.016 -36.219  44.0840  0.00  0.00     0.000 OA
ENDBRANCH 5 16
BRANCH 1 19
ATOM     19  O4  SGN C   2      36.607 -37.502  42.4350  0.00  0.00     0.000 O
BRANCH 19 23
ATOM     20  C1  SGN C   2      39.571 -38.337  45.2530  0.00  0.00     0.000 C
ATOM     21  C2  SGN C   2      38.202 -37.919  45.8030  0.00  0.00     0.000 C
ATOM     22  C3  SGN C   2      37.141 -38.075  44.7160  0.00  0.00     0.000 C
ATOM     23  C4  SGN C   2      37.538 -37.259  43.4910  0.00  0.00     0.000 C
ATOM     24  C5  SGN C   2      38.945 -37.654  43.0370  0.00  0.00     0.000 C
ATOM     25  O5  SGN C   2      39.868 -37.519  44.1330  0.00  0.00     0.000 O
ATOM     26   O  SGN C   2      35.866 -37.676  45.2050  0.00  0.00     0.000 O
ATOM     28  HD  SGN C   2      35.119 -37.481  45.5990  0.00  0.00     0.000 HD
BRANCH 21 30
ATOM     28   N  SGN C   2      38.588 -38.623  47.0330  0.00  0.00     0.000 N
ATOM     30  HD  SGN C   2      38.010 -39.157  47.3930  0.00  0.00     0.000 HD
ATOM     30   S  SGN C   2      38.221 -38.036  48.4750  0.00  0.00     0.000 S
ATOM     31   O  SGN C   2      36.814 -37.816  48.4440  0.00  0.00     0.000 OA
ATOM     32   O  SGN C   2      38.783 -38.882  49.4610  0.00  0.00     0.000 OA
ATOM     33   O  SGN C   2      38.996 -36.676  48.5410  0.00  0.00     0.000 OA
ENDBRANCH 21 30
BRANCH 24 34
ATOM     34   C  SGN C   2      39.485 -36.796  41.9180  0.00  0.00     0.000 C
ATOM     35   O  SGN C   2      40.919 -36.913  41.8890  0.00  0.00     0.000 O
ATOM     36   S  SGN C   2      41.725 -35.764  41.1270  0.00  0.00     0.000 S
ATOM     37   O  SGN C   2      41.265 -34.528  41.7310  0.00  0.00     0.000 OA
ATOM     38   O  SGN C   2      43.120 -36.039  41.3740  0.00  0.00     0.000 OA
ATOM     39   O  SGN C   2      41.335 -35.921  39.7480  0.00  0.00     0.000 OA
ENDBRANCH 24 34
BRANCH 20 40
ATOM     40  O4  IDS C   3      39.735 -39.615  44.9180  0.00  0.00     0.000 O
BRANCH 40 44
ATOM     41  C1  IDS C   3      40.212 -43.084  44.5120  0.00  0.00     0.000 C
ATOM     42  C2  IDS C   3      39.759 -42.491  45.8430  0.00  0.00     0.000 C
ATOM     43  C3  IDS C   3      40.699 -41.366  46.2710  0.00  0.00     0.000 C
ATOM     44  C4  IDS C   3      40.929 -40.367  45.1480  0.00  0.00     0.000 C
ATOM     45  C5  IDS C   3      41.332 -41.111  43.8570  0.00  0.00     0.000 C
ATOM     46  O5  IDS C   3      40.322 -42.065  43.5220  0.00  0.00     0.000 O
ATOM     47   O  IDS C   3      41.943 -41.922  46.6890  0.00  0.00     0.000 O
ATOM     49  HD  IDS C   3      41.104 -41.745  46.8070  0.00  0.00     0.000 HD
BRANCH 42 49
ATOM     49   O  IDS C   3      38.389 -41.941  45.7170  0.00  0.00     0.000 O
ATOM     50   S  IDS C   3      37.280 -42.315  46.8100  0.00  0.00     0.000 S
ATOM     51   O  IDS C   3      37.702 -41.577  47.9800  0.00  0.00     0.000 OA
ATOM     52   O  IDS C   3      37.281 -43.753  47.0280  0.00  0.00     0.000 OA
ATOM     53   O  IDS C   3      36.019 -41.848  46.2730  0.00  0.00     0.000 OA
ENDBRANCH 42 49
BRANCH 45 54
ATOM     54   C  IDS C   3      41.543 -40.186  42.6700  0.00  0.00     0.000 C
ATOM     55   O  IDS C   3      42.448 -39.391  42.6860  0.00  0.00     0.000 OA
ATOM     56   O  IDS C   3      40.790 -40.239  41.7170  0.00  0.00     0.000 OA
ENDBRANCH 45 54
BRANCH 41 57
ATOM     57  O4  SGN C   4      41.234 -43.907  44.7780  0.00  0.00     0.000 O
BRANCH 57 61
ATOM     58  C1  SGN C   4      44.301 -45.765  42.6170  0.00  0.00     0.000 C
ATOM     59  C2  SGN C   4      43.966 -44.315  42.2330  0.00  0.00     0.000 C
ATOM     60  C3  SGN C   4      43.146 -43.626  43.3330  0.00  0.00     0.000 C
ATOM     61  C4  SGN C   4      41.919 -44.464  43.6520  0.00  0.00     0.000 C
ATOM     62  C5  SGN C   4      42.324 -45.897  43.9940  0.00  0.00     0.000 C
ATOM     63  O5  SGN C   4      43.109 -46.471  42.9320  0.00  0.00     0.000 O
BRANCH 59 66
ATOM     64   N  SGN C   4      44.918 -43.868  41.2120  0.00  0.00     0.000 N
ATOM     66  HD  SGN C   4      44.555 -44.246  41.9010  0.00  0.00     0.000 HD
ATOM     66   O  SGN C   4      46.778 -42.521  40.3980  0.00  0.00     0.000 OA
ATOM     67   O  SGN C   4      45.096 -41.519  41.8840  0.00  0.00     0.000 OA
ATOM     68   S  SGN C   4      46.013 -42.753  41.5760  0.00  0.00     0.000 S
ATOM     69   O  SGN C   4      46.673 -43.146  42.7690  0.00  0.00     0.000 OA
ENDBRANCH 59 66
BRANCH 62 70
ATOM     70   C  SGN C   4      41.118 -46.783  44.1840  0.00  0.00     0.000 C
ATOM     71   S  SGN C   4      40.217 -48.770  45.5300  0.00  0.00     0.000 S
ATOM     72   O  SGN C   4      38.973 -48.052  45.7300  0.00  0.00     0.000 OA
ATOM     73   O  SGN C   4      40.227 -49.575  44.3250  0.00  0.00     0.000 OA
ATOM     74   O  SGN C   4      40.673 -49.475  46.7060  0.00  0.00     0.000 OA
ATOM     75   O  SGN C   4      41.309 -47.637  45.3180  0.00  0.00     0.000 O
ENDBRANCH 62 70
ENDBRANCH 57 61
ENDBRANCH 41 57
ENDBRANCH 40 44
ENDBRANCH 20 40
ENDBRANCH 19 23
ENDBRANCH 1 19
TORSDOF 14
ENDMDL
MODEL 67
REMARK VINA RESULT:      -5.4     17.611     25.246
ROOT
ATOM      1  C1  IDS C   1      35.466 -37.474  42.0790  0.00  0.00     0.000 C
ATOM      2  C2  IDS C   1      35.408 -38.102  40.6970  0.00  0.00     0.000 C
ATOM      3  C3  IDS C   1      33.977 -38.478  40.3340  0.00  0.00     0.000 C
ATOM      4  C4  IDS C   1      33.027 -37.299  40.5400  0.00  0.00     0.000 C
ATOM      5  C5  IDS C   1      33.237 -36.681  41.9370  0.00  0.00     0.000 C
ATOM      6  O5  IDS C   1      34.606 -36.337  42.1280  0.00  0.00     0.000 O
ATOM      7   O  IDS C   1      33.564 -39.597  41.1210  0.00  0.00     0.000 O
ATOM      9  HD  IDS C   1      32.800 -39.221  40.9630  0.00  0.00     0.000 HD
ATOM      9   O  IDS C   1      33.291 -36.306  39.5360  0.00  0.00     0.000 O
ATOM     11  HD  IDS C   1      32.527 -35.931  39.3780  0.00  0.00     0.000 HD
ENDROOT
BRANCH 2 11
ATOM     11   O  IDS C   1      35.893 -37.143  39.6800  0.00  0.00     0.000 O
ATOM     12   S  IDS C   1      37.446 -37.067  39.3080  0.00  0.00     0.000 S
ATOM     13   O  IDS C   1      37.408 -36.755  37.8960  0.00  0.00     0.000 OA
ATOM     14   O  IDS C   1      38.067 -38.340  39.5870  0.00  0.00     0.000 OA
ATOM     15   O  IDS C   1      37.961 -35.993  40.1200  0.00  0.00     0.000 OA
ENDBRANCH 2 11
BRANCH 5 16
ATOM     16   C  IDS C   1      32.409 -35.432  42.1720  0.00  0.00     0.000 C
ATOM     17   O  IDS C   1      31.534 -35.153  41.3790  0.00  0.00     0.000 OA
ATOM     18   O  IDS C   1      32.621 -34.721  43.1150  0.00  0.00     0.000 OA
ENDBRANCH 5 16
BRANCH 1 19
ATOM     19  O4  SGN C   2      35.448 -38.268  43.1530  0.00  0.00     0.000 O
BRANCH 19 23
ATOM     20  C1  SGN C   2      36.995 -38.621  47.0140  0.00  0.00     0.000 C
ATOM     21  C2  SGN C   2      35.546 -38.133  46.9000  0.00  0.00     0.000 C
ATOM     22  C3  SGN C   2      34.998 -38.467  45.5150  0.00  0.00     0.000 C
ATOM     23  C4  SGN C   2      35.893 -37.852  44.4460  0.00  0.00     0.000 C
ATOM     24  C5  SGN C   2      37.341 -38.303  44.6590  0.00  0.00     0.000 C
ATOM     25  O5  SGN C   2      37.758 -37.988  46.0000  0.00  0.00     0.000 O
ATOM     26   O  SGN C   2      33.658 -38.007  45.3850  0.00  0.00     0.000 O
ATOM     28  HD  SGN C   2      32.828 -37.759  45.4130  0.00  0.00     0.000 HD
BRANCH 21 30
ATOM     28   N  SGN C   2      35.678 -38.265  48.3560  0.00  0.00     0.000 N
ATOM     30  HD  SGN C   2      35.366 -38.982  48.7290  0.00  0.00     0.000 HD
ATOM     30   S  SGN C   2      34.495 -37.825  49.3390  0.00  0.00     0.000 S
ATOM     31   O  SGN C   2      33.342 -38.520  48.8750  0.00  0.00     0.000 OA
ATOM     32   O  SGN C   2      34.933 -37.995  50.6750  0.00  0.00     0.000 OA
ATOM     33   O  SGN C   2      34.352 -36.284  49.0970  0.00  0.00     0.000 OA
ENDBRANCH 21 30
BRANCH 24 34
ATOM     34   C  SGN C   2      38.329 -37.628  43.7360  0.00  0.00     0.000 C
ATOM     35   O  SGN C   2      39.479 -38.477  43.5810  0.00  0.00     0.000 O
ATOM     36   S  SGN C   2      40.821 -37.791  43.0550  0.00  0.00     0.000 S
ATOM     37   O  SGN C   2      41.049 -36.682  43.9620  0.00  0.00     0.000 OA
ATOM     38   O  SGN C   2      41.837 -38.813  43.1320  0.00  0.00     0.000 OA
ATOM     39   O  SGN C   2      40.502 -37.388  41.7070  0.00  0.00     0.000 OA
ENDBRANCH 24 34
BRANCH 20 40
ATOM     40  O4  IDS C   3      37.208 -39.934  46.9670  0.00  0.00     0.000 O
BRANCH 40 44
ATOM     41  C1  IDS C   3      37.263 -43.322  47.9390  0.00  0.00     0.000 C
ATOM     42  C2  IDS C   3      36.672 -42.243  48.8410  0.00  0.00     0.000 C
ATOM     43  C3  IDS C   3      37.669 -41.102  49.0280  0.00  0.00     0.000 C
ATOM     44  C4  IDS C   3      38.227 -40.618  47.6990  0.00  0.00     0.000 C
ATOM     45  C5  IDS C   3      38.742 -41.819  46.8770  0.00  0.00     0.000 C
ATOM     46  O5  IDS C   3      37.683 -42.762  46.6970  0.00  0.00     0.000 O
ATOM     47   O  IDS C   3      38.732 -41.537  49.8720  0.00  0.00     0.000 O
ATOM     49  HD  IDS C   3      37.918 -41.275  49.7370  0.00  0.00     0.000 HD
BRANCH 42 49
ATOM     49   O  IDS C   3      35.434 -41.696  48.2370  0.00  0.00     0.000 O
ATOM     50   S  IDS C   3      34.006 -42.201  48.7590  0.00  0.00     0.000 S
ATOM     51   O  IDS C   3      33.895 -41.594  50.0670  0.00  0.00     0.000 OA
ATOM     52   O  IDS C   3      33.999 -43.653  48.8150  0.00  0.00     0.000 OA
ATOM     53   O  IDS C   3      33.034 -41.689  47.8160  0.00  0.00     0.000 OA
ENDBRANCH 42 49
BRANCH 45 54
ATOM     54   C  IDS C   3      39.283 -41.426  45.5120  0.00  0.00     0.000 C
ATOM     55   O  IDS C   3      40.341 -40.857  45.4300  0.00  0.00     0.000 OA
ATOM     56   O  IDS C   3      38.639 -41.672  44.5100  0.00  0.00     0.000 OA
ENDBRANCH 45 54
BRANCH 41 57
ATOM     57  O4  SGN C   4      38.099 -44.047  48.6920  0.00  0.00     0.000 O
BRANCH 57 61
ATOM     58  C1  SGN C   4      39.958 -47.793  48.4910  0.00  0.00     0.000 C
ATOM     59  C2  SGN C   4      39.965 -46.948  47.2070  0.00  0.00     0.000 C
ATOM     60  C3  SGN C   4      39.639 -45.479  47.5080  0.00  0.00     0.000 C
ATOM     61  C4  SGN C   4      38.331 -45.397  48.2770  0.00  0.00     0.000 C
ATOM     62  C5  SGN C   4      38.384 -46.282  49.5210  0.00  0.00     0.000 C
ATOM     63  O5  SGN C   4      38.719 -47.637  49.1660  0.00  0.00     0.000 O
BRANCH 59 66
ATOM     64   N  SGN C   4      41.260 -47.206  46.5680  0.00  0.00     0.000 N
ATOM     66  HD  SGN C   4      40.496 -46.863  46.7900  0.00  0.00     0.000 HD
ATOM     66   O  SGN C   4      42.683 -47.937  44.7310  0.00  0.00     0.000 OA
ATOM     67   O  SGN C   4      40.634 -49.185  45.2670  0.00  0.00     0.000 OA
ATOM     68   S  SGN C   4      41.310 -47.783  45.0710  0.00  0.00     0.000 S
ATOM     69   O  SGN C   4      40.475 -46.979  44.2540  0.00  0.00     0.000 OA
ENDBRANCH 59 66
BRANCH 62 70
ATOM     70   C  SGN C   4      37.053 -46.323  50.2290  0.00  0.00     0.000 C
ATOM     71   S  SGN C   4      35.896 -45.840  52.4650  0.00  0.00     0.000 S
ATOM     72   O  SGN C   4      34.818 -45.186  51.7490  0.00  0.00     0.000 OA
ATOM     73   O  SGN C   4      35.683 -47.261  52.6490  0.00  0.00     0.000 OA
ATOM     74   O  SGN C   4      36.291 -45.149  53.6710  0.00  0.00     0.000 OA
ATOM     75   O  SGN C   4      37.159 -45.697  51.5130  0.00  0.00     0.000 O
ENDBRANCH 62 70
ENDBRANCH 57 61
ENDBRANCH 41 57
ENDBRANCH 40 44
ENDBRANCH 20 40
ENDBRANCH 19 23
ENDBRANCH 1 19
TORSDOF 14
ENDMDL
MODEL 68
REMARK VINA RESULT:      -5.4     12.546     18.414
ROOT
ATOM      1  C1  IDS C   1      23.871 -30.593  10.0970  0.00  0.00     0.000 C
ATOM      2  C2  IDS C   1      25.001 -31.249  10.8710  0.00  0.00     0.000 C
ATOM      3  C3  IDS C   1      24.451 -32.165  11.9570  0.00  0.00     0.000 C
ATOM      4  C4  IDS C   1      23.417 -33.137  11.3890  0.00  0.00     0.000 C
ATOM      5  C5  IDS C   1      22.375 -32.374  10.5460  0.00  0.00     0.000 C
ATOM      6  O5  IDS C   1      23.019 -31.594   9.5440  0.00  0.00     0.000 O
ATOM      7   O  IDS C   1      23.876 -31.376  13.0000  0.00  0.00     0.000 O
ATOM      9  HD  IDS C   1      23.418 -32.107  13.0820  0.00  0.00     0.000 HD
ATOM      9   O  IDS C   1      24.086 -34.099  10.5600  0.00  0.00     0.000 O
ATOM     11  HD  IDS C   1      23.629 -34.830  10.6420  0.00  0.00     0.000 HD
ENDROOT
BRANCH 2 11
ATOM     11   O  IDS C   1      25.829 -32.074   9.9640  0.00  0.00     0.000 O
ATOM     12   S  IDS C   1      27.389 -32.276  10.2440  0.00  0.00     0.000 S
ATOM     13   O  IDS C   1      27.611 -33.629   9.7840  0.00  0.00     0.000 OA
ATOM     14   O  IDS C   1      27.647 -32.110  11.6540  0.00  0.00     0.000 OA
ATOM     15   O  IDS C   1      28.036 -31.279   9.4270  0.00  0.00     0.000 OA
ENDBRANCH 2 11
BRANCH 5 16
ATOM     16   C  IDS C   1      21.379 -33.286   9.8530  0.00  0.00     0.000 C
ATOM     17   O  IDS C   1      20.612 -32.808   9.0450  0.00  0.00     0.000 OA
ATOM     18   O  IDS C   1      21.337 -34.458  10.1090  0.00  0.00     0.000 OA
ENDBRANCH 5 16
BRANCH 1 19
ATOM     19  O4  SGN C   2      23.258 -29.528  10.6230  0.00  0.00     0.000 O
BRANCH 19 23
ATOM     20  C1  SGN C   2      21.196 -26.005   9.7500  0.00  0.00     0.000 C
ATOM     21  C2  SGN C   2      20.741 -27.266   9.0070  0.00  0.00     0.000 C
ATOM     22  C3  SGN C   2      21.265 -28.506   9.7270  0.00  0.00     0.000 C
ATOM     23  C4  SGN C   2      22.783 -28.429   9.8440  0.00  0.00     0.000 C
ATOM     24  C5  SGN C   2      23.186 -27.113  10.5140  0.00  0.00     0.000 C
ATOM     25  O5  SGN C   2      22.614 -26.004   9.7960  0.00  0.00     0.000 O
ATOM     26   O  SGN C   2      20.865 -29.687   9.0410  0.00  0.00     0.000 O
ATOM     28  HD  SGN C   2      20.524 -30.353   8.6050  0.00  0.00     0.000 HD
BRANCH 21 30
ATOM     28   N  SGN C   2      19.688 -26.324   8.6070  0.00  0.00     0.000 N
ATOM     30  HD  SGN C   2      18.916 -26.391   8.9930  0.00  0.00     0.000 HD
ATOM     30   S  SGN C   2      18.616 -26.707   7.4830  0.00  0.00     0.000 S
ATOM     31   O  SGN C   2      18.048 -27.942   7.9090  0.00  0.00     0.000 OA
ATOM     32   O  SGN C   2      17.781 -25.585   7.2580  0.00  0.00     0.000 OA
ATOM     33   O  SGN C   2      19.477 -26.905   6.1890  0.00  0.00     0.000 OA
ENDBRANCH 21 30
BRANCH 24 34
ATOM     34   C  SGN C   2      24.678 -26.878  10.5420  0.00  0.00     0.000 C
ATOM     35   O  SGN C   2      25.256 -27.402   9.3330  0.00  0.00     0.000 O
ATOM     36   S  SGN C   2      26.825 -27.694   9.3470  0.00  0.00     0.000 S
ATOM     37   O  SGN C   2      27.031 -28.553  10.4970  0.00  0.00     0.000 OA
ATOM     38   O  SGN C   2      27.112 -28.341   8.0890  0.00  0.00     0.000 OA
ATOM     39   O  SGN C   2      27.422 -26.387   9.4790  0.00  0.00     0.000 OA
ENDBRANCH 24 34
BRANCH 20 40
ATOM     40  O4  IDS C   3      20.719 -25.808  10.9770  0.00  0.00     0.000 O
BRANCH 40 44
ATOM     41  C1  IDS C   3      18.686 -24.496  13.5410  0.00  0.00     0.000 C
ATOM     42  C2  IDS C   3      18.504 -24.077  12.0850  0.00  0.00     0.000 C
ATOM     43  C3  IDS C   3      19.835 -23.621  11.4930  0.00  0.00     0.000 C
ATOM     44  C4  IDS C   3      20.942 -24.630  11.7550  0.00  0.00     0.000 C
ATOM     45  C5  IDS C   3      20.976 -24.995  13.2540  0.00  0.00     0.000 C
ATOM     46  O5  IDS C   3      19.697 -25.495  13.6520  0.00  0.00     0.000 O
ATOM     47   O  IDS C   3      20.189 -22.356  12.0440  0.00  0.00     0.000 O
ATOM     49  HD  IDS C   3      19.722 -22.859  11.5170  0.00  0.00     0.000 HD
BRANCH 42 49
ATOM     49   O  IDS C   3      17.995 -25.217  11.2870  0.00  0.00     0.000 O
ATOM     50   S  IDS C   3      16.449 -25.267  10.8710  0.00  0.00     0.000 S
ATOM     51   O  IDS C   3      16.341 -24.233   9.8650  0.00  0.00     0.000 OA
ATOM     52   O  IDS C   3      15.625 -24.998  12.0380  0.00  0.00     0.000 OA
ATOM     53   O  IDS C   3      16.223 -26.595  10.3400  0.00  0.00     0.000 OA
ENDBRANCH 42 49
BRANCH 45 54
ATOM     54   C  IDS C   3      22.034 -26.032  13.5980  0.00  0.00     0.000 C
ATOM     55   O  IDS C   3      21.701 -27.159  13.8620  0.00  0.00     0.000 OA
ATOM     56   O  IDS C   3      23.207 -25.716  13.6220  0.00  0.00     0.000 OA
ENDBRANCH 45 54
BRANCH 41 57
ATOM     57  O4  SGN C   4      18.737 -23.373  14.2680  0.00  0.00     0.000 O
BRANCH 57 61
ATOM     58  C1  SGN C   4      18.951 -22.484  18.3540  0.00  0.00     0.000 C
ATOM     59  C2  SGN C   4      19.576 -23.814  17.9020  0.00  0.00     0.000 C
ATOM     60  C3  SGN C   4      19.802 -23.833  16.3840  0.00  0.00     0.000 C
ATOM     61  C4  SGN C   4      18.499 -23.507  15.6730  0.00  0.00     0.000 C
ATOM     62  C5  SGN C   4      17.921 -22.191  16.1920  0.00  0.00     0.000 C
ATOM     63  O5  SGN C   4      17.759 -22.236  17.6220  0.00  0.00     0.000 O
BRANCH 59 66
ATOM     64   N  SGN C   4      20.741 -23.975  18.7790  0.00  0.00     0.000 N
ATOM     66  HD  SGN C   4      20.184 -24.030  18.1180  0.00  0.00     0.000 HD
ATOM     66   O  SGN C   4      22.151 -25.208  20.3360  0.00  0.00     0.000 OA
ATOM     67   O  SGN C   4      19.704 -25.363  20.5110  0.00  0.00     0.000 OA
ATOM     68   S  SGN C   4      20.959 -25.353  19.5710  0.00  0.00     0.000 S
ATOM     69   O  SGN C   4      20.851 -26.423  18.6460  0.00  0.00     0.000 OA
ENDBRANCH 59 66
BRANCH 62 70
ATOM     70   C  SGN C   4      16.562 -21.911  15.6000  0.00  0.00     0.000 C
ATOM     71   S  SGN C   4      14.131 -22.724  15.5530  0.00  0.00     0.000 S
ATOM     72   O  SGN C   4      13.685 -21.353  15.7040  0.00  0.00     0.000 OA
ATOM     73   O  SGN C   4      14.304 -23.123  14.1710  0.00  0.00     0.000 OA
ATOM     74   O  SGN C   4      13.374 -23.669  16.3420  0.00  0.00     0.000 OA
ATOM     75   O  SGN C   4      15.577 -22.754  16.2090  0.00  0.00     0.000 O
ENDBRANCH 62 70
ENDBRANCH 57 61
ENDBRANCH 41 57
ENDBRANCH 40 44
ENDBRANCH 20 40
ENDBRANCH 19 23
ENDBRANCH 1 19
TORSDOF 14
ENDMDL
MODEL 69
REMARK VINA RESULT:      -5.4     17.975     21.957
ROOT
ATOM      1  C1  IDS C   1      17.272 -40.582   7.8410  0.00  0.00     0.000 C
ATOM      2  C2  IDS C   1      16.495 -39.874   8.9370  0.00  0.00     0.000 C
ATOM      3  C3  IDS C   1      15.687 -38.716   8.3650  0.00  0.00     0.000 C
ATOM      4  C4  IDS C   1      14.843 -39.166   7.1720  0.00  0.00     0.000 C
ATOM      5  C5  IDS C   1      15.713 -39.953   6.1710  0.00  0.00     0.000 C
ATOM      6  O5  IDS C   1      16.375 -41.030   6.8260  0.00  0.00     0.000 O
ATOM      7   O  IDS C   1      16.572 -37.661   7.9820  0.00  0.00     0.000 O
ATOM      9  HD  IDS C   1      15.909 -37.517   7.4430  0.00  0.00     0.000 HD
ATOM      9   O  IDS C   1      13.780 -40.008   7.6440  0.00  0.00     0.000 O
ATOM     11  HD  IDS C   1      13.117 -39.864   7.1060  0.00  0.00     0.000 HD
ENDROOT
BRANCH 2 11
ATOM     11   O  IDS C   1      15.545 -40.812   9.5770  0.00  0.00     0.000 O
ATOM     12   S  IDS C   1      16.013 -41.745  10.7860  0.00  0.00     0.000 S
ATOM     13   O  IDS C   1      14.820 -41.812  11.6010  0.00  0.00     0.000 OA
ATOM     14   O  IDS C   1      17.125 -41.125  11.4660  0.00  0.00     0.000 OA
ATOM     15   O  IDS C   1      16.356 -43.000  10.1650  0.00  0.00     0.000 OA
ENDBRANCH 2 11
BRANCH 5 16
ATOM     16   C  IDS C   1      14.919 -40.533   5.0140  0.00  0.00     0.000 C
ATOM     17   O  IDS C   1      14.978 -39.986   3.9330  0.00  0.00     0.000 OA
ATOM     18   O  IDS C   1      14.232 -41.505   5.1650  0.00  0.00     0.000 OA
ENDBRANCH 5 16
BRANCH 1 19
ATOM     19  O4  SGN C   2      18.420 -40.050   7.4130  0.00  0.00     0.000 O
BRANCH 19 23
ATOM     20  C1  SGN C   2      22.315 -41.027   6.2730  0.00  0.00     0.000 C
ATOM     21  C2  SGN C   2      21.302 -40.822   5.1410  0.00  0.00     0.000 C
ATOM     22  C3  SGN C   2      20.086 -40.064   5.6680  0.00  0.00     0.000 C
ATOM     23  C4  SGN C   2      19.481 -40.820   6.8460  0.00  0.00     0.000 C
ATOM     24  C5  SGN C   2      20.555 -41.074   7.9070  0.00  0.00     0.000 C
ATOM     25  O5  SGN C   2      21.678 -41.751   7.3130  0.00  0.00     0.000 O
ATOM     26   O  SGN C   2      19.127 -39.879   4.6330  0.00  0.00     0.000 O
ATOM     28  HD  SGN C   2      18.630 -39.749   3.9360  0.00  0.00     0.000 HD
BRANCH 21 30
ATOM     28   N  SGN C   2      21.600 -40.260   3.8170  0.00  0.00     0.000 N
ATOM     30  HD  SGN C   2      21.100 -40.501   3.1520  0.00  0.00     0.000 HD
ATOM     30   S  SGN C   2      22.526 -41.043   2.7730  0.00  0.00     0.000 S
ATOM     31   O  SGN C   2      21.943 -42.337   2.6490  0.00  0.00     0.000 OA
ATOM     32   O  SGN C   2      22.696 -40.231   1.6260  0.00  0.00     0.000 OA
ATOM     33   O  SGN C   2      23.918 -41.125   3.4870  0.00  0.00     0.000 OA
ENDBRANCH 21 30
BRANCH 24 34
ATOM     34   C  SGN C   2      20.087 -41.947   9.0480  0.00  0.00     0.000 C
ATOM     35   O  SGN C   2      21.154 -42.081  10.0020  0.00  0.00     0.000 O
ATOM     36   S  SGN C   2      21.066 -43.306  11.0220  0.00  0.00     0.000 S
ATOM     37   O  SGN C   2      20.903 -44.475  10.1800  0.00  0.00     0.000 OA
ATOM     38   O  SGN C   2      22.309 -43.294  11.7540  0.00  0.00     0.000 OA
ATOM     39   O  SGN C   2      19.911 -43.002  11.8320  0.00  0.00     0.000 OA
ENDBRANCH 24 34
BRANCH 20 40
ATOM     40  O4  IDS C   3      22.893 -39.943   6.7850  0.00  0.00     0.000 O
BRANCH 40 44
ATOM     41  C1  IDS C   3      25.271 -37.344   6.9180  0.00  0.00     0.000 C
ATOM     42  C2  IDS C   3      25.323 -38.418   5.8350  0.00  0.00     0.000 C
ATOM     43  C3  IDS C   3      25.282 -39.809   6.4640  0.00  0.00     0.000 C
ATOM     44  C4  IDS C   3      24.149 -39.939   7.4690  0.00  0.00     0.000 C
ATOM     45  C5  IDS C   3      24.193 -38.763   8.4670  0.00  0.00     0.000 C
ATOM     46  O5  IDS C   3      24.129 -37.528   7.7510  0.00  0.00     0.000 O
ATOM     47   O  IDS C   3      26.529 -40.077   7.1000  0.00  0.00     0.000 O
ATOM     49  HD  IDS C   3      26.028 -39.991   6.3990  0.00  0.00     0.000 HD
BRANCH 42 49
ATOM     49   O  IDS C   3      24.165 -38.276   4.9220  0.00  0.00     0.000 O
ATOM     50   S  IDS C   3      24.312 -37.410   3.5820  0.00  0.00     0.000 S
ATOM     51   O  IDS C   3      25.150 -38.236   2.7420  0.00  0.00     0.000 OA
ATOM     52   O  IDS C   3      24.926 -36.131   3.8990  0.00  0.00     0.000 OA
ATOM     53   O  IDS C   3      22.970 -37.255   3.0600  0.00  0.00     0.000 OA
ENDBRANCH 42 49
BRANCH 45 54
ATOM     54   C  IDS C   3      23.066 -38.795   9.4870  0.00  0.00     0.000 C
ATOM     55   O  IDS C   3      22.127 -38.053   9.3620  0.00  0.00     0.000 OA
ATOM     56   O  IDS C   3      23.125 -39.557  10.4330  0.00  0.00     0.000 OA
ENDBRANCH 45 54
BRANCH 41 57
ATOM     57  O4  SGN C   4      26.502 -37.252   7.4370  0.00  0.00     0.000 O
BRANCH 57 61
ATOM     58  C1  SGN C   4      28.512 -34.481   9.8480  0.00  0.00     0.000 C
ATOM     59  C2  SGN C   4      26.988 -34.578  10.0290  0.00  0.00     0.000 C
ATOM     60  C3  SGN C   4      26.438 -35.873   9.4160  0.00  0.00     0.000 C
ATOM     61  C4  SGN C   4      26.882 -35.978   7.9670  0.00  0.00     0.000 C
ATOM     62  C5  SGN C   4      28.400 -35.845   7.8600  0.00  0.00     0.000 C
ATOM     63  O5  SGN C   4      28.847 -34.621   8.4750  0.00  0.00     0.000 O
BRANCH 59 66
ATOM     64   N  SGN C   4      26.796 -34.337  11.4620  0.00  0.00     0.000 N
ATOM     66  HD  SGN C   4      26.696 -34.597  10.6420  0.00  0.00     0.000 HD
ATOM     66   O  SGN C   4      25.750 -33.250  13.3750  0.00  0.00     0.000 OA
ATOM     67   O  SGN C   4      26.288 -31.943  11.3640  0.00  0.00     0.000 OA
ATOM     68   S  SGN C   4      25.701 -33.272  11.9530  0.00  0.00     0.000 S
ATOM     69   O  SGN C   4      24.473 -33.561  11.3030  0.00  0.00     0.000 OA
ENDBRANCH 59 66
BRANCH 62 70
ATOM     70   C  SGN C   4      28.854 -35.811   6.4220  0.00  0.00     0.000 C
ATOM     71   S  SGN C   4      30.641 -34.859   4.8510  0.00  0.00     0.000 S
ATOM     72   O  SGN C   4      30.776 -36.165   4.2360  0.00  0.00     0.000 OA
ATOM     73   O  SGN C   4      29.632 -34.030   4.2230  0.00  0.00     0.000 OA
ATOM     74   O  SGN C   4      31.903 -34.185   5.0570  0.00  0.00     0.000 OA
ATOM     75   O  SGN C   4      30.124 -35.156   6.3220  0.00  0.00     0.000 O
ENDBRANCH 62 70
ENDBRANCH 57 61
ENDBRANCH 41 57
ENDBRANCH 40 44
ENDBRANCH 20 40
ENDBRANCH 19 23
ENDBRANCH 1 19
TORSDOF 14
ENDMDL
MODEL 70
REMARK VINA RESULT:      -5.3     30.907     35.122
ROOT
ATOM      1  C1  IDS C   1      36.670 -68.474  25.8150  0.00  0.00     0.000 C
ATOM      2  C2  IDS C   1      37.752 -68.922  26.7810  0.00  0.00     0.000 C
ATOM      3  C3  IDS C   1      37.160 -69.228  28.1520  0.00  0.00     0.000 C
ATOM      4  C4  IDS C   1      35.970 -70.181  28.0380  0.00  0.00     0.000 C
ATOM      5  C5  IDS C   1      34.984 -69.678  26.9650  0.00  0.00     0.000 C
ATOM      6  O5  IDS C   1      35.657 -69.474  25.7270  0.00  0.00     0.000 O
ATOM      7   O  IDS C   1      36.766 -68.009  28.7840  0.00  0.00     0.000 O
ATOM      9  HD  IDS C   1      36.222 -68.567  29.1610  0.00  0.00     0.000 HD
ATOM      9   O  IDS C   1      36.449 -71.484  27.6720  0.00  0.00     0.000 O
ATOM     11  HD  IDS C   1      35.905 -72.043  28.0490  0.00  0.00     0.000 HD
ENDROOT
BRANCH 2 11
ATOM     11   O  IDS C   1      38.401 -70.156  26.2860  0.00  0.00     0.000 O
ATOM     12   S  IDS C   1      39.975 -70.373  26.4560  0.00  0.00     0.000 S
ATOM     13   O  IDS C   1      40.066 -71.801  26.6670  0.00  0.00     0.000 OA
ATOM     14   O  IDS C   1      40.444 -69.606  27.5840  0.00  0.00     0.000 OA
ATOM     15   O  IDS C   1      40.538 -69.941  25.2010  0.00  0.00     0.000 OA
ENDBRANCH 2 11
BRANCH 5 16
ATOM     16   C  IDS C   1      33.832 -70.634  26.7130  0.00  0.00     0.000 C
ATOM     17   O  IDS C   1      34.060 -71.692  26.1670  0.00  0.00     0.000 OA
ATOM     18   O  IDS C   1      32.712 -70.345  27.0330  0.00  0.00     0.000 OA
ENDBRANCH 5 16
BRANCH 1 19
ATOM     19  O4  SGN C   2      36.240 -67.210  25.8630  0.00  0.00     0.000 O
BRANCH 19 23
ATOM     20  C1  SGN C   2      34.565 -64.104  23.6320  0.00  0.00     0.000 C
ATOM     21  C2  SGN C   2      33.588 -65.130  24.2180  0.00  0.00     0.000 C
ATOM     22  C3  SGN C   2      34.273 -65.917  25.3330  0.00  0.00     0.000 C
ATOM     23  C4  SGN C   2      35.537 -66.576  24.7930  0.00  0.00     0.000 C
ATOM     24  C5  SGN C   2      36.436 -65.521  24.1420  0.00  0.00     0.000 C
ATOM     25  O5  SGN C   2      35.697 -64.801  23.1390  0.00  0.00     0.000 O
ATOM     26   O  SGN C   2      33.385 -66.886  25.8780  0.00  0.00     0.000 O
ATOM     28  HD  SGN C   2      32.764 -67.398  26.1970  0.00  0.00     0.000 HD
BRANCH 21 30
ATOM     28   N  SGN C   2      32.648 -64.132  23.6920  0.00  0.00     0.000 N
ATOM     30  HD  SGN C   2      32.279 -63.586  24.2540  0.00  0.00     0.000 HD
ATOM     30   S  SGN C   2      31.072 -64.406  23.6710  0.00  0.00     0.000 S
ATOM     31   O  SGN C   2      30.733 -64.758  25.0080  0.00  0.00     0.000 OA
ATOM     32   O  SGN C   2      30.433 -63.309  23.0440  0.00  0.00     0.000 OA
ATOM     33   O  SGN C   2      30.914 -65.637  22.7140  0.00  0.00     0.000 OA
ENDBRANCH 21 30
BRANCH 24 34
ATOM     34   C  SGN C   2      37.646 -66.100  23.4470  0.00  0.00     0.000 C
ATOM     35   O  SGN C   2      37.211 -66.854  22.3020  0.00  0.00     0.000 O
ATOM     36   S  SGN C   2      38.236 -67.922  21.7050  0.00  0.00     0.000 S
ATOM     37   O  SGN C   2      38.598 -68.757  22.8330  0.00  0.00     0.000 OA
ATOM     38   O  SGN C   2      37.507 -68.629  20.6790  0.00  0.00     0.000 OA
ATOM     39   O  SGN C   2      39.321 -67.119  21.1990  0.00  0.00     0.000 OA
ENDBRANCH 24 34
BRANCH 20 40
ATOM     40  O4  IDS C   3      34.971 -63.117  24.4280  0.00  0.00     0.000 O
BRANCH 40 44
ATOM     41  C1  IDS C   3      35.129 -60.131  26.2940  0.00  0.00     0.000 C
ATOM     42  C2  IDS C   3      33.867 -60.532  25.5340  0.00  0.00     0.000 C
ATOM     43  C3  IDS C   3      34.203 -60.856  24.0810  0.00  0.00     0.000 C
ATOM     44  C4  IDS C   3      35.372 -61.822  23.9750  0.00  0.00     0.000 C
ATOM     45  C5  IDS C   3      36.553 -61.314  24.8290  0.00  0.00     0.000 C
ATOM     46  O5  IDS C   3      36.124 -61.145  26.1820  0.00  0.00     0.000 O
ATOM     47   O  IDS C   3      34.505 -59.649  23.3850  0.00  0.00     0.000 O
ATOM     49  HD  IDS C   3      33.952 -60.205  23.7520  0.00  0.00     0.000 HD
BRANCH 42 49
ATOM     49   O  IDS C   3      33.256 -61.728  26.1580  0.00  0.00     0.000 O
ATOM     50   S  IDS C   3      31.840 -61.603  26.8960  0.00  0.00     0.000 S
ATOM     51   O  IDS C   3      30.909 -61.429  25.8040  0.00  0.00     0.000 OA
ATOM     52   O  IDS C   3      31.864 -60.462  27.7970  0.00  0.00     0.000 OA
ATOM     53   O  IDS C   3      31.649 -62.851  27.6050  0.00  0.00     0.000 OA
ENDBRANCH 42 49
BRANCH 45 54
ATOM     54   C  IDS C   3      37.754 -62.246  24.8100  0.00  0.00     0.000 C
ATOM     55   O  IDS C   3      38.310 -62.482  23.7690  0.00  0.00     0.000 OA
ATOM     56   O  IDS C   3      38.138 -62.762  25.8420  0.00  0.00     0.000 OA
ENDBRANCH 45 54
BRANCH 41 57
ATOM     57  O4  SGN C   4      35.393 -58.859  25.9700  0.00  0.00     0.000 O
BRANCH 57 61
ATOM     58  C1  SGN C   4      37.563 -55.692  27.6400  0.00  0.00     0.000 C
ATOM     59  C2  SGN C   4      38.156 -57.100  27.8070  0.00  0.00     0.000 C
ATOM     60  C3  SGN C   4      37.514 -58.092  26.8270  0.00  0.00     0.000 C
ATOM     61  C4  SGN C   4      36.003 -58.052  26.9820  0.00  0.00     0.000 C
ATOM     62  C5  SGN C   4      35.487 -56.621  26.8330  0.00  0.00     0.000 C
ATOM     63  O5  SGN C   4      36.149 -55.744  27.7640  0.00  0.00     0.000 O
BRANCH 59 66
ATOM     64   N  SGN C   4      39.602 -56.862  27.7440  0.00  0.00     0.000 N
ATOM     66  HD  SGN C   4      38.816 -57.223  27.6980  0.00  0.00     0.000 HD
ATOM     66   O  SGN C   4      41.895 -57.117  28.5260  0.00  0.00     0.000 OA
ATOM     67   O  SGN C   4      40.070 -56.831  30.1480  0.00  0.00     0.000 OA
ATOM     68   S  SGN C   4      40.568 -57.530  28.8360  0.00  0.00     0.000 S
ATOM     69   O  SGN C   4      40.270 -58.915  28.9110  0.00  0.00     0.000 OA
ENDBRANCH 59 66
BRANCH 62 70
ATOM     70   C  SGN C   4      34.008 -56.534  27.1150  0.00  0.00     0.000 C
ATOM     71   S  SGN C   4      32.112 -54.899  27.6690  0.00  0.00     0.000 S
ATOM     72   O  SGN C   4      31.277 -55.556  26.6830  0.00  0.00     0.000 OA
ATOM     73   O  SGN C   4      32.010 -55.484  28.9900  0.00  0.00     0.000 OA
ATOM     74   O  SGN C   4      31.994 -53.459  27.6590  0.00  0.00     0.000 OA
ATOM     75   O  SGN C   4      33.600 -55.162  27.1790  0.00  0.00     0.000 O
ENDBRANCH 62 70
ENDBRANCH 57 61
ENDBRANCH 41 57
ENDBRANCH 40 44
ENDBRANCH 20 40
ENDBRANCH 19 23
ENDBRANCH 1 19
TORSDOF 14
ENDMDL
MODEL 71
REMARK VINA RESULT:      -5.3     24.138     27.145
ROOT
ATOM      1  C1  IDS C   1      15.166 -14.054  42.5010  0.00  0.00     0.000 C
ATOM      2  C2  IDS C   1      14.896 -14.078  41.0070  0.00  0.00     0.000 C
ATOM      3  C3  IDS C   1      15.590 -15.266  40.3520  0.00  0.00     0.000 C
ATOM      4  C4  IDS C   1      15.262 -16.568  41.0810  0.00  0.00     0.000 C
ATOM      5  C5  IDS C   1      15.483 -16.400  42.5980  0.00  0.00     0.000 C
ATOM      6  O5  IDS C   1      14.746 -15.285  43.0880  0.00  0.00     0.000 O
ATOM      7   O  IDS C   1      17.001 -15.043  40.3340  0.00  0.00     0.000 O
ATOM      9  HD  IDS C   1      16.975 -15.908  40.3350  0.00  0.00     0.000 HD
ATOM      9   O  IDS C   1      13.889 -16.909  40.8350  0.00  0.00     0.000 O
ATOM     11  HD  IDS C   1      13.864 -17.775  40.8360  0.00  0.00     0.000 HD
ENDROOT
BRANCH 2 11
ATOM     11   O  IDS C   1      13.444 -14.209  40.7530  0.00  0.00     0.000 O
ATOM     12   S  IDS C   1      12.503 -12.918  40.7260  0.00  0.00     0.000 S
ATOM     13   O  IDS C   1      11.528 -13.271  39.7170  0.00  0.00     0.000 OA
ATOM     14   O  IDS C   1      13.288 -11.761  40.3700  0.00  0.00     0.000 OA
ATOM     15   O  IDS C   1      11.951 -12.843  42.0550  0.00  0.00     0.000 OA
ENDBRANCH 2 11
BRANCH 5 16
ATOM     16   C  IDS C   1      15.069 -17.618  43.4040  0.00  0.00     0.000 C
ATOM     17   O  IDS C   1      15.736 -17.939  44.3640  0.00  0.00     0.000 OA
ATOM     18   O  IDS C   1      14.108 -18.265  43.0900  0.00  0.00     0.000 OA
ENDBRANCH 5 16
BRANCH 1 19
ATOM     19  O4  SGN C   2      16.328 -13.563  42.9420  0.00  0.00     0.000 O
BRANCH 19 23
ATOM     20  C1  SGN C   2      18.302 -11.819  46.1810  0.00  0.00     0.000 C
ATOM     21  C2  SGN C   2      17.994 -13.317  46.2930  0.00  0.00     0.000 C
ATOM     22  C3  SGN C   2      17.687 -13.885  44.9090  0.00  0.00     0.000 C
ATOM     23  C4  SGN C   2      16.533 -13.111  44.2820  0.00  0.00     0.000 C
ATOM     24  C5  SGN C   2      16.855 -11.614  44.2750  0.00  0.00     0.000 C
ATOM     25  O5  SGN C   2      17.174 -11.177  45.6080  0.00  0.00     0.000 O
ATOM     26   O  SGN C   2      17.384 -15.272  44.9960  0.00  0.00     0.000 O
ATOM     28  HD  SGN C   2      17.280 -16.122  45.1260  0.00  0.00     0.000 HD
BRANCH 21 30
ATOM     28   N  SGN C   2      17.788 -13.821  47.6570  0.00  0.00     0.000 N
ATOM     30  HD  SGN C   2      17.860 -13.260  48.3120  0.00  0.00     0.000 HD
ATOM     30   S  SGN C   2      19.021 -14.289  48.5630  0.00  0.00     0.000 S
ATOM     31   O  SGN C   2      19.925 -13.189  48.5670  0.00  0.00     0.000 OA
ATOM     32   O  SGN C   2      18.515 -14.793  49.7850  0.00  0.00     0.000 OA
ATOM     33   O  SGN C   2      19.627 -15.505  47.7820  0.00  0.00     0.000 OA
ENDBRANCH 21 30
BRANCH 24 34
ATOM     34   C  SGN C   2      15.708 -10.749  43.8060  0.00  0.00     0.000 C
ATOM     35   O  SGN C   2      16.218  -9.735  42.9220  0.00  0.00     0.000 O
ATOM     36   S  SGN C   2      15.301  -8.450  42.6860  0.00  0.00     0.000 S
ATOM     37   O  SGN C   2      15.013  -7.953  44.0170  0.00  0.00     0.000 OA
ATOM     38   O  SGN C   2      16.097  -7.544  41.8950  0.00  0.00     0.000 OA
ATOM     39   O  SGN C   2      14.147  -8.968  41.9930  0.00  0.00     0.000 OA
ENDBRANCH 24 34
BRANCH 20 40
ATOM     40  O4  IDS C   3      19.395 -11.463  45.5110  0.00  0.00     0.000 O
BRANCH 40 44
ATOM     41  C1  IDS C   3      22.746 -10.873  44.5860  0.00  0.00     0.000 C
ATOM     42  C2  IDS C   3      22.390 -11.573  45.8950  0.00  0.00     0.000 C
ATOM     43  C3  IDS C   3      21.379 -10.744  46.6830  0.00  0.00     0.000 C
ATOM     44  C4  IDS C   3      20.201 -10.323  45.8190  0.00  0.00     0.000 C
ATOM     45  C5  IDS C   3      20.711  -9.678  44.5130  0.00  0.00     0.000 C
ATOM     46  O5  IDS C   3      21.569 -10.596  43.8320  0.00  0.00     0.000 O
ATOM     47   O  IDS C   3      22.026  -9.591  47.2170  0.00  0.00     0.000 O
ATOM     49  HD  IDS C   3      21.856 -10.440  47.2070  0.00  0.00     0.000 HD
BRANCH 42 49
ATOM     49   O  IDS C   3      21.800 -12.903  45.6180  0.00  0.00     0.000 O
ATOM     50   S  IDS C   3      22.662 -14.226  45.8870  0.00  0.00     0.000 S
ATOM     51   O  IDS C   3      22.709 -14.306  47.3300  0.00  0.00     0.000 OA
ATOM     52   O  IDS C   3      23.980 -14.072  45.2930  0.00  0.00     0.000 OA
ATOM     53   O  IDS C   3      21.919 -15.313  45.2860  0.00  0.00     0.000 OA
ENDBRANCH 42 49
BRANCH 45 54
ATOM     54   C  IDS C   3      19.593  -9.263  43.5700  0.00  0.00     0.000 C
ATOM     55   O  IDS C   3      19.438  -9.853  42.5320  0.00  0.00     0.000 OA
ATOM     56   O  IDS C   3      18.872  -8.328  43.8580  0.00  0.00     0.000 OA
ENDBRANCH 45 54
BRANCH 41 57
ATOM     57  O4  SGN C   4      23.623  -9.907  44.8840  0.00  0.00     0.000 O
BRANCH 57 61
ATOM     58  C1  SGN C   4      25.443  -6.650  42.9850  0.00  0.00     0.000 C
ATOM     59  C2  SGN C   4      23.938  -6.529  43.2740  0.00  0.00     0.000 C
ATOM     60  C3  SGN C   4      23.487  -7.568  44.3100  0.00  0.00     0.000 C
ATOM     61  C4  SGN C   4      23.905  -8.955  43.8530  0.00  0.00     0.000 C
ATOM     62  C5  SGN C   4      25.403  -8.994  43.5570  0.00  0.00     0.000 C
ATOM     63  O5  SGN C   4      25.757  -7.979  42.5980  0.00  0.00     0.000 O
BRANCH 59 66
ATOM     64   N  SGN C   4      23.752  -5.098  43.0140  0.00  0.00     0.000 N
ATOM     66  HD  SGN C   4      23.959  -5.857  43.3760  0.00  0.00     0.000 HD
ATOM     66   O  SGN C   4      22.667  -2.941  43.3370  0.00  0.00     0.000 OA
ATOM     67   O  SGN C   4      21.318  -4.995  43.2680  0.00  0.00     0.000 OA
ATOM     68   S  SGN C   4      22.612  -4.286  43.7990  0.00  0.00     0.000 S
ATOM     69   O  SGN C   4      22.747  -4.552  45.1860  0.00  0.00     0.000 OA
ENDBRANCH 59 66
BRANCH 62 70
ATOM     70   C  SGN C   4      25.819 -10.321  42.9750  0.00  0.00     0.000 C
ATOM     71   S  SGN C   4      25.318 -11.990  41.0950  0.00  0.00     0.000 S
ATOM     72   O  SGN C   4      26.741 -12.113  40.8440  0.00  0.00     0.000 OA
ATOM     73   O  SGN C   4      24.825 -12.933  42.0790  0.00  0.00     0.000 OA
ATOM     74   O  SGN C   4      24.522 -11.936  39.8900  0.00  0.00     0.000 OA
ATOM     75   O  SGN C   4      25.143 -10.547  41.7320  0.00  0.00     0.000 O
ENDBRANCH 62 70
ENDBRANCH 57 61
ENDBRANCH 41 57
ENDBRANCH 40 44
ENDBRANCH 20 40
ENDBRANCH 19 23
ENDBRANCH 1 19
TORSDOF 14
ENDMDL
MODEL 72
REMARK VINA RESULT:      -5.3     26.083     29.078
ROOT
ATOM      1  C1  IDS C   1      15.293 -13.698  42.4800  0.00  0.00     0.000 C
ATOM      2  C2  IDS C   1      15.247 -14.359  41.1140  0.00  0.00     0.000 C
ATOM      3  C3  IDS C   1      16.449 -15.274  40.9150  0.00  0.00     0.000 C
ATOM      4  C4  IDS C   1      16.607 -16.241  42.0880  0.00  0.00     0.000 C
ATOM      5  C5  IDS C   1      16.545 -15.474  43.4240  0.00  0.00     0.000 C
ATOM      6  O5  IDS C   1      15.355 -14.696  43.4980  0.00  0.00     0.000 O
ATOM      7   O  IDS C   1      17.628 -14.483  40.7570  0.00  0.00     0.000 O
ATOM      9  HD  IDS C   1      17.966 -15.212  41.0780  0.00  0.00     0.000 HD
ATOM      9   O  IDS C   1      15.544 -17.206  42.0430  0.00  0.00     0.000 O
ATOM     11  HD  IDS C   1      15.882 -17.935  42.3650  0.00  0.00     0.000 HD
ENDROOT
BRANCH 2 11
ATOM     11   O  IDS C   1      14.026 -15.186  40.9880  0.00  0.00     0.000 O
ATOM     12   S  IDS C   1      12.604 -14.505  40.7290  0.00  0.00     0.000 S
ATOM     13   O  IDS C   1      11.945 -15.481  39.8890  0.00  0.00     0.000 OA
ATOM     14   O  IDS C   1      12.795 -13.234  40.0720  0.00  0.00     0.000 OA
ATOM     15   O  IDS C   1      12.015 -14.384  42.0390  0.00  0.00     0.000 OA
ENDBRANCH 2 11
BRANCH 5 16
ATOM     16   C  IDS C   1      16.580 -16.383  44.6390  0.00  0.00     0.000 C
ATOM     17   O  IDS C   1      15.719 -17.228  44.7620  0.00  0.00     0.000 OA
ATOM     18   O  IDS C   1      17.432 -16.261  45.4750  0.00  0.00     0.000 OA
ENDBRANCH 5 16
BRANCH 1 19
ATOM     19  O4  SGN C   2      16.079 -12.632  42.6590  0.00  0.00     0.000 O
BRANCH 19 23
ATOM     20  C1  SGN C   2      17.065  -9.562  45.3100  0.00  0.00     0.000 C
ATOM     21  C2  SGN C   2      17.820 -10.885  45.4840  0.00  0.00     0.000 C
ATOM     22  C3  SGN C   2      17.682 -11.728  44.2180  0.00  0.00     0.000 C
ATOM     23  C4  SGN C   2      16.206 -11.949  43.9070  0.00  0.00     0.000 C
ATOM     24  C5  SGN C   2      15.484 -10.601  43.8310  0.00  0.00     0.000 C
ATOM     25  O5  SGN C   2      15.704  -9.860  45.0440  0.00  0.00     0.000 O
ATOM     26   O  SGN C   2      18.364 -12.968  44.3680  0.00  0.00     0.000 O
ATOM     28  HD  SGN C   2      18.857 -13.664  44.5140  0.00  0.00     0.000 HD
BRANCH 21 30
ATOM     28   N  SGN C   2      18.307 -10.186  46.6800  0.00  0.00     0.000 N
ATOM     30  HD  SGN C   2      18.890  -9.555  46.5720  0.00  0.00     0.000 HD
ATOM     30   S  SGN C   2      19.654 -10.640  47.4150  0.00  0.00     0.000 S
ATOM     31   O  SGN C   2      20.652 -10.650  46.3990  0.00  0.00     0.000 OA
ATOM     32   O  SGN C   2      19.827  -9.838  48.5690  0.00  0.00     0.000 OA
ATOM     33   O  SGN C   2      19.346 -12.094  47.9090  0.00  0.00     0.000 OA
ENDBRANCH 21 30
BRANCH 24 34
ATOM     34   C  SGN C   2      13.986 -10.723  43.6720  0.00  0.00     0.000 C
ATOM     35   O  SGN C   2      13.631 -10.389  42.3190  0.00  0.00     0.000 O
ATOM     36   S  SGN C   2      12.108  -9.993  42.0460  0.00  0.00     0.000 S
ATOM     37   O  SGN C   2      11.831  -8.926  42.9890  0.00  0.00     0.000 OA
ATOM     38   O  SGN C   2      12.058  -9.568  40.6680  0.00  0.00     0.000 OA
ATOM     39   O  SGN C   2      11.379 -11.209  42.3070  0.00  0.00     0.000 OA
ENDBRANCH 24 34
BRANCH 20 40
ATOM     40  O4  IDS C   3      17.516  -8.713  44.3890  0.00  0.00     0.000 O
BRANCH 40 44
ATOM     41  C1  IDS C   3      19.012  -6.344  42.2500  0.00  0.00     0.000 C
ATOM     42  C2  IDS C   3      19.777  -6.960  43.4170  0.00  0.00     0.000 C
ATOM     43  C3  IDS C   3      18.977  -6.819  44.7100  0.00  0.00     0.000 C
ATOM     44  C4  IDS C   3      17.542  -7.292  44.5390  0.00  0.00     0.000 C
ATOM     45  C5  IDS C   3      16.914  -6.625  43.2970  0.00  0.00     0.000 C
ATOM     46  O5  IDS C   3      17.711  -6.917  42.1460  0.00  0.00     0.000 O
ATOM     47   O  IDS C   3      18.993  -5.457  45.1300  0.00  0.00     0.000 O
ATOM     49  HD  IDS C   3      19.364  -6.233  45.0270  0.00  0.00     0.000 HD
BRANCH 42 49
ATOM     49   O  IDS C   3      20.019  -8.400  43.1640  0.00  0.00     0.000 O
ATOM     50   S  IDS C   3      21.367  -8.861  42.4320  0.00  0.00     0.000 S
ATOM     51   O  IDS C   3      22.384  -8.644  43.4370  0.00  0.00     0.000 OA
ATOM     52   O  IDS C   3      21.574  -8.049  41.2440  0.00  0.00     0.000 OA
ATOM     53   O  IDS C   3      21.185 -10.261  42.1080  0.00  0.00     0.000 OA
ENDBRANCH 42 49
BRANCH 45 54
ATOM     54   C  IDS C   3      15.487  -7.075  43.0290  0.00  0.00     0.000 C
ATOM     55   O  IDS C   3      14.621  -6.820  43.8260  0.00  0.00     0.000 OA
ATOM     56   O  IDS C   3      15.227  -7.704  42.0220  0.00  0.00     0.000 OA
ENDBRANCH 45 54
BRANCH 41 57
ATOM     57  O4  SGN C   4      19.183  -5.019  42.3250  0.00  0.00     0.000 O
BRANCH 57 61
ATOM     58  C1  SGN C   4      19.317  -1.733  39.7330  0.00  0.00     0.000 C
ATOM     59  C2  SGN C   4      18.006  -2.534  39.7670  0.00  0.00     0.000 C
ATOM     60  C3  SGN C   4      17.932  -3.425  41.0140  0.00  0.00     0.000 C
ATOM     61  C4  SGN C   4      19.173  -4.298  41.0890  0.00  0.00     0.000 C
ATOM     62  C5  SGN C   4      20.436  -3.440  41.0210  0.00  0.00     0.000 C
ATOM     63  O5  SGN C   4      20.426  -2.615  39.8410  0.00  0.00     0.000 O
BRANCH 59 66
ATOM     64   N  SGN C   4      16.638  -2.085  39.4890  0.00  0.00     0.000 N
ATOM     66  HD  SGN C   4      17.432  -2.422  39.4190  0.00  0.00     0.000 HD
ATOM     66   O  SGN C   4      14.986  -0.592  38.5010  0.00  0.00     0.000 OA
ATOM     67   O  SGN C   4      17.044   0.331  39.4780  0.00  0.00     0.000 OA
ATOM     68   S  SGN C   4      16.394  -0.782  38.5850  0.00  0.00     0.000 S
ATOM     69   O  SGN C   4      17.151  -0.917  37.3930  0.00  0.00     0.000 OA
ENDBRANCH 59 66
BRANCH 62 70
ATOM     70   C  SGN C   4      21.681  -4.290  40.9580  0.00  0.00     0.000 C
ATOM     71   S  SGN C   4      24.059  -4.388  40.0060  0.00  0.00     0.000 S
ATOM     72   O  SGN C   4      24.542  -4.837  41.2970  0.00  0.00     0.000 OA
ATOM     73   O  SGN C   4      23.653  -5.474  39.1360  0.00  0.00     0.000 OA
ATOM     74   O  SGN C   4      24.925  -3.423  39.3690  0.00  0.00     0.000 OA
ATOM     75   O  SGN C   4      22.743  -3.561  40.3310  0.00  0.00     0.000 O
ENDBRANCH 62 70
ENDBRANCH 57 61
ENDBRANCH 41 57
ENDBRANCH 40 44
ENDBRANCH 20 40
ENDBRANCH 19 23
ENDBRANCH 1 19
TORSDOF 14
ENDMDL
MODEL 73
REMARK VINA RESULT:      -5.2     24.206     27.343
ROOT
ATOM      1  C1  IDS C   1      16.048 -13.280  43.1100  0.00  0.00     0.000 C
ATOM      2  C2  IDS C   1      15.626 -14.008  41.8460  0.00  0.00     0.000 C
ATOM      3  C3  IDS C   1      16.490 -15.243  41.6190  0.00  0.00     0.000 C
ATOM      4  C4  IDS C   1      16.544 -16.117  42.8720  0.00  0.00     0.000 C
ATOM      5  C5  IDS C   1      16.889 -15.259  44.1060  0.00  0.00     0.000 C
ATOM      6  O5  IDS C   1      15.981 -14.169  44.2240  0.00  0.00     0.000 O
ATOM      7   O  IDS C   1      17.805 -14.839  41.2330  0.00  0.00     0.000 O
ATOM      9  HD  IDS C   1      17.974 -15.606  41.5980  0.00  0.00     0.000 HD
ATOM      9   O  IDS C   1      15.263 -16.736  43.0650  0.00  0.00     0.000 O
ATOM     11  HD  IDS C   1      15.432 -17.503  43.4290  0.00  0.00     0.000 HD
ENDROOT
BRANCH 2 11
ATOM     11   O  IDS C   1      14.221 -14.458  41.9610  0.00  0.00     0.000 O
ATOM     12   S  IDS C   1      13.407 -14.924  40.6670  0.00  0.00     0.000 S
ATOM     13   O  IDS C   1      12.564 -15.973  41.1970  0.00  0.00     0.000 OA
ATOM     14   O  IDS C   1      14.332 -15.397  39.6650  0.00  0.00     0.000 OA
ATOM     15   O  IDS C   1      12.676 -13.752  40.2560  0.00  0.00     0.000 OA
ENDBRANCH 2 11
BRANCH 5 16
ATOM     16   C  IDS C   1      16.848 -16.038  45.4080  0.00  0.00     0.000 C
ATOM     17   O  IDS C   1      16.807 -15.426  46.4550  0.00  0.00     0.000 OA
ATOM     18   O  IDS C   1      16.871 -17.238  45.4080  0.00  0.00     0.000 OA
ENDBRANCH 5 16
BRANCH 1 19
ATOM     19  O4  SGN C   2      17.113 -12.474  43.0700  0.00  0.00     0.000 O
BRANCH 19 23
ATOM     20  C1  SGN C   2      19.028  -9.223  44.8550  0.00  0.00     0.000 C
ATOM     21  C2  SGN C   2      18.915 -10.499  45.6980  0.00  0.00     0.000 C
ATOM     22  C3  SGN C   2      18.606 -11.689  44.7940  0.00  0.00     0.000 C
ATOM     23  C4  SGN C   2      17.333 -11.414  44.0010  0.00  0.00     0.000 C
ATOM     24  C5  SGN C   2      17.466 -10.087  43.2480  0.00  0.00     0.000 C
ATOM     25  O5  SGN C   2      17.801  -9.034  44.1700  0.00  0.00     0.000 O
ATOM     26   O  SGN C   2      18.481 -12.880  45.5630  0.00  0.00     0.000 O
ATOM     28  HD  SGN C   2      18.490 -13.565  46.0920  0.00  0.00     0.000 HD
BRANCH 21 30
ATOM     28   N  SGN C   2      19.851  -9.727  46.5270  0.00  0.00     0.000 N
ATOM     30  HD  SGN C   2      20.677  -9.985  46.5530  0.00  0.00     0.000 HD
ATOM     30   S  SGN C   2      20.176 -10.160  48.0330  0.00  0.00     0.000 S
ATOM     31   O  SGN C   2      20.582 -11.522  47.9540  0.00  0.00     0.000 OA
ATOM     32   O  SGN C   2      21.042  -9.195  48.6010  0.00  0.00     0.000 OA
ATOM     33   O  SGN C   2      18.799 -10.031  48.7710  0.00  0.00     0.000 OA
ENDBRANCH 21 30
BRANCH 24 34
ATOM     34   C  SGN C   2      16.198  -9.656  42.5500  0.00  0.00     0.000 C
ATOM     35   O  SGN C   2      15.081  -9.882  43.4290  0.00  0.00     0.000 O
ATOM     36   S  SGN C   2      13.634  -9.951  42.7580  0.00  0.00     0.000 S
ATOM     37   O  SGN C   2      13.756 -10.956  41.7200  0.00  0.00     0.000 OA
ATOM     38   O  SGN C   2      12.731 -10.328  43.8190  0.00  0.00     0.000 OA
ATOM     39   O  SGN C   2      13.418  -8.616  42.2580  0.00  0.00     0.000 OA
ENDBRANCH 24 34
BRANCH 20 40
ATOM     40  O4  IDS C   3      20.032  -9.149  43.9840  0.00  0.00     0.000 O
BRANCH 40 44
ATOM     41  C1  IDS C   3      23.263  -8.853  42.6060  0.00  0.00     0.000 C
ATOM     42  C2  IDS C   3      23.039  -8.883  44.1150  0.00  0.00     0.000 C
ATOM     43  C3  IDS C   3      21.993  -7.846  44.5180  0.00  0.00     0.000 C
ATOM     44  C4  IDS C   3      20.740  -7.949  43.6620  0.00  0.00     0.000 C
ATOM     45  C5  IDS C   3      21.124  -7.956  42.1670  0.00  0.00     0.000 C
ATOM     46  O5  IDS C   3      22.030  -9.031  41.9130  0.00  0.00     0.000 O
ATOM     47   O  IDS C   3      22.553  -6.540  44.4040  0.00  0.00     0.000 O
ATOM     49  HD  IDS C   3      22.463  -7.305  44.8000  0.00  0.00     0.000 HD
BRANCH 42 49
ATOM     49   O  IDS C   3      22.563 -10.223  44.5330  0.00  0.00     0.000 O
ATOM     50   S  IDS C   3      23.531 -11.181  45.3760  0.00  0.00     0.000 S
ATOM     51   O  IDS C   3      23.573 -10.551  46.6770  0.00  0.00     0.000 OA
ATOM     52   O  IDS C   3      24.837 -11.232  44.7380  0.00  0.00     0.000 OA
ATOM     53   O  IDS C   3      22.887 -12.477  45.3980  0.00  0.00     0.000 OA
ENDBRANCH 42 49
BRANCH 45 54
ATOM     54   C  IDS C   3      19.927  -8.097  41.2390  0.00  0.00     0.000 C
ATOM     55   O  IDS C   3      19.036  -7.288  41.2880  0.00  0.00     0.000 OA
ATOM     56   O  IDS C   3      19.866  -9.032  40.4650  0.00  0.00     0.000 OA
ENDBRANCH 45 54
BRANCH 41 57
ATOM     57  O4  SGN C   4      24.059  -7.808  42.3490  0.00  0.00     0.000 O
BRANCH 57 61
ATOM     58  C1  SGN C   4      26.780  -6.635  39.3910  0.00  0.00     0.000 C
ATOM     59  C2  SGN C   4      25.288  -6.467  39.0630  0.00  0.00     0.000 C
ATOM     60  C3  SGN C   4      24.430  -6.533  40.3350  0.00  0.00     0.000 C
ATOM     61  C4  SGN C   4      24.741  -7.813  41.0910  0.00  0.00     0.000 C
ATOM     62  C5  SGN C   4      26.241  -7.928  41.3560  0.00  0.00     0.000 C
ATOM     63  O5  SGN C   4      26.983  -7.834  40.1250  0.00  0.00     0.000 O
BRANCH 59 66
ATOM     64   N  SGN C   4      25.191  -5.796  37.7630  0.00  0.00     0.000 N
ATOM     66  HD  SGN C   4      25.430  -6.031  38.5620  0.00  0.00     0.000 HD
ATOM     66   O  SGN C   4      24.596  -3.943  36.2980  0.00  0.00     0.000 OA
ATOM     67   O  SGN C   4      23.091  -4.590  38.1310  0.00  0.00     0.000 OA
ATOM     68   S  SGN C   4      24.566  -4.322  37.6700  0.00  0.00     0.000 S
ATOM     69   O  SGN C   4      25.208  -3.502  38.6330  0.00  0.00     0.000 OA
ENDBRANCH 59 66
BRANCH 62 70
ATOM     70   C  SGN C   4      26.593  -9.252  41.9870  0.00  0.00     0.000 C
ATOM     71   S  SGN C   4      27.639 -11.544  41.5110  0.00  0.00     0.000 S
ATOM     72   O  SGN C   4      28.397 -11.437  42.7420  0.00  0.00     0.000 OA
ATOM     73   O  SGN C   4      26.340 -12.161  41.6900  0.00  0.00     0.000 OA
ATOM     74   O  SGN C   4      28.398 -12.092  40.4110  0.00  0.00     0.000 OA
ATOM     75   O  SGN C   4      27.363 -10.043  41.0740  0.00  0.00     0.000 O
ENDBRANCH 62 70
ENDBRANCH 57 61
ENDBRANCH 41 57
ENDBRANCH 40 44
ENDBRANCH 20 40
ENDBRANCH 19 23
ENDBRANCH 1 19
TORSDOF 14
ENDMDL
MODEL 74
REMARK VINA RESULT:      -5.2     27.715     31.804
ROOT
ATOM      1  C1  IDS C   1      32.930 -60.504  24.8460  0.00  0.00     0.000 C
ATOM      2  C2  IDS C   1      32.904 -61.890  24.2260  0.00  0.00     0.000 C
ATOM      3  C3  IDS C   1      32.168 -62.873  25.1300  0.00  0.00     0.000 C
ATOM      4  C4  IDS C   1      30.799 -62.329  25.5370  0.00  0.00     0.000 C
ATOM      5  C5  IDS C   1      30.933 -60.885  26.0630  0.00  0.00     0.000 C
ATOM      6  O5  IDS C   1      31.597 -60.066  25.1060  0.00  0.00     0.000 O
ATOM      7   O  IDS C   1      32.963 -63.144  26.2850  0.00  0.00     0.000 O
ATOM      9  HD  IDS C   1      32.169 -63.288  26.6000  0.00  0.00     0.000 HD
ATOM      9   O  IDS C   1      29.932 -62.340  24.3920  0.00  0.00     0.000 O
ATOM     11  HD  IDS C   1      29.138 -62.484  24.7070  0.00  0.00     0.000 HD
ENDROOT
BRANCH 2 11
ATOM     11   O  IDS C   1      32.194 -61.856  22.9280  0.00  0.00     0.000 O
ATOM     12   S  IDS C   1      32.987 -62.096  21.5610  0.00  0.00     0.000 S
ATOM     13   O  IDS C   1      32.006 -62.789  20.7560  0.00  0.00     0.000 OA
ATOM     14   O  IDS C   1      34.163 -62.889  21.8230  0.00  0.00     0.000 OA
ATOM     15   O  IDS C   1      33.291 -60.771  21.0810  0.00  0.00     0.000 OA
ENDBRANCH 2 11
BRANCH 5 16
ATOM     16   C  IDS C   1      29.598 -60.236  26.3800  0.00  0.00     0.000 C
ATOM     17   O  IDS C   1      28.917 -60.704  27.2680  0.00  0.00     0.000 OA
ATOM     18   O  IDS C   1      29.212 -59.286  25.7570  0.00  0.00     0.000 OA
ENDBRANCH 5 16
BRANCH 1 19
ATOM     19  O4  SGN C   2      33.829 -60.236  25.7970  0.00  0.00     0.000 O
BRANCH 19 23
ATOM     20  C1  SGN C   2      36.207 -57.259  27.5030  0.00  0.00     0.000 C
ATOM     21  C2  SGN C   2      34.731 -57.277  27.9170  0.00  0.00     0.000 C
ATOM     22  C3  SGN C   2      34.116 -58.632  27.5760  0.00  0.00     0.000 C
ATOM     23  C4  SGN C   2      34.296 -58.918  26.0890  0.00  0.00     0.000 C
ATOM     24  C5  SGN C   2      35.775 -58.801  25.7130  0.00  0.00     0.000 C
ATOM     25  O5  SGN C   2      36.279 -57.513  26.1090  0.00  0.00     0.000 O
ATOM     26   O  SGN C   2      32.741 -58.662  27.9400  0.00  0.00     0.000 O
ATOM     28  HD  SGN C   2      31.934 -58.621  28.2510  0.00  0.00     0.000 HD
BRANCH 21 30
ATOM     28   N  SGN C   2      34.168 -55.968  28.2730  0.00  0.00     0.000 N
ATOM     30  HD  SGN C   2      34.695 -55.280  28.2500  0.00  0.00     0.000 HD
ATOM     30   S  SGN C   2      34.281 -55.394  29.7630  0.00  0.00     0.000 S
ATOM     31   O  SGN C   2      35.667 -55.448  30.0830  0.00  0.00     0.000 OA
ATOM     32   O  SGN C   2      33.588 -54.161  29.8220  0.00  0.00     0.000 OA
ATOM     33   O  SGN C   2      33.468 -56.418  30.6260  0.00  0.00     0.000 OA
ENDBRANCH 21 30
BRANCH 24 34
ATOM     34   C  SGN C   2      36.035 -58.921  24.2290  0.00  0.00     0.000 C
ATOM     35   O  SGN C   2      36.848 -60.084  23.9900  0.00  0.00     0.000 O
ATOM     36   S  SGN C   2      37.629 -60.149  22.5990  0.00  0.00     0.000 S
ATOM     37   O  SGN C   2      38.376 -58.908  22.5370  0.00  0.00     0.000 OA
ATOM     38   O  SGN C   2      38.468 -61.320  22.6790  0.00  0.00     0.000 OA
ATOM     39   O  SGN C   2      36.579 -60.251  21.6150  0.00  0.00     0.000 OA
ENDBRANCH 24 34
BRANCH 20 40
ATOM     40  O4  IDS C   3      37.035 -58.082  28.1410  0.00  0.00     0.000 O
BRANCH 40 44
ATOM     41  C1  IDS C   3      39.196 -59.865  30.2810  0.00  0.00     0.000 C
ATOM     42  C2  IDS C   3      38.310 -58.737  30.8010  0.00  0.00     0.000 C
ATOM     43  C3  IDS C   3      38.504 -57.478  29.9600  0.00  0.00     0.000 C
ATOM     44  C4  IDS C   3      38.391 -57.773  28.4720  0.00  0.00     0.000 C
ATOM     45  C5  IDS C   3      39.301 -58.963  28.1020  0.00  0.00     0.000 C
ATOM     46  O5  IDS C   3      38.949 -60.097  28.8970  0.00  0.00     0.000 O
ATOM     47   O  IDS C   3      39.779 -56.908  30.2470  0.00  0.00     0.000 O
ATOM     49  HD  IDS C   3      38.952 -57.078  30.4420  0.00  0.00     0.000 HD
BRANCH 42 49
ATOM     49   O  IDS C   3      36.885 -59.136  30.7360  0.00  0.00     0.000 O
ATOM     50   S  IDS C   3      36.037 -59.278  32.0870  0.00  0.00     0.000 S
ATOM     51   O  IDS C   3      35.859 -57.908  32.5150  0.00  0.00     0.000 OA
ATOM     52   O  IDS C   3      36.789 -60.069  33.0480  0.00  0.00     0.000 OA
ATOM     53   O  IDS C   3      34.794 -59.918  31.7120  0.00  0.00     0.000 OA
ENDBRANCH 42 49
BRANCH 45 54
ATOM     54   C  IDS C   3      39.219 -59.351  26.6340  0.00  0.00     0.000 C
ATOM     55   O  IDS C   3      38.975 -60.490  26.3310  0.00  0.00     0.000 OA
ATOM     56   O  IDS C   3      39.416 -58.515  25.7740  0.00  0.00     0.000 OA
ENDBRANCH 45 54
BRANCH 41 57
ATOM     57  O4  SGN C   4      40.433 -59.634  30.7370  0.00  0.00     0.000 O
BRANCH 57 61
ATOM     58  C1  SGN C   4      43.828 -61.849  31.7840  0.00  0.00     0.000 C
ATOM     59  C2  SGN C   4      43.241 -62.102  30.3860  0.00  0.00     0.000 C
ATOM     60  C3  SGN C   4      42.288 -60.973  29.9710  0.00  0.00     0.000 C
ATOM     61  C4  SGN C   4      41.230 -60.782  31.0440  0.00  0.00     0.000 C
ATOM     62  C5  SGN C   4      41.883 -60.564  32.4090  0.00  0.00     0.000 C
ATOM     63  O5  SGN C   4      42.779 -61.647  32.7200  0.00  0.00     0.000 O
BRANCH 59 66
ATOM     64   N  SGN C   4      44.412 -62.355  29.5400  0.00  0.00     0.000 N
ATOM     66  HD  SGN C   4      43.619 -62.153  29.8220  0.00  0.00     0.000 HD
ATOM     66   O  SGN C   4      45.713 -63.649  27.9380  0.00  0.00     0.000 OA
ATOM     67   O  SGN C   4      44.477 -64.796  29.7270  0.00  0.00     0.000 OA
ATOM     68   S  SGN C   4      44.470 -63.675  28.6310  0.00  0.00     0.000 S
ATOM     69   O  SGN C   4      43.263 -63.762  27.8900  0.00  0.00     0.000 OA
ENDBRANCH 59 66
BRANCH 62 70
ATOM     70   C  SGN C   4      40.856 -60.506  33.5110  0.00  0.00     0.000 C
ATOM     71   S  SGN C   4      39.990 -61.741  35.5840  0.00  0.00     0.000 S
ATOM     72   O  SGN C   4      39.956 -60.483  36.3030  0.00  0.00     0.000 OA
ATOM     73   O  SGN C   4      38.758 -62.034  34.8800  0.00  0.00     0.000 OA
ATOM     74   O  SGN C   4      40.486 -62.845  36.3740  0.00  0.00     0.000 OA
ATOM     75   O  SGN C   4      41.104 -61.542  34.4700  0.00  0.00     0.000 O
ENDBRANCH 62 70
ENDBRANCH 57 61
ENDBRANCH 41 57
ENDBRANCH 40 44
ENDBRANCH 20 40
ENDBRANCH 19 23
ENDBRANCH 1 19
TORSDOF 14
ENDMDL
MODEL 75
REMARK VINA RESULT:      -5.2      9.795     14.966
ROOT
ATOM      1  C1  IDS C   1      26.224 -30.547  11.1260  0.00  0.00     0.000 C
ATOM      2  C2  IDS C   1      27.410 -31.436  10.7950  0.00  0.00     0.000 C
ATOM      3  C3  IDS C   1      27.352 -32.733  11.5920  0.00  0.00     0.000 C
ATOM      4  C4  IDS C   1      25.988 -33.408  11.4510  0.00  0.00     0.000 C
ATOM      5  C5  IDS C   1      24.860 -32.392  11.7170  0.00  0.00     0.000 C
ATOM      6  O5  IDS C   1      25.008 -31.251  10.8780  0.00  0.00     0.000 O
ATOM      7   O  IDS C   1      27.635 -32.461  12.9660  0.00  0.00     0.000 O
ATOM      9  HD  IDS C   1      27.146 -33.172  13.0410  0.00  0.00     0.000 HD
ATOM      9   O  IDS C   1      25.859 -33.925  10.1170  0.00  0.00     0.000 O
ATOM     11  HD  IDS C   1      25.370 -34.635  10.1920  0.00  0.00     0.000 HD
ENDROOT
BRANCH 2 11
ATOM     11   O  IDS C   1      27.397 -31.791   9.3580  0.00  0.00     0.000 O
ATOM     12   S  IDS C   1      28.726 -31.670   8.4790  0.00  0.00     0.000 S
ATOM     13   O  IDS C   1      28.585 -32.776   7.5570  0.00  0.00     0.000 OA
ATOM     14   O  IDS C   1      29.880 -31.794   9.3360  0.00  0.00     0.000 OA
ATOM     15   O  IDS C   1      28.626 -30.379   7.8450  0.00  0.00     0.000 OA
ENDBRANCH 2 11
BRANCH 5 16
ATOM     16   C  IDS C   1      23.472 -32.961  11.4820  0.00  0.00     0.000 C
ATOM     17   O  IDS C   1      22.508 -32.251  11.6760  0.00  0.00     0.000 OA
ATOM     18   O  IDS C   1      23.326 -34.097  11.1250  0.00  0.00     0.000 OA
ENDBRANCH 5 16
BRANCH 1 19
ATOM     19  O4  SGN C   2      26.256 -29.812  12.2420  0.00  0.00     0.000 O
BRANCH 19 23
ATOM     20  C1  SGN C   2      24.752 -26.414  14.1440  0.00  0.00     0.000 C
ATOM     21  C2  SGN C   2      23.817 -27.627  14.0680  0.00  0.00     0.000 C
ATOM     22  C3  SGN C   2      24.626 -28.884  13.7580  0.00  0.00     0.000 C
ATOM     23  C4  SGN C   2      25.408 -28.684  12.4650  0.00  0.00     0.000 C
ATOM     24  C5  SGN C   2      26.258 -27.414  12.5630  0.00  0.00     0.000 C
ATOM     25  O5  SGN C   2      25.422 -26.292  12.9000  0.00  0.00     0.000 O
ATOM     26   O  SGN C   2      23.770 -30.017  13.6670  0.00  0.00     0.000 O
ATOM     28  HD  SGN C   2      23.193 -30.662  13.6970  0.00  0.00     0.000 HD
BRANCH 21 30
ATOM     28   N  SGN C   2      23.021 -26.716  14.9010  0.00  0.00     0.000 N
ATOM     30  HD  SGN C   2      23.039 -26.831  15.7590  0.00  0.00     0.000 HD
ATOM     30   S  SGN C   2      21.541 -27.102  15.3710  0.00  0.00     0.000 S
ATOM     31   O  SGN C   2      21.665 -28.375  15.9970  0.00  0.00     0.000 OA
ATOM     32   O  SGN C   2      20.998 -26.010  16.0900  0.00  0.00     0.000 OA
ATOM     33   O  SGN C   2      20.734 -27.215  14.0320  0.00  0.00     0.000 OA
ENDBRANCH 21 30
BRANCH 24 34
ATOM     34   C  SGN C   2      26.958 -27.052  11.2740  0.00  0.00     0.000 C
ATOM     35   O  SGN C   2      28.360 -27.347  11.4040  0.00  0.00     0.000 O
ATOM     36   S  SGN C   2      29.351 -26.627  10.3800  0.00  0.00     0.000 S
ATOM     37   O  SGN C   2      29.051 -25.214  10.5090  0.00  0.00     0.000 OA
ATOM     38   O  SGN C   2      30.681 -26.974  10.8180  0.00  0.00     0.000 OA
ATOM     39   O  SGN C   2      28.995 -27.186   9.0990  0.00  0.00     0.000 OA
ENDBRANCH 24 34
BRANCH 20 40
ATOM     40  O4  IDS C   3      25.648 -26.390  15.1280  0.00  0.00     0.000 O
BRANCH 40 44
ATOM     41  C1  IDS C   3      27.332 -26.036  18.2050  0.00  0.00     0.000 C
ATOM     42  C2  IDS C   3      25.821 -25.850  18.0960  0.00  0.00     0.000 C
ATOM     43  C3  IDS C   3      25.487 -24.857  16.9860  0.00  0.00     0.000 C
ATOM     44  C4  IDS C   3      26.205 -25.199  15.6900  0.00  0.00     0.000 C
ATOM     45  C5  IDS C   3      27.710 -25.405  15.9620  0.00  0.00     0.000 C
ATOM     46  O5  IDS C   3      27.880 -26.425  16.9480  0.00  0.00     0.000 O
ATOM     47   O  IDS C   3      25.841 -23.542  17.4060  0.00  0.00     0.000 O
ATOM     49  HD  IDS C   3      25.329 -24.240  17.4210  0.00  0.00     0.000 HD
BRANCH 42 49
ATOM     49   O  IDS C   3      25.170 -27.144  17.7860  0.00  0.00     0.000 O
ATOM     50   S  IDS C   3      24.130 -27.778  18.8270  0.00  0.00     0.000 S
ATOM     51   O  IDS C   3      22.972 -26.920  18.7060  0.00  0.00     0.000 OA
ATOM     52   O  IDS C   3      24.705 -27.755  20.1610  0.00  0.00     0.000 OA
ATOM     53   O  IDS C   3      23.880 -29.128  18.3670  0.00  0.00     0.000 OA
ENDBRANCH 42 49
BRANCH 45 54
ATOM     54   C  IDS C   3      28.498 -25.790  14.7200  0.00  0.00     0.000 C
ATOM     55   O  IDS C   3      28.565 -25.024  13.7940  0.00  0.00     0.000 OA
ATOM     56   O  IDS C   3      29.043 -26.875  14.6600  0.00  0.00     0.000 OA
ENDBRANCH 45 54
BRANCH 41 57
ATOM     57  O4  SGN C   4      27.809 -24.979  18.8740  0.00  0.00     0.000 O
BRANCH 57 61
ATOM     58  C1  SGN C   4      31.446 -23.743  20.5390  0.00  0.00     0.000 C
ATOM     59  C2  SGN C   4      31.305 -23.614  19.0140  0.00  0.00     0.000 C
ATOM     60  C3  SGN C   4      29.834 -23.699  18.5840  0.00  0.00     0.000 C
ATOM     61  C4  SGN C   4      29.215 -24.970  19.1420  0.00  0.00     0.000 C
ATOM     62  C5  SGN C   4      29.418 -25.045  20.6550  0.00  0.00     0.000 C
ATOM     63  O5  SGN C   4      30.815 -24.934  20.9850  0.00  0.00     0.000 O
BRANCH 59 66
ATOM     64   N  SGN C   4      32.516 -22.902  18.5930  0.00  0.00     0.000 N
ATOM     66  HD  SGN C   4      31.784 -23.131  18.9950  0.00  0.00     0.000 HD
ATOM     66   O  SGN C   4      33.716 -21.115  17.4520  0.00  0.00     0.000 OA
ATOM     67   O  SGN C   4      31.745 -22.138  16.3980  0.00  0.00     0.000 OA
ATOM     68   S  SGN C   4      32.391 -21.570  17.7080  0.00  0.00     0.000 S
ATOM     69   O  SGN C   4      31.466 -20.698  18.3390  0.00  0.00     0.000 OA
ENDBRANCH 59 66
BRANCH 62 70
ATOM     70   C  SGN C   4      28.931 -26.358  21.2140  0.00  0.00     0.000 C
ATOM     71   S  SGN C   4      29.620 -28.787  21.6580  0.00  0.00     0.000 S
ATOM     72   O  SGN C   4      29.042 -28.694  22.9840  0.00  0.00     0.000 OA
ATOM     73   O  SGN C   4      28.676 -29.226  20.6500  0.00  0.00     0.000 OA
ATOM     74   O  SGN C   4      30.879 -29.495  21.6250  0.00  0.00     0.000 OA
ATOM     75   O  SGN C   4      30.012 -27.295  21.2810  0.00  0.00     0.000 O
ENDBRANCH 62 70
ENDBRANCH 57 61
ENDBRANCH 41 57
ENDBRANCH 40 44
ENDBRANCH 20 40
ENDBRANCH 19 23
ENDBRANCH 1 19
TORSDOF 14
ENDMDL
MODEL 76
REMARK VINA RESULT:      -5.2     20.994     24.434
ROOT
ATOM      1  C1  IDS C   1      15.586 -16.344  45.3020  0.00  0.00     0.000 C
ATOM      2  C2  IDS C   1      15.388 -15.596  43.9950  0.00  0.00     0.000 C
ATOM      3  C3  IDS C   1      15.113 -16.567  42.8530  0.00  0.00     0.000 C
ATOM      4  C4  IDS C   1      13.987 -17.536  43.2110  0.00  0.00     0.000 C
ATOM      5  C5  IDS C   1      14.245 -18.165  44.5950  0.00  0.00     0.000 C
ATOM      6  O5  IDS C   1      14.441 -17.151  45.5750  0.00  0.00     0.000 O
ATOM      7   O  IDS C   1      16.309 -17.283  42.5380  0.00  0.00     0.000 O
ATOM      9  HD  IDS C   1      15.709 -17.853  42.2830  0.00  0.00     0.000 HD
ATOM      9   O  IDS C   1      12.744 -16.818  43.2380  0.00  0.00     0.000 O
ATOM     11  HD  IDS C   1      12.144 -17.388  42.9830  0.00  0.00     0.000 HD
ENDROOT
BRANCH 2 11
ATOM     11   O  IDS C   1      14.227 -14.685  44.1000  0.00  0.00     0.000 O
ATOM     12   S  IDS C   1      14.268 -13.235  43.4290  0.00  0.00     0.000 S
ATOM     13   O  IDS C   1      12.896 -13.051  43.0120  0.00  0.00     0.000 OA
ATOM     14   O  IDS C   1      15.196 -13.245  42.3240  0.00  0.00     0.000 OA
ATOM     15   O  IDS C   1      14.667 -12.352  44.4970  0.00  0.00     0.000 OA
ENDBRANCH 2 11
BRANCH 5 16
ATOM     16   C  IDS C   1      13.109 -19.054  45.0710  0.00  0.00     0.000 C
ATOM     17   O  IDS C   1      12.108 -18.535  45.5160  0.00  0.00     0.000 OA
ATOM     18   O  IDS C   1      13.203 -20.249  45.0250  0.00  0.00     0.000 OA
ENDBRANCH 5 16
BRANCH 1 19
ATOM     19  O4  SGN C   2      16.771 -16.908  45.5540  0.00  0.00     0.000 O
BRANCH 19 23
ATOM     20  C1  SGN C   2      19.539 -17.859  48.5300  0.00  0.00     0.000 C
ATOM     21  C2  SGN C   2      18.311 -18.770  48.4210  0.00  0.00     0.000 C
ATOM     22  C3  SGN C   2      17.644 -18.576  47.0610  0.00  0.00     0.000 C
ATOM     23  C4  SGN C   2      17.283 -17.107  46.8720  0.00  0.00     0.000 C
ATOM     24  C5  SGN C   2      18.526 -16.236  47.0770  0.00  0.00     0.000 C
ATOM     25  O5  SGN C   2      19.112 -16.517  48.3620  0.00  0.00     0.000 O
ATOM     26   O  SGN C   2      16.492 -19.404  46.9490  0.00  0.00     0.000 O
ATOM     28  HD  SGN C   2      15.851 -19.985  46.9350  0.00  0.00     0.000 HD
BRANCH 21 30
ATOM     28   N  SGN C   2      18.922 -19.332  49.6320  0.00  0.00     0.000 N
ATOM     30  HD  SGN C   2      19.610 -19.850  49.5380  0.00  0.00     0.000 HD
ATOM     30   S  SGN C   2      18.515 -20.783  50.1700  0.00  0.00     0.000 S
ATOM     31   O  SGN C   2      18.700 -21.660  49.0630  0.00  0.00     0.000 OA
ATOM     32   O  SGN C   2      19.204 -21.022  51.3840  0.00  0.00     0.000 OA
ATOM     33   O  SGN C   2      16.995 -20.645  50.5240  0.00  0.00     0.000 OA
ENDBRANCH 21 30
BRANCH 24 34
ATOM     34   C  SGN C   2      18.237 -14.754  47.0560  0.00  0.00     0.000 C
ATOM     35   O  SGN C   2      18.951 -14.155  45.9600  0.00  0.00     0.000 O
ATOM     36   S  SGN C   2      19.180 -12.576  46.0200  0.00  0.00     0.000 S
ATOM     37   O  SGN C   2      19.808 -12.343  47.3050  0.00  0.00     0.000 OA
ATOM     38   O  SGN C   2      20.033 -12.263  44.8990  0.00  0.00     0.000 OA
ATOM     39   O  SGN C   2      17.851 -12.027  45.9100  0.00  0.00     0.000 OA
ENDBRANCH 24 34
BRANCH 20 40
ATOM     40  O4  IDS C   3      20.559 -18.099  47.7090  0.00  0.00     0.000 O
BRANCH 40 44
ATOM     41  C1  IDS C   3      23.354 -19.267  45.9060  0.00  0.00     0.000 C
ATOM     42  C2  IDS C   3      22.636 -20.148  46.9240  0.00  0.00     0.000 C
ATOM     43  C3  IDS C   3      22.504 -19.419  48.2580  0.00  0.00     0.000 C
ATOM     44  C4  IDS C   3      21.937 -18.019  48.0810  0.00  0.00     0.000 C
ATOM     45  C5  IDS C   3      22.728 -17.266  46.9910  0.00  0.00     0.000 C
ATOM     46  O5  IDS C   3      22.690 -18.013  45.7730  0.00  0.00     0.000 O
ATOM     47   O  IDS C   3      23.781 -19.349  48.8880  0.00  0.00     0.000 O
ATOM     49  HD  IDS C   3      23.067 -19.775  48.6460  0.00  0.00     0.000 HD
BRANCH 42 49
ATOM     49   O  IDS C   3      21.281 -20.491  46.4350  0.00  0.00     0.000 O
ATOM     50   S  IDS C   3      20.999 -21.948  45.8310  0.00  0.00     0.000 S
ATOM     51   O  IDS C   3      21.032 -22.804  46.9960  0.00  0.00     0.000 OA
ATOM     52   O  IDS C   3      22.035 -22.279  44.8660  0.00  0.00     0.000 OA
ATOM     53   O  IDS C   3      19.689 -21.879  45.2190  0.00  0.00     0.000 OA
ENDBRANCH 42 49
BRANCH 45 54
ATOM     54   C  IDS C   3      22.199 -15.866  46.7210  0.00  0.00     0.000 C
ATOM     55   O  IDS C   3      21.904 -15.545  45.5990  0.00  0.00     0.000 OA
ATOM     56   O  IDS C   3      22.091 -15.072  47.6350  0.00  0.00     0.000 OA
ENDBRANCH 45 54
BRANCH 41 57
ATOM     57  O4  SGN C   4      24.662 -19.334  46.1830  0.00  0.00     0.000 O
BRANCH 57 61
ATOM     58  C1  SGN C   4      28.267 -18.551  44.2030  0.00  0.00     0.000 C
ATOM     59  C2  SGN C   4      27.144 -17.516  44.0300  0.00  0.00     0.000 C
ATOM     60  C3  SGN C   4      26.059 -17.691  45.1000  0.00  0.00     0.000 C
ATOM     61  C4  SGN C   4      25.562 -19.127  45.0890  0.00  0.00     0.000 C
ATOM     62  C5  SGN C   4      26.731 -20.100  45.2350  0.00  0.00     0.000 C
ATOM     63  O5  SGN C   4      27.719 -19.862  44.2150  0.00  0.00     0.000 O
BRANCH 59 66
ATOM     64   N  SGN C   4      27.713 -16.400  43.2670  0.00  0.00     0.000 N
ATOM     66  HD  SGN C   4      27.591 -17.041  43.8350  0.00  0.00     0.000 HD
ATOM     66   O  SGN C   4      28.377 -14.076  42.9590  0.00  0.00     0.000 OA
ATOM     67   O  SGN C   4      26.276 -14.608  44.1190  0.00  0.00     0.000 OA
ATOM     68   S  SGN C   4      27.796 -14.941  43.9290  0.00  0.00     0.000 S
ATOM     69   O  SGN C   4      28.404 -15.064  45.2050  0.00  0.00     0.000 OA
ENDBRANCH 59 66
BRANCH 62 70
ATOM     70   C  SGN C   4      26.281 -21.532  45.0930  0.00  0.00     0.000 C
ATOM     71   S  SGN C   4      26.180 -23.787  46.3070  0.00  0.00     0.000 S
ATOM     72   O  SGN C   4      24.804 -23.941  45.8780  0.00  0.00     0.000 OA
ATOM     73   O  SGN C   4      27.140 -24.325  45.3640  0.00  0.00     0.000 OA
ATOM     74   O  SGN C   4      26.409 -24.203  47.6720  0.00  0.00     0.000 OA
ATOM     75   O  SGN C   4      26.420 -22.218  46.3430  0.00  0.00     0.000 O
ENDBRANCH 62 70
ENDBRANCH 57 61
ENDBRANCH 41 57
ENDBRANCH 40 44
ENDBRANCH 20 40
ENDBRANCH 19 23
ENDBRANCH 1 19
TORSDOF 14
ENDMDL
MODEL 77
REMARK VINA RESULT:      -5.1     26.944     30.893
ROOT
ATOM      1  C1  IDS C   1      32.307 -61.842  24.2910  0.00  0.00     0.000 C
ATOM      2  C2  IDS C   1      32.617 -63.321  24.1390  0.00  0.00     0.000 C
ATOM      3  C3  IDS C   1      32.025 -64.119  25.2950  0.00  0.00     0.000 C
ATOM      4  C4  IDS C   1      30.545 -63.793  25.4900  0.00  0.00     0.000 C
ATOM      5  C5  IDS C   1      30.336 -62.266  25.5360  0.00  0.00     0.000 C
ATOM      6  O5  IDS C   1      30.896 -61.651  24.3810  0.00  0.00     0.000 O
ATOM      7   O  IDS C   1      32.760 -63.843  26.4890  0.00  0.00     0.000 O
ATOM      9  HD  IDS C   1      31.989 -64.057  26.8210  0.00  0.00     0.000 HD
ATOM      9   O  IDS C   1      29.797 -64.342  24.3940  0.00  0.00     0.000 O
ATOM     11  HD  IDS C   1      29.027 -64.556  24.7260  0.00  0.00     0.000 HD
ENDROOT
BRANCH 2 11
ATOM     11   O  IDS C   1      32.026 -63.840  22.8850  0.00  0.00     0.000 O
ATOM     12   S  IDS C   1      32.960 -64.412  21.7210  0.00  0.00     0.000 S
ATOM     13   O  IDS C   1      32.151 -65.478  21.1750  0.00  0.00     0.000 OA
ATOM     14   O  IDS C   1      34.201 -64.881  22.2900  0.00  0.00     0.000 OA
ATOM     15   O  IDS C   1      33.134 -63.302  20.8180  0.00  0.00     0.000 OA
ENDBRANCH 2 11
BRANCH 5 16
ATOM     16   C  IDS C   1      28.875 -61.862  25.6130  0.00  0.00     0.000 C
ATOM     17   O  IDS C   1      28.236 -62.164  26.5990  0.00  0.00     0.000 OA
ATOM     18   O  IDS C   1      28.352 -61.269  24.7100  0.00  0.00     0.000 OA
ENDBRANCH 5 16
BRANCH 1 19
ATOM     19  O4  SGN C   2      33.050 -61.106  25.1230  0.00  0.00     0.000 O
BRANCH 19 23
ATOM     20  C1  SGN C   2      34.361 -57.233  25.9620  0.00  0.00     0.000 C
ATOM     21  C2  SGN C   2      33.017 -57.648  26.5720  0.00  0.00     0.000 C
ATOM     22  C3  SGN C   2      32.889 -59.169  26.5510  0.00  0.00     0.000 C
ATOM     23  C4  SGN C   2      33.049 -59.677  25.1230  0.00  0.00     0.000 C
ATOM     24  C5  SGN C   2      34.364 -59.163  24.5320  0.00  0.00     0.000 C
ATOM     25  O5  SGN C   2      34.417 -57.728  24.6340  0.00  0.00     0.000 O
ATOM     26   O  SGN C   2      31.640 -59.571  27.1000  0.00  0.00     0.000 O
ATOM     28  HD  SGN C   2      30.893 -59.734  27.5080  0.00  0.00     0.000 HD
BRANCH 21 30
ATOM     28   N  SGN C   2      33.275 -56.540  27.5010  0.00  0.00     0.000 N
ATOM     30  HD  SGN C   2      33.243 -56.707  28.3500  0.00  0.00     0.000 HD
ATOM     30   S  SGN C   2      32.075 -55.680  28.1200  0.00  0.00     0.000 S
ATOM     31   O  SGN C   2      31.194 -56.632  28.7070  0.00  0.00     0.000 OA
ATOM     32   O  SGN C   2      32.627 -54.644  28.9120  0.00  0.00     0.000 OA
ATOM     33   O  SGN C   2      31.412 -55.001  26.8730  0.00  0.00     0.000 OA
ENDBRANCH 21 30
BRANCH 24 34
ATOM     34   C  SGN C   2      34.542 -59.493  23.0690  0.00  0.00     0.000 C
ATOM     35   O  SGN C   2      35.765 -60.232  22.9020  0.00  0.00     0.000 O
ATOM     36   S  SGN C   2      36.391 -60.276  21.4340  0.00  0.00     0.000 S
ATOM     37   O  SGN C   2      36.508 -58.885  21.0410  0.00  0.00     0.000 OA
ATOM     38   O  SGN C   2      37.664 -60.941  21.5740  0.00  0.00     0.000 OA
ATOM     39   O  SGN C   2      35.426 -61.022  20.6650  0.00  0.00     0.000 OA
ENDBRANCH 24 34
BRANCH 20 40
ATOM     40  O4  IDS C   3      35.468 -57.590  26.6090  0.00  0.00     0.000 O
BRANCH 40 44
ATOM     41  C1  IDS C   3      38.210 -58.082  28.7690  0.00  0.00     0.000 C
ATOM     42  C2  IDS C   3      36.989 -57.274  29.2010  0.00  0.00     0.000 C
ATOM     43  C3  IDS C   3      36.674 -56.196  28.1670  0.00  0.00     0.000 C
ATOM     44  C4  IDS C   3      36.625 -56.764  26.7580  0.00  0.00     0.000 C
ATOM     45  C5  IDS C   3      37.896 -57.593  26.4810  0.00  0.00     0.000 C
ATOM     46  O5  IDS C   3      38.017 -58.622  27.4650  0.00  0.00     0.000 O
ATOM     47   O  IDS C   3      37.657 -55.166  28.2420  0.00  0.00     0.000 O
ATOM     49  HD  IDS C   3      36.960 -55.585  28.5400  0.00  0.00     0.000 HD
BRANCH 42 49
ATOM     49   O  IDS C   3      35.811 -58.163  29.3330  0.00  0.00     0.000 O
ATOM     50   S  IDS C   3      34.950 -58.144  30.6830  0.00  0.00     0.000 S
ATOM     51   O  IDS C   3      34.258 -56.875  30.6190  0.00  0.00     0.000 OA
ATOM     52   O  IDS C   3      35.843 -58.235  31.8270  0.00  0.00     0.000 OA
ATOM     53   O  IDS C   3      34.055 -59.278  30.6010  0.00  0.00     0.000 OA
ENDBRANCH 42 49
BRANCH 45 54
ATOM     54   C  IDS C   3      37.910 -58.232  25.1010  0.00  0.00     0.000 C
ATOM     55   O  IDS C   3      38.136 -59.409  24.9910  0.00  0.00     0.000 OA
ATOM     56   O  IDS C   3      37.710 -57.550  24.1150  0.00  0.00     0.000 OA
ENDBRANCH 45 54
BRANCH 41 57
ATOM     57  O4  SGN C   4      39.290 -57.347  29.0630  0.00  0.00     0.000 O
BRANCH 57 61
ATOM     58  C1  SGN C   4      43.266 -57.992  30.2030  0.00  0.00     0.000 C
ATOM     59  C2  SGN C   4      42.768 -58.761  28.9690  0.00  0.00     0.000 C
ATOM     60  C3  SGN C   4      41.473 -58.146  28.4190  0.00  0.00     0.000 C
ATOM     61  C4  SGN C   4      40.441 -58.056  29.5310  0.00  0.00     0.000 C
ATOM     62  C5  SGN C   4      41.014 -57.307  30.7330  0.00  0.00     0.000 C
ATOM     63  O5  SGN C   4      42.237 -57.923  31.1790  0.00  0.00     0.000 O
BRANCH 59 66
ATOM     64   N  SGN C   4      43.915 -58.811  28.0570  0.00  0.00     0.000 N
ATOM     66  HD  SGN C   4      43.115 -58.835  28.3890  0.00  0.00     0.000 HD
ATOM     66   O  SGN C   4      45.558 -59.960  26.6740  0.00  0.00     0.000 OA
ATOM     67   O  SGN C   4      44.924 -60.894  28.8580  0.00  0.00     0.000 OA
ATOM     68   S  SGN C   4      44.447 -60.227  27.5220  0.00  0.00     0.000 S
ATOM     69   O  SGN C   4      43.342 -60.957  27.0120  0.00  0.00     0.000 OA
ENDBRANCH 59 66
BRANCH 62 70
ATOM     70   C  SGN C   4      40.058 -57.320  31.9000  0.00  0.00     0.000 C
ATOM     71   S  SGN C   4      39.742 -58.190  34.2910  0.00  0.00     0.000 S
ATOM     72   O  SGN C   4      39.269 -56.879  34.6900  0.00  0.00     0.000 OA
ATOM     73   O  SGN C   4      38.686 -59.063  33.8210  0.00  0.00     0.000 OA
ATOM     74   O  SGN C   4      40.620 -58.807  35.2580  0.00  0.00     0.000 OA
ATOM     75   O  SGN C   4      40.684 -57.917  33.0420  0.00  0.00     0.000 O
ENDBRANCH 62 70
ENDBRANCH 57 61
ENDBRANCH 41 57
ENDBRANCH 40 44
ENDBRANCH 20 40
ENDBRANCH 19 23
ENDBRANCH 1 19
TORSDOF 14
ENDMDL
MODEL 78
REMARK VINA RESULT:      -5.1     16.633     23.857
ROOT
ATOM      1  C1  IDS C   1      35.391 -36.065  41.2040  0.00  0.00     0.000 C
ATOM      2  C2  IDS C   1      35.089 -36.683  39.8510  0.00  0.00     0.000 C
ATOM      3  C3  IDS C   1      33.682 -37.267  39.8250  0.00  0.00     0.000 C
ATOM      4  C4  IDS C   1      32.651 -36.245  40.3050  0.00  0.00     0.000 C
ATOM      5  C5  IDS C   1      33.105 -35.615  41.6370  0.00  0.00     0.000 C
ATOM      6  O5  IDS C   1      34.414 -35.070  41.5100  0.00  0.00     0.000 O
ATOM      7   O  IDS C   1      33.638 -38.441  40.6380  0.00  0.00     0.000 O
ATOM      9  HD  IDS C   1      32.813 -38.183  40.6850  0.00  0.00     0.000 HD
ATOM      9   O  IDS C   1      32.517 -35.216  39.3120  0.00  0.00     0.000 O
ATOM     11  HD  IDS C   1      31.691 -34.959  39.3590  0.00  0.00     0.000 HD
ENDROOT
BRANCH 2 11
ATOM     11   O  IDS C   1      35.168 -35.654  38.7900  0.00  0.00     0.000 O
ATOM     12   S  IDS C   1      36.520 -35.439  37.9650  0.00  0.00     0.000 S
ATOM     13   O  IDS C   1      36.025 -35.084  36.6530  0.00  0.00     0.000 OA
ATOM     14   O  IDS C   1      37.282 -36.664  37.9670  0.00  0.00     0.000 OA
ATOM     15   O  IDS C   1      37.188 -34.354  38.6400  0.00  0.00     0.000 OA
ENDBRANCH 2 11
BRANCH 5 16
ATOM     16   C  IDS C   1      32.188 -34.505  42.1190  0.00  0.00     0.000 C
ATOM     17   O  IDS C   1      31.002 -34.580  41.8740  0.00  0.00     0.000 OA
ATOM     18   O  IDS C   1      32.625 -33.561  42.7170  0.00  0.00     0.000 OA
ENDBRANCH 5 16
BRANCH 1 19
ATOM     19  O4  SGN C   2      35.750 -36.861  42.2160  0.00  0.00     0.000 O
BRANCH 19 23
ATOM     20  C1  SGN C   2      38.285 -37.087  45.5240  0.00  0.00     0.000 C
ATOM     21  C2  SGN C   2      36.831 -36.687  45.8020  0.00  0.00     0.000 C
ATOM     22  C3  SGN C   2      35.956 -37.066  44.6110  0.00  0.00     0.000 C
ATOM     23  C4  SGN C   2      36.497 -36.408  43.3470  0.00  0.00     0.000 C
ATOM     24  C5  SGN C   2      37.973 -36.769  43.1640  0.00  0.00     0.000 C
ATOM     25  O5  SGN C   2      38.712 -36.418  44.3480  0.00  0.00     0.000 O
ATOM     26   O  SGN C   2      34.604 -36.688  44.8450  0.00  0.00     0.000 O
ATOM     28  HD  SGN C   2      33.799 -36.489  45.0940  0.00  0.00     0.000 HD
BRANCH 21 30
ATOM     28   N  SGN C   2      36.714 -37.306  47.1290  0.00  0.00     0.000 N
ATOM     30  HD  SGN C   2      35.920 -37.497  47.4190  0.00  0.00     0.000 HD
ATOM     30   S  SGN C   2      36.449 -36.421  48.4360  0.00  0.00     0.000 S
ATOM     31   O  SGN C   2      35.291 -35.648  48.1390  0.00  0.00     0.000 OA
ATOM     32   O  SGN C   2      36.459 -37.275  49.5660  0.00  0.00     0.000 OA
ATOM     33   O  SGN C   2      37.718 -35.508  48.5400  0.00  0.00     0.000 OA
ENDBRANCH 21 30
BRANCH 24 34
ATOM     34   C  SGN C   2      38.638 -36.045  42.0170  0.00  0.00     0.000 C
ATOM     35   O  SGN C   2      39.946 -35.613  42.4320  0.00  0.00     0.000 O
ATOM     36   S  SGN C   2      40.628 -34.447  41.5820  0.00  0.00     0.000 S
ATOM     37   O  SGN C   2      39.651 -33.376  41.5730  0.00  0.00     0.000 OA
ATOM     38   O  SGN C   2      41.841 -34.110  42.2870  0.00  0.00     0.000 OA
ATOM     39   O  SGN C   2      40.854 -35.044  40.2890  0.00  0.00     0.000 OA
ENDBRANCH 24 34
BRANCH 20 40
ATOM     40  O4  IDS C   3      38.556 -38.385  45.4120  0.00  0.00     0.000 O
BRANCH 40 44
ATOM     41  C1  IDS C   3      39.262 -41.833  45.6150  0.00  0.00     0.000 C
ATOM     42  C2  IDS C   3      38.634 -41.077  46.7820  0.00  0.00     0.000 C
ATOM     43  C3  IDS C   3      39.458 -39.837  47.1170  0.00  0.00     0.000 C
ATOM     44  C4  IDS C   3      39.756 -39.008  45.8770  0.00  0.00     0.000 C
ATOM     45  C5  IDS C   3      40.338 -39.910  44.7690  0.00  0.00     0.000 C
ATOM     46  O5  IDS C   3      39.424 -40.972  44.4900  0.00  0.00     0.000 O
ATOM     47   O  IDS C   3      40.677 -40.233  47.7400  0.00  0.00     0.000 O
ATOM     49  HD  IDS C   3      39.822 -40.100  47.7440  0.00  0.00     0.000 HD
BRANCH 42 49
ATOM     49   O  IDS C   3      37.258 -40.652  46.4330  0.00  0.00     0.000 O
ATOM     50   S  IDS C   3      36.035 -41.063  47.3820  0.00  0.00     0.000 S
ATOM     51   O  IDS C   3      36.228 -40.234  48.5510  0.00  0.00     0.000 OA
ATOM     52   O  IDS C   3      36.115 -42.482  47.6850  0.00  0.00     0.000 OA
ATOM     53   O  IDS C   3      34.833 -40.731  46.6480  0.00  0.00     0.000 OA
ENDBRANCH 42 49
BRANCH 45 54
ATOM     54   C  IDS C   3      40.628 -39.164  43.4760  0.00  0.00     0.000 C
ATOM     55   O  IDS C   3      41.433 -38.268  43.4720  0.00  0.00     0.000 OA
ATOM     56   O  IDS C   3      40.036 -39.462  42.4570  0.00  0.00     0.000 OA
ENDBRANCH 45 54
BRANCH 41 57
ATOM     57  O4  SGN C   4      40.291 -42.532  46.1090  0.00  0.00     0.000 O
BRANCH 57 61
ATOM     58  C1  SGN C   4      43.179 -45.182  44.6380  0.00  0.00     0.000 C
ATOM     59  C2  SGN C   4      42.853 -43.961  43.7640  0.00  0.00     0.000 C
ATOM     60  C3  SGN C   4      42.117 -42.882  44.5710  0.00  0.00     0.000 C
ATOM     61  C4  SGN C   4      40.894 -43.492  45.2360  0.00  0.00     0.000 C
ATOM     62  C5  SGN C   4      41.288 -44.715  46.0620  0.00  0.00     0.000 C
ATOM     63  O5  SGN C   4      41.994 -45.671  45.2490  0.00  0.00     0.000 O
BRANCH 59 66
ATOM     64   N  SGN C   4      44.078 -43.450  43.1400  0.00  0.00     0.000 N
ATOM     66  HD  SGN C   4      43.256 -43.562  43.3880  0.00  0.00     0.000 HD
ATOM     66   O  SGN C   4      45.587 -43.086  41.2630  0.00  0.00     0.000 OA
ATOM     67   O  SGN C   4      44.425 -45.240  41.5040  0.00  0.00     0.000 OA
ATOM     68   S  SGN C   4      44.329 -43.676  41.5720  0.00  0.00     0.000 S
ATOM     69   O  SGN C   4      43.171 -43.254  40.8690  0.00  0.00     0.000 OA
ENDBRANCH 59 66
BRANCH 62 70
ATOM     70   C  SGN C   4      40.077 -45.417  46.6240  0.00  0.00     0.000 C
ATOM     71   S  SGN C   4      37.801 -46.416  45.9930  0.00  0.00     0.000 S
ATOM     72   O  SGN C   4      38.107 -47.583  46.7980  0.00  0.00     0.000 OA
ATOM     73   O  SGN C   4      37.145 -45.361  46.7390  0.00  0.00     0.000 OA
ATOM     74   O  SGN C   4      37.157 -46.731  44.7390  0.00  0.00     0.000 OA
ATOM     75   O  SGN C   4      39.217 -45.842  45.5590  0.00  0.00     0.000 O
ENDBRANCH 62 70
ENDBRANCH 57 61
ENDBRANCH 41 57
ENDBRANCH 40 44
ENDBRANCH 20 40
ENDBRANCH 19 23
ENDBRANCH 1 19
TORSDOF 14
ENDMDL
MODEL 79
REMARK VINA RESULT:      -5.1     10.433     15.800
ROOT
ATOM      1  C1  IDS C   1      26.397 -31.251  10.4630  0.00  0.00     0.000 C
ATOM      2  C2  IDS C   1      27.627 -32.135  10.5750  0.00  0.00     0.000 C
ATOM      3  C3  IDS C   1      27.375 -33.293  11.5330  0.00  0.00     0.000 C
ATOM      4  C4  IDS C   1      26.086 -34.033  11.1790  0.00  0.00     0.000 C
ATOM      5  C5  IDS C   1      24.928 -33.031  10.9990  0.00  0.00     0.000 C
ATOM      6  O5  IDS C   1      25.277 -32.031  10.0470  0.00  0.00     0.000 O
ATOM      7   O  IDS C   1      27.316 -32.798  12.8720  0.00  0.00     0.000 O
ATOM      9  HD  IDS C   1      26.822 -33.506  12.9420  0.00  0.00     0.000 HD
ATOM      9   O  IDS C   1      26.284 -34.756   9.9550  0.00  0.00     0.000 O
ATOM     11  HD  IDS C   1      25.791 -35.465  10.0240  0.00  0.00     0.000 HD
ENDROOT
BRANCH 2 11
ATOM     11   O  IDS C   1      27.963 -32.711   9.2530  0.00  0.00     0.000 O
ATOM     12   S  IDS C   1      29.380 -32.418   8.5760  0.00  0.00     0.000 S
ATOM     13   O  IDS C   1      29.652 -33.660   7.8860  0.00  0.00     0.000 OA
ATOM     14   O  IDS C   1      30.349 -32.120   9.6020  0.00  0.00     0.000 OA
ATOM     15   O  IDS C   1      29.135 -31.310   7.6870  0.00  0.00     0.000 OA
ENDBRANCH 2 11
BRANCH 5 16
ATOM     16   C  IDS C   1      23.638 -33.682  10.5320  0.00  0.00     0.000 C
ATOM     17   O  IDS C   1      22.898 -33.057   9.8020  0.00  0.00     0.000 OA
ATOM     18   O  IDS C   1      23.344 -34.789  10.8890  0.00  0.00     0.000 OA
ENDBRANCH 5 16
BRANCH 1 19
ATOM     19  O4  SGN C   2      26.158 -30.349  11.4200  0.00  0.00     0.000 O
BRANCH 19 23
ATOM     20  C1  SGN C   2      24.780 -26.492  12.2230  0.00  0.00     0.000 C
ATOM     21  C2  SGN C   2      23.717 -27.537  11.8650  0.00  0.00     0.000 C
ATOM     22  C3  SGN C   2      24.298 -28.940  12.0300  0.00  0.00     0.000 C
ATOM     23  C4  SGN C   2      25.550 -29.081  11.1710  0.00  0.00     0.000 C
ATOM     24  C5  SGN C   2      26.539 -27.962  11.5080  0.00  0.00     0.000 C
ATOM     25  O5  SGN C   2      25.895 -26.683  11.3680  0.00  0.00     0.000 O
ATOM     26   O  SGN C   2      23.329 -29.924  11.6860  0.00  0.00     0.000 O
ATOM     28  HD  SGN C   2      22.665 -30.456  11.5260  0.00  0.00     0.000 HD
BRANCH 21 30
ATOM     28   N  SGN C   2      22.324 -27.635  12.3180  0.00  0.00     0.000 N
ATOM     30  HD  SGN C   2      21.734 -27.931  11.7570  0.00  0.00     0.000 HD
ATOM     30   S  SGN C   2      21.278 -26.455  12.0450  0.00  0.00     0.000 S
ATOM     31   O  SGN C   2      21.333 -26.220  10.6420  0.00  0.00     0.000 OA
ATOM     32   O  SGN C   2      20.048 -26.794  12.6580  0.00  0.00     0.000 OA
ATOM     33   O  SGN C   2      21.865 -25.237  12.8390  0.00  0.00     0.000 OA
ENDBRANCH 21 30
BRANCH 24 34
ATOM     34   C  SGN C   2      27.750 -27.931  10.6050  0.00  0.00     0.000 C
ATOM     35   O  SGN C   2      28.855 -28.553  11.2830  0.00  0.00     0.000 O
ATOM     36   S  SGN C   2      30.319 -28.222  10.7390  0.00  0.00     0.000 S
ATOM     37   O  SGN C   2      30.393 -26.774  10.7370  0.00  0.00     0.000 OA
ATOM     38   O  SGN C   2      31.230 -28.842  11.6710  0.00  0.00     0.000 OA
ATOM     39   O  SGN C   2      30.343 -28.811   9.4220  0.00  0.00     0.000 OA
ENDBRANCH 24 34
BRANCH 20 40
ATOM     40  O4  IDS C   3      25.198 -26.447  13.4850  0.00  0.00     0.000 O
BRANCH 40 44
ATOM     41  C1  IDS C   3      25.900 -26.057  16.9180  0.00  0.00     0.000 C
ATOM     42  C2  IDS C   3      24.494 -25.847  16.3620  0.00  0.00     0.000 C
ATOM     43  C3  IDS C   3      24.528 -24.872  15.1870  0.00  0.00     0.000 C
ATOM     44  C4  IDS C   3      25.590 -25.254  14.1690  0.00  0.00     0.000 C
ATOM     45  C5  IDS C   3      26.941 -25.482  14.8790  0.00  0.00     0.000 C
ATOM     46  O5  IDS C   3      26.787 -26.483  15.8870  0.00  0.00     0.000 O
ATOM     47   O  IDS C   3      24.773 -23.554  15.6730  0.00  0.00     0.000 O
ATOM     49  HD  IDS C   3      24.263 -24.243  15.5460  0.00  0.00     0.000 HD
BRANCH 42 49
ATOM     49   O  IDS C   3      23.934 -27.135  15.8920  0.00  0.00     0.000 O
ATOM     50   S  IDS C   3      22.492 -27.608  16.4060  0.00  0.00     0.000 S
ATOM     51   O  IDS C   3      21.585 -26.715  15.7200  0.00  0.00     0.000 OA
ATOM     52   O  IDS C   3      22.425 -27.471  17.8510  0.00  0.00     0.000 OA
ATOM     53   O  IDS C   3      22.352 -28.986  15.9840  0.00  0.00     0.000 OA
ENDBRANCH 42 49
BRANCH 45 54
ATOM     54   C  IDS C   3      28.054 -25.908  13.9340  0.00  0.00     0.000 C
ATOM     55   O  IDS C   3      28.323 -25.223  12.9810  0.00  0.00     0.000 OA
ATOM     56   O  IDS C   3      28.656 -26.945  14.1340  0.00  0.00     0.000 OA
ENDBRANCH 45 54
BRANCH 41 57
ATOM     57  O4  SGN C   4      26.181 -24.995  17.6820  0.00  0.00     0.000 O
BRANCH 57 61
ATOM     58  C1  SGN C   4      29.308 -23.643  20.1160  0.00  0.00     0.000 C
ATOM     59  C2  SGN C   4      29.564 -23.647  18.6010  0.00  0.00     0.000 C
ATOM     60  C3  SGN C   4      28.250 -23.759  17.8160  0.00  0.00     0.000 C
ATOM     61  C4  SGN C   4      27.472 -24.972  18.3000  0.00  0.00     0.000 C
ATOM     62  C5  SGN C   4      27.280 -24.916  19.8150  0.00  0.00     0.000 C
ATOM     63  O5  SGN C   4      28.550 -24.787  20.4820  0.00  0.00     0.000 O
BRANCH 59 66
ATOM     64   N  SGN C   4      30.870 -23.005  18.4200  0.00  0.00     0.000 N
ATOM     66  HD  SGN C   4      30.061 -23.188  18.6690  0.00  0.00     0.000 HD
ATOM     66   O  SGN C   4      32.365 -21.311  17.5090  0.00  0.00     0.000 OA
ATOM     67   O  SGN C   4      30.599 -22.276  16.0970  0.00  0.00     0.000 OA
ATOM     68   S  SGN C   4      30.995 -21.697  17.4990  0.00  0.00     0.000 S
ATOM     69   O  SGN C   4      30.007 -20.765  17.9090  0.00  0.00     0.000 OA
ENDBRANCH 59 66
BRANCH 62 70
ATOM     70   C  SGN C   4      26.629 -26.172  20.3380  0.00  0.00     0.000 C
ATOM     71   S  SGN C   4      26.700 -28.732  20.2130  0.00  0.00     0.000 S
ATOM     72   O  SGN C   4      26.590 -28.791  21.6570  0.00  0.00     0.000 OA
ATOM     73   O  SGN C   4      25.417 -28.723  19.5390  0.00  0.00     0.000 OA
ATOM     74   O  SGN C   4      27.639 -29.684  19.6650  0.00  0.00     0.000 OA
ATOM     75   O  SGN C   4      27.370 -27.323  19.9150  0.00  0.00     0.000 O
ENDBRANCH 62 70
ENDBRANCH 57 61
ENDBRANCH 41 57
ENDBRANCH 40 44
ENDBRANCH 20 40
ENDBRANCH 19 23
ENDBRANCH 1 19
TORSDOF 14
ENDMDL
MODEL 80
REMARK VINA RESULT:      -5.1     25.065     28.085
ROOT
ATOM      1  C1  IDS C   1      15.298 -13.671  42.4350  0.00  0.00     0.000 C
ATOM      2  C2  IDS C   1      15.010 -14.132  41.0170  0.00  0.00     0.000 C
ATOM      3  C3  IDS C   1      15.971 -15.240  40.6040  0.00  0.00     0.000 C
ATOM      4  C4  IDS C   1      16.006 -16.358  41.6450  0.00  0.00     0.000 C
ATOM      5  C5  IDS C   1      16.210 -15.767  43.0550  0.00  0.00     0.000 C
ATOM      6  O5  IDS C   1      15.222 -14.780  43.3290  0.00  0.00     0.000 O
ATOM      7   O  IDS C   1      17.277 -14.691  40.4140  0.00  0.00     0.000 O
ATOM      9  HD  IDS C   1      17.475 -15.508  40.6220  0.00  0.00     0.000 HD
ATOM      9   O  IDS C   1      14.762 -17.074  41.6040  0.00  0.00     0.000 O
ATOM     11  HD  IDS C   1      14.961 -17.891  41.8110  0.00  0.00     0.000 HD
ENDROOT
BRANCH 2 11
ATOM     11   O  IDS C   1      13.635 -14.673  40.9260  0.00  0.00     0.000 O
ATOM     12   S  IDS C   1      12.385 -13.692  40.7580  0.00  0.00     0.000 S
ATOM     13   O  IDS C   1      11.496 -14.469  39.9220  0.00  0.00     0.000 OA
ATOM     14   O  IDS C   1      12.819 -12.466  40.1330  0.00  0.00     0.000 OA
ATOM     15   O  IDS C   1      11.890 -13.502  42.0990  0.00  0.00     0.000 OA
ENDBRANCH 2 11
BRANCH 5 16
ATOM     16   C  IDS C   1      16.141 -16.809  44.1570  0.00  0.00     0.000 C
ATOM     17   O  IDS C   1      16.961 -16.770  45.0500  0.00  0.00     0.000 OA
ATOM     18   O  IDS C   1      15.302 -17.667  44.1420  0.00  0.00     0.000 OA
ENDBRANCH 5 16
BRANCH 1 19
ATOM     19  O4  SGN C   2      16.304 -12.817  42.6470  0.00  0.00     0.000 O
BRANCH 19 23
ATOM     20  C1  SGN C   2      18.254 -10.486  45.5100  0.00  0.00     0.000 C
ATOM     21  C2  SGN C   2      18.600 -11.980  45.4910  0.00  0.00     0.000 C
ATOM     22  C3  SGN C   2      18.168 -12.593  44.1620  0.00  0.00     0.000 C
ATOM     23  C4  SGN C   2      16.679 -12.350  43.9440  0.00  0.00     0.000 C
ATOM     24  C5  SGN C   2      16.375 -10.854  44.0590  0.00  0.00     0.000 C
ATOM     25  O5  SGN C   2      16.854 -10.354  45.3200  0.00  0.00     0.000 O
ATOM     26   O  SGN C   2      18.468 -13.984  44.1330  0.00  0.00     0.000 O
ATOM     28  HD  SGN C   2      18.744 -14.804  44.1710  0.00  0.00     0.000 HD
BRANCH 21 30
ATOM     28   N  SGN C   2      19.927 -12.527  45.8020  0.00  0.00     0.000 N
ATOM     30  HD  SGN C   2      19.973 -13.344  46.0850  0.00  0.00     0.000 HD
ATOM     30   S  SGN C   2      20.511 -12.492  47.2910  0.00  0.00     0.000 S
ATOM     31   O  SGN C   2      19.513 -13.107  48.1010  0.00  0.00     0.000 OA
ATOM     32   O  SGN C   2      21.826 -13.015  47.2700  0.00  0.00     0.000 OA
ATOM     33   O  SGN C   2      20.630 -10.965  47.6170  0.00  0.00     0.000 OA
ENDBRANCH 21 30
BRANCH 24 34
ATOM     34   C  SGN C   2      14.900 -10.528  44.0050  0.00  0.00     0.000 C
ATOM     35   O  SGN C   2      14.603  -9.918  42.7360  0.00  0.00     0.000 O
ATOM     36   S  SGN C   2      13.250  -9.077  42.6360  0.00  0.00     0.000 S
ATOM     37   O  SGN C   2      13.328  -8.122  43.7240  0.00  0.00     0.000 OA
ATOM     38   O  SGN C   2      13.270  -8.462  41.3300  0.00  0.00     0.000 OA
ATOM     39   O  SGN C   2      12.212 -10.065  42.7980  0.00  0.00     0.000 OA
ENDBRANCH 24 34
BRANCH 20 40
ATOM     40  O4  IDS C   3      18.889  -9.697  44.6470  0.00  0.00     0.000 O
BRANCH 40 44
ATOM     41  C1  IDS C   3      21.589  -7.799  43.4080  0.00  0.00     0.000 C
ATOM     42  C2  IDS C   3      21.666  -8.511  44.7550  0.00  0.00     0.000 C
ATOM     43  C3  IDS C   3      20.462  -8.145  45.6190  0.00  0.00     0.000 C
ATOM     44  C4  IDS C   3      19.154  -8.308  44.8600  0.00  0.00     0.000 C
ATOM     45  C5  IDS C   3      19.240  -7.580  43.5030  0.00  0.00     0.000 C
ATOM     46  O5  IDS C   3      20.352  -8.085  42.7600  0.00  0.00     0.000 O
ATOM     47   O  IDS C   3      20.596  -6.801  46.0720  0.00  0.00     0.000 O
ATOM     49  HD  IDS C   3      20.802  -7.641  46.0920  0.00  0.00     0.000 HD
BRANCH 42 49
ATOM     49   O  IDS C   3      21.677  -9.979  44.5550  0.00  0.00     0.000 O
ATOM     50   S  IDS C   3      23.074 -10.747  44.3920  0.00  0.00     0.000 S
ATOM     51   O  IDS C   3      23.635 -10.706  45.7240  0.00  0.00     0.000 OA
ATOM     52   O  IDS C   3      23.897 -10.050  43.4170  0.00  0.00     0.000 OA
ATOM     53   O  IDS C   3      22.742 -12.089  43.9620  0.00  0.00     0.000 OA
ENDBRANCH 42 49
BRANCH 45 54
ATOM     54   C  IDS C   3      17.983  -7.727  42.6600  0.00  0.00     0.000 C
ATOM     55   O  IDS C   3      18.073  -8.067  41.5090  0.00  0.00     0.000 OA
ATOM     56   O  IDS C   3      16.895  -7.484  43.1460  0.00  0.00     0.000 OA
ENDBRANCH 45 54
BRANCH 41 57
ATOM     57  O4  SGN C   4      21.993  -6.539  43.6080  0.00  0.00     0.000 O
BRANCH 57 61
ATOM     58  C1  SGN C   4      23.437  -3.477  41.1440  0.00  0.00     0.000 C
ATOM     59  C2  SGN C   4      22.525  -4.524  40.4830  0.00  0.00     0.000 C
ATOM     60  C3  SGN C   4      21.747  -5.325  41.5370  0.00  0.00     0.000 C
ATOM     61  C4  SGN C   4      22.720  -5.920  42.5410  0.00  0.00     0.000 C
ATOM     62  C5  SGN C   4      23.612  -4.831  43.1340  0.00  0.00     0.000 C
ATOM     63  O5  SGN C   4      24.289  -4.106  42.0900  0.00  0.00     0.000 O
BRANCH 59 66
ATOM     64   N  SGN C   4      22.293  -4.076  39.1060  0.00  0.00     0.000 N
ATOM     66  HD  SGN C   4      22.391  -4.103  39.9660  0.00  0.00     0.000 HD
ATOM     66   O  SGN C   4      20.894  -3.325  37.2590  0.00  0.00     0.000 OA
ATOM     67   O  SGN C   4      20.098  -5.105  38.7560  0.00  0.00     0.000 OA
ATOM     68   S  SGN C   4      20.806  -3.712  38.6260  0.00  0.00     0.000 S
ATOM     69   O  SGN C   4      20.238  -2.817  39.5680  0.00  0.00     0.000 OA
ENDBRANCH 59 66
BRANCH 62 70
ATOM     70   C  SGN C   4      24.674  -5.412  44.0330  0.00  0.00     0.000 C
ATOM     71   S  SGN C   4      26.319  -7.363  44.2790  0.00  0.00     0.000 S
ATOM     72   O  SGN C   4      27.352  -6.424  44.6680  0.00  0.00     0.000 OA
ATOM     73   O  SGN C   4      25.544  -7.860  45.3980  0.00  0.00     0.000 OA
ATOM     74   O  SGN C   4      26.786  -8.400  43.3870  0.00  0.00     0.000 OA
ATOM     75   O  SGN C   4      25.317  -6.515  43.3840  0.00  0.00     0.000 O
ENDBRANCH 62 70
ENDBRANCH 57 61
ENDBRANCH 41 57
ENDBRANCH 40 44
ENDBRANCH 20 40
ENDBRANCH 19 23
ENDBRANCH 1 19
TORSDOF 14
ENDMDL
MODEL 81
REMARK VINA RESULT:      -5.0     18.295     24.885
ROOT
ATOM      1  C1  IDS C   1      39.705 -36.287  40.2550  0.00  0.00     0.000 C
ATOM      2  C2  IDS C   1      38.967 -36.500  38.9450  0.00  0.00     0.000 C
ATOM      3  C3  IDS C   1      39.038 -37.961  38.5150  0.00  0.00     0.000 C
ATOM      4  C4  IDS C   1      38.608 -38.891  39.6500  0.00  0.00     0.000 C
ATOM      5  C5  IDS C   1      39.351 -38.524  40.9510  0.00  0.00     0.000 C
ATOM      6  O5  IDS C   1      39.166 -37.147  41.2580  0.00  0.00     0.000 O
ATOM      7   O  IDS C   1      40.367 -38.268  38.0920  0.00  0.00     0.000 O
ATOM      9  HD  IDS C   1      40.097 -39.049  38.3510  0.00  0.00     0.000 HD
ATOM      9   O  IDS C   1      37.194 -38.756  39.8540  0.00  0.00     0.000 O
ATOM     11  HD  IDS C   1      36.923 -39.537  40.1130  0.00  0.00     0.000 HD
ENDROOT
BRANCH 2 11
ATOM     11   O  IDS C   1      37.538 -36.146  39.1010  0.00  0.00     0.000 O
ATOM     12   S  IDS C   1      36.872 -35.028  38.1740  0.00  0.00     0.000 S
ATOM     13   O  IDS C   1      35.526 -35.531  38.0060  0.00  0.00     0.000 OA
ATOM     14   O  IDS C   1      37.600 -34.939  36.9320  0.00  0.00     0.000 OA
ATOM     15   O  IDS C   1      36.939 -33.820  38.9590  0.00  0.00     0.000 OA
ENDBRANCH 2 11
BRANCH 5 16
ATOM     16   C  IDS C   1      38.891 -39.332  42.1510  0.00  0.00     0.000 C
ATOM     17   O  IDS C   1      39.577 -40.258  42.5300  0.00  0.00     0.000 OA
ATOM     18   O  IDS C   1      37.861 -39.073  42.7090  0.00  0.00     0.000 OA
ENDBRANCH 5 16
BRANCH 1 19
ATOM     19  O4  SGN C   2      41.036 -36.172  40.2380  0.00  0.00     0.000 O
BRANCH 19 23
ATOM     20  C1  SGN C   2      44.338 -34.386  42.0620  0.00  0.00     0.000 C
ATOM     21  C2  SGN C   2      43.702 -35.566  42.8050  0.00  0.00     0.000 C
ATOM     22  C3  SGN C   2      42.825 -36.366  41.8450  0.00  0.00     0.000 C
ATOM     23  C4  SGN C   2      41.776 -35.451  41.2240  0.00  0.00     0.000 C
ATOM     24  C5  SGN C   2      42.459 -34.245  40.5730  0.00  0.00     0.000 C
ATOM     25  O5  SGN C   2      43.297 -33.580  41.5360  0.00  0.00     0.000 O
ATOM     26   O  SGN C   2      42.213 -37.458  42.5220  0.00  0.00     0.000 O
ATOM     28  HD  SGN C   2      41.937 -38.133  42.9890  0.00  0.00     0.000 HD
BRANCH 21 30
ATOM     28   N  SGN C   2      44.429 -36.546  43.6220  0.00  0.00     0.000 N
ATOM     30  HD  SGN C   2      43.998 -36.942  44.2600  0.00  0.00     0.000 HD
ATOM     30   S  SGN C   2      45.116 -36.126  45.0050  0.00  0.00     0.000 S
ATOM     31   O  SGN C   2      44.083 -35.507  45.7650  0.00  0.00     0.000 OA
ATOM     32   O  SGN C   2      45.801 -37.250  45.5260  0.00  0.00     0.000 OA
ATOM     33   O  SGN C   2      46.204 -35.079  44.5870  0.00  0.00     0.000 OA
ENDBRANCH 21 30
BRANCH 24 34
ATOM     34   C  SGN C   2      41.493 -33.205  40.0580  0.00  0.00     0.000 C
ATOM     35   O  SGN C   2      41.458 -33.269  38.6210  0.00  0.00     0.000 O
ATOM     36   S  SGN C   2      40.893 -31.990  37.8510  0.00  0.00     0.000 S
ATOM     37   O  SGN C   2      41.679 -30.880  38.3540  0.00  0.00     0.000 OA
ATOM     38   O  SGN C   2      41.105 -32.255  36.4490  0.00  0.00     0.000 OA
ATOM     39   O  SGN C   2      39.502 -31.941  38.2310  0.00  0.00     0.000 OA
ENDBRANCH 24 34
BRANCH 20 40
ATOM     40  O4  IDS C   3      45.208 -34.664  41.0940  0.00  0.00     0.000 O
BRANCH 40 44
ATOM     41  C1  IDS C   3      48.095 -35.462  39.2340  0.00  0.00     0.000 C
ATOM     42  C2  IDS C   3      48.103 -35.462  40.7600  0.00  0.00     0.000 C
ATOM     43  C3  IDS C   3      47.556 -34.141  41.2950  0.00  0.00     0.000 C
ATOM     44  C4  IDS C   3      46.232 -33.775  40.6430  0.00  0.00     0.000 C
ATOM     45  C5  IDS C   3      46.360 -33.865  39.1070  0.00  0.00     0.000 C
ATOM     46  O5  IDS C   3      46.788 -35.179  38.7410  0.00  0.00     0.000 O
ATOM     47   O  IDS C   3      48.512 -33.108  41.0690  0.00  0.00     0.000 O
ATOM     49  HD  IDS C   3      48.222 -33.806  41.4910  0.00  0.00     0.000 HD
BRANCH 42 49
ATOM     49   O  IDS C   3      47.260 -36.567  41.2740  0.00  0.00     0.000 O
ATOM     50   S  IDS C   3      47.944 -37.795  42.0420  0.00  0.00     0.000 S
ATOM     51   O  IDS C   3      48.340 -37.218  43.3080  0.00  0.00     0.000 OA
ATOM     52   O  IDS C   3      49.077 -38.278  41.2700  0.00  0.00     0.000 OA
ATOM     53   O  IDS C   3      46.912 -38.802  42.1800  0.00  0.00     0.000 OA
ENDBRANCH 42 49
BRANCH 45 54
ATOM     54   C  IDS C   3      45.065 -33.551  38.3760  0.00  0.00     0.000 C
ATOM     55   O  IDS C   3      44.444 -34.441  37.8530  0.00  0.00     0.000 OA
ATOM     56   O  IDS C   3      44.670 -32.404  38.3060  0.00  0.00     0.000 OA
ENDBRANCH 45 54
BRANCH 41 57
ATOM     57  O4  SGN C   4      49.156 -34.750  38.8370  0.00  0.00     0.000 O
BRANCH 57 61
ATOM     58  C1  SGN C   4      51.223 -34.008  35.2720  0.00  0.00     0.000 C
ATOM     59  C2  SGN C   4      49.692 -33.886  35.2210  0.00  0.00     0.000 C
ATOM     60  C3  SGN C   4      49.097 -33.771  36.6320  0.00  0.00     0.000 C
ATOM     61  C4  SGN C   4      49.582 -34.933  37.4830  0.00  0.00     0.000 C
ATOM     62  C5  SGN C   4      51.108 -35.011  37.4640  0.00  0.00     0.000 C
ATOM     63  O5  SGN C   4      51.595 -35.092  36.1110  0.00  0.00     0.000 O
BRANCH 59 66
ATOM     64   N  SGN C   4      49.024 -33.437  33.9950  0.00  0.00     0.000 N
ATOM     66  HD  SGN C   4      49.617 -33.686  34.5760  0.00  0.00     0.000 HD
ATOM     66   O  SGN C   4      48.413 -31.775  32.3220  0.00  0.00     0.000 OA
ATOM     67   O  SGN C   4      48.458 -31.161  34.7020  0.00  0.00     0.000 OA
ATOM     68   S  SGN C   4      49.167 -31.911  33.5220  0.00  0.00     0.000 S
ATOM     69   O  SGN C   4      50.545 -31.570  33.5200  0.00  0.00     0.000 OA
ENDBRANCH 59 66
BRANCH 62 70
ATOM     70   C  SGN C   4      51.609 -36.234  38.1910  0.00  0.00     0.000 C
ATOM     71   S  SGN C   4      52.315 -38.677  37.8630  0.00  0.00     0.000 S
ATOM     72   O  SGN C   4      53.473 -38.440  38.7030  0.00  0.00     0.000 OA
ATOM     73   O  SGN C   4      51.145 -39.102  38.6050  0.00  0.00     0.000 OA
ATOM     74   O  SGN C   4      52.599 -39.492  36.7050  0.00  0.00     0.000 OA
ATOM     75   O  SGN C   4      51.962 -37.255  37.2500  0.00  0.00     0.000 O
ENDBRANCH 62 70
ENDBRANCH 57 61
ENDBRANCH 41 57
ENDBRANCH 40 44
ENDBRANCH 20 40
ENDBRANCH 19 23
ENDBRANCH 1 19
TORSDOF 14
ENDMDL
MODEL 82
REMARK VINA RESULT:      -5.0     11.223     15.803
ROOT
ATOM      1  C1  IDS C   1      26.552 -31.294  10.4570  0.00  0.00     0.000 C
ATOM      2  C2  IDS C   1      27.759 -32.192  10.6610  0.00  0.00     0.000 C
ATOM      3  C3  IDS C   1      27.475 -33.246  11.7240  0.00  0.00     0.000 C
ATOM      4  C4  IDS C   1      26.169 -33.986  11.4340  0.00  0.00     0.000 C
ATOM      5  C5  IDS C   1      25.037 -32.979  11.1510  0.00  0.00     0.000 C
ATOM      6  O5  IDS C   1      25.415 -32.083  10.1100  0.00  0.00     0.000 O
ATOM      7   O  IDS C   1      27.422 -32.624  13.0090  0.00  0.00     0.000 O
ATOM      9  HD  IDS C   1      26.911 -33.310  13.1420  0.00  0.00     0.000 HD
ATOM      9   O  IDS C   1      26.356 -34.828  10.2850  0.00  0.00     0.000 O
ATOM     11  HD  IDS C   1      25.844 -35.514  10.4190  0.00  0.00     0.000 HD
ENDROOT
BRANCH 2 11
ATOM     11   O  IDS C   1      28.087 -32.900   9.4030  0.00  0.00     0.000 O
ATOM     12   S  IDS C   1      29.596 -32.980   8.8840  0.00  0.00     0.000 S
ATOM     13   O  IDS C   1      29.638 -34.286   8.2640  0.00  0.00     0.000 OA
ATOM     14   O  IDS C   1      30.495 -32.860  10.0070  0.00  0.00     0.000 OA
ATOM     15   O  IDS C   1      29.714 -31.893   7.9430  0.00  0.00     0.000 OA
ENDBRANCH 2 11
BRANCH 5 16
ATOM     16   C  IDS C   1      23.734 -33.640  10.7400  0.00  0.00     0.000 C
ATOM     17   O  IDS C   1      22.800 -32.939  10.4140  0.00  0.00     0.000 OA
ATOM     18   O  IDS C   1      23.620 -34.835  10.7520  0.00  0.00     0.000 OA
ENDBRANCH 5 16
BRANCH 1 19
ATOM     19  O4  SGN C   2      26.330 -30.299  11.3220  0.00  0.00     0.000 O
BRANCH 19 23
ATOM     20  C1  SGN C   2      24.636 -26.520  11.8420  0.00  0.00     0.000 C
ATOM     21  C2  SGN C   2      23.660 -27.690  11.6700  0.00  0.00     0.000 C
ATOM     22  C3  SGN C   2      24.385 -29.008  11.9280  0.00  0.00     0.000 C
ATOM     23  C4  SGN C   2      25.585 -29.125  10.9960  0.00  0.00     0.000 C
ATOM     24  C5  SGN C   2      26.480 -27.891  11.1450  0.00  0.00     0.000 C
ATOM     25  O5  SGN C   2      25.706 -26.698  10.9290  0.00  0.00     0.000 O
ATOM     26   O  SGN C   2      23.497 -30.107  11.7570  0.00  0.00     0.000 O
ATOM     28  HD  SGN C   2      22.879 -30.711  11.7010  0.00  0.00     0.000 HD
BRANCH 21 30
ATOM     28   N  SGN C   2      22.369 -27.749  12.3680  0.00  0.00     0.000 N
ATOM     30  HD  SGN C   2      21.754 -28.264  12.0420  0.00  0.00     0.000 HD
ATOM     30   S  SGN C   2      21.144 -26.820  11.9270  0.00  0.00     0.000 S
ATOM     31   O  SGN C   2      20.971 -27.062  10.5340  0.00  0.00     0.000 OA
ATOM     32   O  SGN C   2      20.069 -27.040  12.8210  0.00  0.00     0.000 OA
ATOM     33   O  SGN C   2      21.661 -25.363  12.1800  0.00  0.00     0.000 OA
ENDBRANCH 21 30
BRANCH 24 34
ATOM     34   C  SGN C   2      27.620 -27.845  10.1540  0.00  0.00     0.000 C
ATOM     35   O  SGN C   2      28.847 -28.155  10.8380  0.00  0.00     0.000 O
ATOM     36   S  SGN C   2      30.206 -27.712  10.1260  0.00  0.00     0.000 S
ATOM     37   O  SGN C   2      30.040 -26.296   9.8640  0.00  0.00     0.000 OA
ATOM     38   O  SGN C   2      31.254 -28.001  11.0750  0.00  0.00     0.000 OA
ATOM     39   O  SGN C   2      30.257 -28.526   8.9370  0.00  0.00     0.000 OA
ENDBRANCH 24 34
BRANCH 20 40
ATOM     40  O4  IDS C   3      25.130 -26.305  13.0590  0.00  0.00     0.000 O
BRANCH 40 44
ATOM     41  C1  IDS C   3      25.977 -25.491  16.3830  0.00  0.00     0.000 C
ATOM     42  C2  IDS C   3      24.529 -25.473  15.9010  0.00  0.00     0.000 C
ATOM     43  C3  IDS C   3      24.401 -24.629  14.6360  0.00  0.00     0.000 C
ATOM     44  C4  IDS C   3      25.439 -25.015  13.5930  0.00  0.00     0.000 C
ATOM     45  C5  IDS C   3      26.843 -25.039  14.2330  0.00  0.00     0.000 C
ATOM     46  O5  IDS C   3      26.845 -25.938  15.3440  0.00  0.00     0.000 O
ATOM     47   O  IDS C   3      24.540 -23.250  14.9710  0.00  0.00     0.000 O
ATOM     49  HD  IDS C   3      24.095 -23.993  14.9460  0.00  0.00     0.000 HD
BRANCH 42 49
ATOM     49   O  IDS C   3      24.076 -26.851  15.5990  0.00  0.00     0.000 O
ATOM     50   S  IDS C   3      22.698 -27.386  16.2170  0.00  0.00     0.000 S
ATOM     51   O  IDS C   3      21.694 -26.659  15.4710  0.00  0.00     0.000 OA
ATOM     52   O  IDS C   3      22.659 -27.090  17.6400  0.00  0.00     0.000 OA
ATOM     53   O  IDS C   3      22.671 -28.809  15.9570  0.00  0.00     0.000 OA
ENDBRANCH 42 49
BRANCH 45 54
ATOM     54   C  IDS C   3      27.939 -25.456  13.2650  0.00  0.00     0.000 C
ATOM     55   O  IDS C   3      28.670 -26.369  13.5500  0.00  0.00     0.000 OA
ATOM     56   O  IDS C   3      28.083 -24.857  12.2170  0.00  0.00     0.000 OA
ENDBRANCH 45 54
BRANCH 41 57
ATOM     57  O4  SGN C   4      26.193 -24.333  17.0170  0.00  0.00     0.000 O
BRANCH 57 61
ATOM     58  C1  SGN C   4      29.049 -23.139  19.8360  0.00  0.00     0.000 C
ATOM     59  C2  SGN C   4      29.343 -24.433  19.0610  0.00  0.00     0.000 C
ATOM     60  C3  SGN C   4      28.464 -24.539  17.8070  0.00  0.00     0.000 C
ATOM     61  C4  SGN C   4      27.003 -24.387  18.1960  0.00  0.00     0.000 C
ATOM     62  C5  SGN C   4      26.791 -23.097  18.9870  0.00  0.00     0.000 C
ATOM     63  O5  SGN C   4      27.663 -23.055  20.1320  0.00  0.00     0.000 O
BRANCH 59 66
ATOM     64   N  SGN C   4      30.798 -24.426  18.8780  0.00  0.00     0.000 N
ATOM     66  HD  SGN C   4      29.950 -24.583  18.7940  0.00  0.00     0.000 HD
ATOM     66   O  SGN C   4      33.024 -25.404  19.0260  0.00  0.00     0.000 OA
ATOM     67   O  SGN C   4      31.419 -25.724  20.8600  0.00  0.00     0.000 OA
ATOM     68   S  SGN C   4      31.662 -25.706  19.3110  0.00  0.00     0.000 S
ATOM     69   O  SGN C   4      31.070 -26.861  18.7380  0.00  0.00     0.000 OA
ENDBRANCH 59 66
BRANCH 62 70
ATOM     70   C  SGN C   4      25.377 -22.988  19.5000  0.00  0.00     0.000 C
ATOM     71   S  SGN C   4      23.946 -23.088  21.6250  0.00  0.00     0.000 S
ATOM     72   O  SGN C   4      23.243 -21.897  21.1900  0.00  0.00     0.000 OA
ATOM     73   O  SGN C   4      23.344 -24.316  21.1480  0.00  0.00     0.000 OA
ATOM     74   O  SGN C   4      24.248 -23.097  23.0380  0.00  0.00     0.000 OA
ATOM     75   O  SGN C   4      25.372 -22.991  20.9330  0.00  0.00     0.000 O
ENDBRANCH 62 70
ENDBRANCH 57 61
ENDBRANCH 41 57
ENDBRANCH 40 44
ENDBRANCH 20 40
ENDBRANCH 19 23
ENDBRANCH 1 19
TORSDOF 14
ENDMDL
MODEL 83
REMARK VINA RESULT:      -5.0     15.483     19.178
ROOT
ATOM      1  C1  IDS C   1      32.785 -26.005   9.9120  0.00  0.00     0.000 C
ATOM      2  C2  IDS C   1      33.950 -25.036  10.0100  0.00  0.00     0.000 C
ATOM      3  C3  IDS C   1      35.028 -25.382   8.9910  0.00  0.00     0.000 C
ATOM      4  C4  IDS C   1      34.436 -25.530   7.5890  0.00  0.00     0.000 C
ATOM      5  C5  IDS C   1      33.206 -26.459   7.6250  0.00  0.00     0.000 C
ATOM      6  O5  IDS C   1      32.261 -25.998   8.5850  0.00  0.00     0.000 O
ATOM      7   O  IDS C   1      35.687 -26.587   9.3850  0.00  0.00     0.000 O
ATOM      9  HD  IDS C   1      35.804 -26.614   8.5280  0.00  0.00     0.000 HD
ATOM      9   O  IDS C   1      34.041 -24.236   7.1100  0.00  0.00     0.000 O
ATOM     11  HD  IDS C   1      34.158 -24.263   6.2530  0.00  0.00     0.000 HD
ENDROOT
BRANCH 2 11
ATOM     11   O  IDS C   1      33.492 -23.657   9.7290  0.00  0.00     0.000 O
ATOM     12   S  IDS C   1      33.896 -22.452  10.6990  0.00  0.00     0.000 S
ATOM     13   O  IDS C   1      34.035 -21.349   9.7740  0.00  0.00     0.000 OA
ATOM     14   O  IDS C   1      35.126 -22.777  11.3790  0.00  0.00     0.000 OA
ATOM     15   O  IDS C   1      32.773 -22.314  11.5920  0.00  0.00     0.000 OA
ENDBRANCH 2 11
BRANCH 5 16
ATOM     16   C  IDS C   1      32.494 -26.564   6.2890  0.00  0.00     0.000 C
ATOM     17   O  IDS C   1      31.332 -26.912   6.2710  0.00  0.00     0.000 OA
ATOM     18   O  IDS C   1      33.070 -26.323   5.2640  0.00  0.00     0.000 OA
ENDBRANCH 5 16
BRANCH 1 19
ATOM     19  O4  SGN C   2      32.888 -27.204  10.4940  0.00  0.00     0.000 O
BRANCH 19 23
ATOM     20  C1  SGN C   2      31.017 -29.971  12.9970  0.00  0.00     0.000 C
ATOM     21  C2  SGN C   2      30.433 -29.818  11.5880  0.00  0.00     0.000 C
ATOM     22  C3  SGN C   2      31.450 -29.131  10.6800  0.00  0.00     0.000 C
ATOM     23  C4  SGN C   2      31.849 -27.788  11.2810  0.00  0.00     0.000 C
ATOM     24  C5  SGN C   2      32.342 -27.987  12.7160  0.00  0.00     0.000 C
ATOM     25  O5  SGN C   2      31.341 -28.679  13.4850  0.00  0.00     0.000 O
ATOM     26   O  SGN C   2      30.918 -28.967   9.3710  0.00  0.00     0.000 O
ATOM     28  HD  SGN C   2      30.547 -28.969   8.5880  0.00  0.00     0.000 HD
BRANCH 21 30
ATOM     28   N  SGN C   2      29.647 -30.954  12.0890  0.00  0.00     0.000 N
ATOM     30  HD  SGN C   2      29.883 -31.750  11.8440  0.00  0.00     0.000 HD
ATOM     30   S  SGN C   2      28.445 -31.572  11.2340  0.00  0.00     0.000 S
ATOM     31   O  SGN C   2      29.006 -31.874   9.9600  0.00  0.00     0.000 OA
ATOM     32   O  SGN C   2      27.830 -32.594  11.9960  0.00  0.00     0.000 OA
ATOM     33   O  SGN C   2      27.413 -30.398  11.1240  0.00  0.00     0.000 OA
ENDBRANCH 21 30
BRANCH 24 34
ATOM     34   C  SGN C   2      32.622 -26.695  13.4460  0.00  0.00     0.000 C
ATOM     35   O  SGN C   2      34.044 -26.544  13.6010  0.00  0.00     0.000 O
ATOM     36   S  SGN C   2      34.547 -25.529  14.7260  0.00  0.00     0.000 S
ATOM     37   O  SGN C   2      33.885 -25.965  15.9400  0.00  0.00     0.000 OA
ATOM     38   O  SGN C   2      35.982 -25.678  14.7710  0.00  0.00     0.000 OA
ATOM     39   O  SGN C   2      34.111 -24.239  14.2520  0.00  0.00     0.000 OA
ENDBRANCH 24 34
BRANCH 20 40
ATOM     40  O4  IDS C   3      32.071 -30.771  13.1440  0.00  0.00     0.000 O
BRANCH 40 44
ATOM     41  C1  IDS C   3      34.020 -33.697  13.3920  0.00  0.00     0.000 C
ATOM     42  C2  IDS C   3      32.519 -33.759  13.1270  0.00  0.00     0.000 C
ATOM     43  C3  IDS C   3      31.762 -32.936  14.1660  0.00  0.00     0.000 C
ATOM     44  C4  IDS C   3      32.349 -31.541  14.3160  0.00  0.00     0.000 C
ATOM     45  C5  IDS C   3      33.875 -31.633  14.5280  0.00  0.00     0.000 C
ATOM     46  O5  IDS C   3      34.465 -32.344  13.4380  0.00  0.00     0.000 O
ATOM     47   O  IDS C   3      31.793 -33.613  15.4200  0.00  0.00     0.000 O
ATOM     49  HD  IDS C   3      31.504 -33.510  14.6100  0.00  0.00     0.000 HD
BRANCH 42 49
ATOM     49   O  IDS C   3      32.216 -33.218  11.7820  0.00  0.00     0.000 O
ATOM     50   S  IDS C   3      31.850 -34.220  10.5870  0.00  0.00     0.000 S
ATOM     51   O  IDS C   3      30.526 -34.685  10.9350  0.00  0.00     0.000 OA
ATOM     52   O  IDS C   3      32.827 -35.296  10.5430  0.00  0.00     0.000 OA
ATOM     53   O  IDS C   3      31.867 -33.422   9.3790  0.00  0.00     0.000 OA
ENDBRANCH 42 49
BRANCH 45 54
ATOM     54   C  IDS C   3      34.549 -30.275  14.6480  0.00  0.00     0.000 C
ATOM     55   O  IDS C   3      35.474 -30.003  13.9270  0.00  0.00     0.000 OA
ATOM     56   O  IDS C   3      34.164 -29.478  15.4810  0.00  0.00     0.000 OA
ENDBRANCH 45 54
BRANCH 41 57
ATOM     57  O4  SGN C   4      34.276 -34.547  14.3940  0.00  0.00     0.000 O
BRANCH 57 61
ATOM     58  C1  SGN C   4      37.584 -36.575  15.9670  0.00  0.00     0.000 C
ATOM     59  C2  SGN C   4      37.756 -35.069  15.7070  0.00  0.00     0.000 C
ATOM     60  C3  SGN C   4      36.396 -34.378  15.5340  0.00  0.00     0.000 C
ATOM     61  C4  SGN C   4      35.599 -35.090  14.4540  0.00  0.00     0.000 C
ATOM     62  C5  SGN C   4      35.494 -36.583  14.7610  0.00  0.00     0.000 C
ATOM     63  O5  SGN C   4      36.803 -37.159  14.9350  0.00  0.00     0.000 O
BRANCH 59 66
ATOM     64   N  SGN C   4      38.588 -34.543  16.7940  0.00  0.00     0.000 N
ATOM     66  HD  SGN C   4      38.061 -34.614  16.1100  0.00  0.00     0.000 HD
ATOM     66   O  SGN C   4      40.582 -33.477  17.7000  0.00  0.00     0.000 OA
ATOM     67   O  SGN C   4      40.786 -35.115  15.8780  0.00  0.00     0.000 OA
ATOM     68   S  SGN C   4      40.012 -33.882  16.4600  0.00  0.00     0.000 S
ATOM     69   O  SGN C   4      39.830 -32.923  15.4310  0.00  0.00     0.000 OA
ENDBRANCH 59 66
BRANCH 62 70
ATOM     70   C  SGN C   4      34.824 -37.334  13.6390  0.00  0.00     0.000 C
ATOM     71   S  SGN C   4      33.060 -39.123  13.1250  0.00  0.00     0.000 S
ATOM     72   O  SGN C   4      32.530 -38.278  12.0740  0.00  0.00     0.000 OA
ATOM     73   O  SGN C   4      34.111 -40.012  12.6710  0.00  0.00     0.000 OA
ATOM     74   O  SGN C   4      32.039 -39.780  13.9090  0.00  0.00     0.000 OA
ATOM     75   O  SGN C   4      33.738 -38.117  14.1500  0.00  0.00     0.000 O
ENDBRANCH 62 70
ENDBRANCH 57 61
ENDBRANCH 41 57
ENDBRANCH 40 44
ENDBRANCH 20 40
ENDBRANCH 19 23
ENDBRANCH 1 19
TORSDOF 14
ENDMDL
MODEL 84
REMARK VINA RESULT:      -5.0     31.726     35.717
ROOT
ATOM      1  C1  IDS C   1      37.170 -68.278  25.9420  0.00  0.00     0.000 C
ATOM      2  C2  IDS C   1      37.827 -69.137  27.0070  0.00  0.00     0.000 C
ATOM      3  C3  IDS C   1      37.000 -69.138  28.2870  0.00  0.00     0.000 C
ATOM      4  C4  IDS C   1      35.538 -69.481  28.0010  0.00  0.00     0.000 C
ATOM      5  C5  IDS C   1      35.004 -68.614  26.8420  0.00  0.00     0.000 C
ATOM      6  O5  IDS C   1      35.842 -68.740  25.6980  0.00  0.00     0.000 O
ATOM      7   O  IDS C   1      37.099 -67.860  28.9180  0.00  0.00     0.000 O
ATOM      9  HD  IDS C   1      36.327 -68.122  29.2080  0.00  0.00     0.000 HD
ATOM      9   O  IDS C   1      35.447 -70.868  27.6400  0.00  0.00     0.000 O
ATOM     11  HD  IDS C   1      34.674 -71.130  27.9300  0.00  0.00     0.000 HD
ENDROOT
BRANCH 2 11
ATOM     11   O  IDS C   1      37.932 -70.538  26.5400  0.00  0.00     0.000 O
ATOM     12   S  IDS C   1      39.307 -71.340  26.6760  0.00  0.00     0.000 S
ATOM     13   O  IDS C   1      38.852 -72.688  26.9360  0.00  0.00     0.000 OA
ATOM     14   O  IDS C   1      40.079 -70.786  27.7620  0.00  0.00     0.000 OA
ATOM     15   O  IDS C   1      39.945 -71.187  25.3920  0.00  0.00     0.000 OA
ENDBRANCH 2 11
BRANCH 5 16
ATOM     16   C  IDS C   1      33.591 -68.979  26.4230  0.00  0.00     0.000 C
ATOM     17   O  IDS C   1      32.716 -68.147  26.5330  0.00  0.00     0.000 OA
ATOM     18   O  IDS C   1      33.337 -70.074  26.0050  0.00  0.00     0.000 OA
ENDBRANCH 5 16
BRANCH 1 19
ATOM     19  O4  SGN C   2      37.326 -66.951  25.9910  0.00  0.00     0.000 O
BRANCH 19 23
ATOM     20  C1  SGN C   2      38.155 -63.516  23.7690  0.00  0.00     0.000 C
ATOM     21  C2  SGN C   2      36.755 -64.120  23.6000  0.00  0.00     0.000 C
ATOM     22  C3  SGN C   2      36.459 -65.067  24.7600  0.00  0.00     0.000 C
ATOM     23  C4  SGN C   2      37.538 -66.141  24.8340  0.00  0.00     0.000 C
ATOM     24  C5  SGN C   2      38.919 -65.484  24.9140  0.00  0.00     0.000 C
ATOM     25  O5  SGN C   2      39.094 -64.578  23.8090  0.00  0.00     0.000 O
ATOM     26   O  SGN C   2      35.169 -65.649  24.6110  0.00  0.00     0.000 O
ATOM     28  HD  SGN C   2      34.351 -65.903  24.4820  0.00  0.00     0.000 HD
BRANCH 21 30
ATOM     28   N  SGN C   2      36.201 -62.799  23.2770  0.00  0.00     0.000 N
ATOM     30  HD  SGN C   2      35.399 -62.618  23.5490  0.00  0.00     0.000 HD
ATOM     30   S  SGN C   2      35.289 -62.576  21.9820  0.00  0.00     0.000 S
ATOM     31   O  SGN C   2      34.250 -63.545  22.0820  0.00  0.00     0.000 OA
ATOM     32   O  SGN C   2      34.967 -61.200  21.8900  0.00  0.00     0.000 OA
ATOM     33   O  SGN C   2      36.243 -62.904  20.7830  0.00  0.00     0.000 OA
ENDBRANCH 21 30
BRANCH 24 34
ATOM     34   C  SGN C   2      40.064 -66.468  24.8430  0.00  0.00     0.000 C
ATOM     35   O  SGN C   2      40.635 -66.616  26.1540  0.00  0.00     0.000 O
ATOM     36   S  SGN C   2      42.113 -67.215  26.2380  0.00  0.00     0.000 S
ATOM     37   O  SGN C   2      42.903 -66.371  25.3640  0.00  0.00     0.000 OA
ATOM     38   O  SGN C   2      42.493 -67.118  27.6270  0.00  0.00     0.000 OA
ATOM     39   O  SGN C   2      41.967 -68.570  25.7680  0.00  0.00     0.000 OA
ENDBRANCH 24 34
BRANCH 20 40
ATOM     40  O4  IDS C   3      38.357 -62.714  24.8110  0.00  0.00     0.000 O
BRANCH 40 44
ATOM     41  C1  IDS C   3      38.587 -60.113  27.1800  0.00  0.00     0.000 C
ATOM     42  C2  IDS C   3      37.723 -59.979  25.9290  0.00  0.00     0.000 C
ATOM     43  C3  IDS C   3      38.539 -60.310  24.6820  0.00  0.00     0.000 C
ATOM     44  C4  IDS C   3      39.285 -61.627  24.8310  0.00  0.00     0.000 C
ATOM     45  C5  IDS C   3      40.072 -61.638  26.1580  0.00  0.00     0.000 C
ATOM     46  O5  IDS C   3      39.173 -61.410  27.2460  0.00  0.00     0.000 O
ATOM     47   O  IDS C   3      39.463 -59.255  24.4270  0.00  0.00     0.000 O
ATOM     49  HD  IDS C   3      38.666 -59.594  24.4280  0.00  0.00     0.000 HD
BRANCH 42 49
ATOM     49   O  IDS C   3      36.572 -60.908  26.0030  0.00  0.00     0.000 O
ATOM     50   S  IDS C   3      35.085 -60.323  26.1180  0.00  0.00     0.000 S
ATOM     51   O  IDS C   3      34.839 -59.777  24.8010  0.00  0.00     0.000 OA
ATOM     52   O  IDS C   3      35.045 -59.309  27.1590  0.00  0.00     0.000 OA
ATOM     53   O  IDS C   3      34.236 -61.453  26.4270  0.00  0.00     0.000 OA
ENDBRANCH 42 49
BRANCH 45 54
ATOM     54   C  IDS C   3      40.818 -62.940  26.4060  0.00  0.00     0.000 C
ATOM     55   O  IDS C   3      41.639 -63.317  25.6100  0.00  0.00     0.000 OA
ATOM     56   O  IDS C   3      40.571 -63.602  27.3940  0.00  0.00     0.000 OA
ENDBRANCH 45 54
BRANCH 41 57
ATOM     57  O4  SGN C   4      39.337 -59.007  27.2580  0.00  0.00     0.000 O
BRANCH 57 61
ATOM     58  C1  SGN C   4      42.439 -57.524  29.6480  0.00  0.00     0.000 C
ATOM     59  C2  SGN C   4      42.624 -58.938  29.0730  0.00  0.00     0.000 C
ATOM     60  C3  SGN C   4      41.651 -59.198  27.9150  0.00  0.00     0.000 C
ATOM     61  C4  SGN C   4      40.230 -58.914  28.3730  0.00  0.00     0.000 C
ATOM     62  C5  SGN C   4      40.126 -57.506  28.9580  0.00  0.00     0.000 C
ATOM     63  O5  SGN C   4      41.083 -57.327  30.0200  0.00  0.00     0.000 O
BRANCH 59 66
ATOM     64   N  SGN C   4      44.063 -59.027  28.8000  0.00  0.00     0.000 N
ATOM     66  HD  SGN C   4      43.206 -59.152  28.7920  0.00  0.00     0.000 HD
ATOM     66   O  SGN C   4      46.253 -60.082  28.9450  0.00  0.00     0.000 OA
ATOM     67   O  SGN C   4      44.767 -60.067  30.9030  0.00  0.00     0.000 OA
ATOM     68   S  SGN C   4      44.904 -60.275  29.3550  0.00  0.00     0.000 S
ATOM     69   O  SGN C   4      44.229 -61.468  28.9890  0.00  0.00     0.000 OA
ENDBRANCH 59 66
BRANCH 62 70
ATOM     70   C  SGN C   4      38.760 -57.248  29.5420  0.00  0.00     0.000 C
ATOM     71   S  SGN C   4      36.685 -55.757  29.3390  0.00  0.00     0.000 S
ATOM     72   O  SGN C   4      35.846 -56.935  29.4400  0.00  0.00     0.000 OA
ATOM     73   O  SGN C   4      37.000 -55.164  30.6230  0.00  0.00     0.000 OA
ATOM     74   O  SGN C   4      36.226 -54.805  28.3540  0.00  0.00     0.000 OA
ATOM     75   O  SGN C   4      38.058 -56.288  28.7430  0.00  0.00     0.000 O
ENDBRANCH 62 70
ENDBRANCH 57 61
ENDBRANCH 41 57
ENDBRANCH 40 44
ENDBRANCH 20 40
ENDBRANCH 19 23
ENDBRANCH 1 19
TORSDOF 14
ENDMDL
MODEL 85
REMARK VINA RESULT:      -5.0     26.586     30.675
ROOT
ATOM      1  C1  IDS C   1      32.334 -62.380  22.3800  0.00  0.00     0.000 C
ATOM      2  C2  IDS C   1      33.212 -63.550  21.9720  0.00  0.00     0.000 C
ATOM      3  C3  IDS C   1      33.049 -64.713  22.9430  0.00  0.00     0.000 C
ATOM      4  C4  IDS C   1      31.574 -65.061  23.1460  0.00  0.00     0.000 C
ATOM      5  C5  IDS C   1      30.764 -63.787  23.4630  0.00  0.00     0.000 C
ATOM      6  O5  IDS C   1      30.973 -62.801  22.4570  0.00  0.00     0.000 O
ATOM      7   O  IDS C   1      33.661 -64.380  24.1910  0.00  0.00     0.000 O
ATOM      9  HD  IDS C   1      33.059 -64.946  24.4530  0.00  0.00     0.000 HD
ATOM      9   O  IDS C   1      31.067 -65.661  21.9450  0.00  0.00     0.000 O
ATOM     11  HD  IDS C   1      30.465 -66.226  22.2070  0.00  0.00     0.000 HD
ENDROOT
BRANCH 2 11
ATOM     11   O  IDS C   1      32.828 -64.032  20.6260  0.00  0.00     0.000 O
ATOM     12   S  IDS C   1      33.407 -63.328  19.3140  0.00  0.00     0.000 S
ATOM     13   O  IDS C   1      33.535 -64.441  18.4000  0.00  0.00     0.000 OA
ATOM     14   O  IDS C   1      34.672 -62.705  19.6240  0.00  0.00     0.000 OA
ATOM     15   O  IDS C   1      32.388 -62.383  18.9300  0.00  0.00     0.000 OA
ENDBRANCH 2 11
BRANCH 5 16
ATOM     16   C  IDS C   1      29.271 -64.036  23.5640  0.00  0.00     0.000 C
ATOM     17   O  IDS C   1      28.882 -65.058  24.0880  0.00  0.00     0.000 OA
ATOM     18   O  IDS C   1      28.484 -63.246  23.1200  0.00  0.00     0.000 OA
ENDBRANCH 5 16
BRANCH 1 19
ATOM     19  O4  SGN C   2      32.750 -61.567  23.3550  0.00  0.00     0.000 O
BRANCH 19 23
ATOM     20  C1  SGN C   2      32.940 -57.611  24.6760  0.00  0.00     0.000 C
ATOM     21  C2  SGN C   2      31.554 -58.268  24.6790  0.00  0.00     0.000 C
ATOM     22  C3  SGN C   2      31.703 -59.786  24.6010  0.00  0.00     0.000 C
ATOM     23  C4  SGN C   2      32.509 -60.159  23.3610  0.00  0.00     0.000 C
ATOM     24  C5  SGN C   2      33.844 -59.409  23.3650  0.00  0.00     0.000 C
ATOM     25  O5  SGN C   2      33.609 -57.995  23.4860  0.00  0.00     0.000 O
ATOM     26   O  SGN C   2      30.425 -60.412  24.5870  0.00  0.00     0.000 O
ATOM     28  HD  SGN C   2      29.616 -60.714  24.6520  0.00  0.00     0.000 HD
BRANCH 21 30
ATOM     28   N  SGN C   2      31.212 -57.237  25.6670  0.00  0.00     0.000 N
ATOM     30  HD  SGN C   2      30.834 -57.491  26.4040  0.00  0.00     0.000 HD
ATOM     30   S  SGN C   2      29.752 -56.584  25.7130  0.00  0.00     0.000 S
ATOM     31   O  SGN C   2      28.851 -57.683  25.8020  0.00  0.00     0.000 OA
ATOM     32   O  SGN C   2      29.741 -55.578  26.7080  0.00  0.00     0.000 OA
ATOM     33   O  SGN C   2      29.615 -55.862  24.3290  0.00  0.00     0.000 OA
ENDBRANCH 21 30
BRANCH 24 34
ATOM     34   C  SGN C   2      34.650 -59.601  22.1010  0.00  0.00     0.000 C
ATOM     35   O  SGN C   2      34.676 -58.362  21.3710  0.00  0.00     0.000 O
ATOM     36   S  SGN C   2      35.049 -58.442  19.8210  0.00  0.00     0.000 S
ATOM     37   O  SGN C   2      34.122 -59.410  19.2680  0.00  0.00     0.000 OA
ATOM     38   O  SGN C   2      34.859 -57.107  19.3060  0.00  0.00     0.000 OA
ATOM     39   O  SGN C   2      36.423 -58.878  19.8150  0.00  0.00     0.000 OA
ENDBRANCH 24 34
BRANCH 20 40
ATOM     40  O4  IDS C   3      33.733 -57.844  25.7180  0.00  0.00     0.000 O
BRANCH 40 44
ATOM     41  C1  IDS C   3      35.490 -58.078  28.7660  0.00  0.00     0.000 C
ATOM     42  C2  IDS C   3      34.096 -57.460  28.6940  0.00  0.00     0.000 C
ATOM     43  C3  IDS C   3      34.048 -56.382  27.6140  0.00  0.00     0.000 C
ATOM     44  C4  IDS C   3      34.619 -56.881  26.2950  0.00  0.00     0.000 C
ATOM     45  C5  IDS C   3      36.003 -57.521  26.5300  0.00  0.00     0.000 C
ATOM     46  O5  IDS C   3      35.884 -58.574  27.4890  0.00  0.00     0.000 O
ATOM     47   O  IDS C   3      34.775 -55.238  28.0550  0.00  0.00     0.000 O
ATOM     49  HD  IDS C   3      34.083 -55.758  28.0650  0.00  0.00     0.000 HD
BRANCH 42 49
ATOM     49   O  IDS C   3      33.094 -58.502  28.3680  0.00  0.00     0.000 O
ATOM     50   S  IDS C   3      32.237 -59.173  29.5440  0.00  0.00     0.000 S
ATOM     51   O  IDS C   3      31.332 -58.118  29.9420  0.00  0.00     0.000 OA
ATOM     52   O  IDS C   3      33.127 -59.580  30.6190  0.00  0.00     0.000 OA
ATOM     53   O  IDS C   3      31.557 -60.303  28.9450  0.00  0.00     0.000 OA
ENDBRANCH 42 49
BRANCH 45 54
ATOM     54   C  IDS C   3      36.629 -58.083  25.2640  0.00  0.00     0.000 C
ATOM     55   O  IDS C   3      36.945 -59.244  25.2180  0.00  0.00     0.000 OA
ATOM     56   O  IDS C   3      36.825 -57.356  24.3090  0.00  0.00     0.000 OA
ENDBRANCH 45 54
BRANCH 41 57
ATOM     57  O4  SGN C   4      36.262 -57.223  29.4480  0.00  0.00     0.000 O
BRANCH 57 61
ATOM     58  C1  SGN C   4      39.982 -57.239  31.3690  0.00  0.00     0.000 C
ATOM     59  C2  SGN C   4      39.963 -57.674  29.8950  0.00  0.00     0.000 C
ATOM     60  C3  SGN C   4      38.662 -57.241  29.2050  0.00  0.00     0.000 C
ATOM     61  C4  SGN C   4      37.472 -57.751  30.0000  0.00  0.00     0.000 C
ATOM     62  C5  SGN C   4      37.571 -57.307  31.4590  0.00  0.00     0.000 C
ATOM     63  O5  SGN C   4      38.824 -57.725  32.0320  0.00  0.00     0.000 O
BRANCH 59 66
ATOM     64   N  SGN C   4      41.248 -57.181  29.3890  0.00  0.00     0.000 N
ATOM     66  HD  SGN C   4      40.425 -57.443  29.4530  0.00  0.00     0.000 HD
ATOM     66   O  SGN C   4      43.344 -57.397  28.1670  0.00  0.00     0.000 OA
ATOM     67   O  SGN C   4      42.520 -59.270  29.5300  0.00  0.00     0.000 OA
ATOM     68   S  SGN C   4      42.176 -58.140  28.4980  0.00  0.00     0.000 S
ATOM     69   O  SGN C   4      41.383 -58.690  27.4590  0.00  0.00     0.000 OA
ENDBRANCH 59 66
BRANCH 62 70
ATOM     70   C  SGN C   4      36.474 -57.911  32.2980  0.00  0.00     0.000 C
ATOM     71   S  SGN C   4      35.917 -59.869  33.8570  0.00  0.00     0.000 S
ATOM     72   O  SGN C   4      35.287 -58.940  34.7740  0.00  0.00     0.000 OA
ATOM     73   O  SGN C   4      35.009 -60.392  32.8560  0.00  0.00     0.000 OA
ATOM     74   O  SGN C   4      36.708 -60.884  34.5140  0.00  0.00     0.000 OA
ATOM     75   O  SGN C   4      36.991 -58.999  33.0740  0.00  0.00     0.000 O
ENDBRANCH 62 70
ENDBRANCH 57 61
ENDBRANCH 41 57
ENDBRANCH 40 44
ENDBRANCH 20 40
ENDBRANCH 19 23
ENDBRANCH 1 19
TORSDOF 14
ENDMDL
MODEL 86
REMARK VINA RESULT:      -4.9     21.220     25.077
ROOT
ATOM      1  C1  IDS C   1      10.333 -49.078  41.1010  0.00  0.00     0.000 C
ATOM      2  C2  IDS C   1       9.863 -49.054  42.5440  0.00  0.00     0.000 C
ATOM      3  C3  IDS C   1      10.111 -47.687  43.1710  0.00  0.00     0.000 C
ATOM      4  C4  IDS C   1       9.547 -46.568  42.2960  0.00  0.00     0.000 C
ATOM      5  C5  IDS C   1      10.013 -46.745  40.8370  0.00  0.00     0.000 C
ATOM      6  O5  IDS C   1       9.681 -48.046  40.3630  0.00  0.00     0.000 O
ATOM      7   O  IDS C   1      11.514 -47.505  43.3750  0.00  0.00     0.000 O
ATOM      9  HD  IDS C   1      11.255 -46.682  43.2950  0.00  0.00     0.000 HD
ATOM      9   O  IDS C   1       8.113 -46.613  42.3470  0.00  0.00     0.000 O
ATOM     11  HD  IDS C   1       7.855 -45.790  42.2680  0.00  0.00     0.000 HD
ENDROOT
BRANCH 2 11
ATOM     11   O  IDS C   1       8.409 -49.322  42.6120  0.00  0.00     0.000 O
ATOM     12   S  IDS C   1       7.814 -50.306  43.7220  0.00  0.00     0.000 S
ATOM     13   O  IDS C   1       6.534 -49.699  44.0150  0.00  0.00     0.000 OA
ATOM     14   O  IDS C   1       8.699 -50.333  44.8610  0.00  0.00     0.000 OA
ATOM     15   O  IDS C   1       7.705 -51.580  43.0560  0.00  0.00     0.000 OA
ENDBRANCH 2 11
BRANCH 5 16
ATOM     16   C  IDS C   1       9.399 -45.735  39.8840  0.00  0.00     0.000 C
ATOM     17   O  IDS C   1       9.316 -46.017  38.7080  0.00  0.00     0.000 OA
ATOM     18   O  IDS C   1       9.016 -44.669  40.2810  0.00  0.00     0.000 OA
ENDBRANCH 5 16
BRANCH 1 19
ATOM     19  O4  SGN C   2      11.634 -49.246  40.8450  0.00  0.00     0.000 O
BRANCH 19 23
ATOM     20  C1  SGN C   2      14.440 -51.372  38.6010  0.00  0.00     0.000 C
ATOM     21  C2  SGN C   2      13.609 -50.326  37.8470  0.00  0.00     0.000 C
ATOM     22  C3  SGN C   2      12.971 -49.359  38.8410  0.00  0.00     0.000 C
ATOM     23  C4  SGN C   2      12.131 -50.138  39.8460  0.00  0.00     0.000 C
ATOM     24  C5  SGN C   2      12.985 -51.224  40.5070  0.00  0.00     0.000 C
ATOM     25  O5  SGN C   2      13.580 -52.058  39.4960  0.00  0.00     0.000 O
ATOM     26   O  SGN C   2      12.183 -48.391  38.1580  0.00  0.00     0.000 O
ATOM     28  HD  SGN C   2      11.784 -47.802  37.6640  0.00  0.00     0.000 HD
BRANCH 21 30
ATOM     28   N  SGN C   2      14.220 -49.548  36.7620  0.00  0.00     0.000 N
ATOM     30  HD  SGN C   2      13.694 -49.128  36.2170  0.00  0.00     0.000 HD
ATOM     30   S  SGN C   2      14.429 -50.176  35.3050  0.00  0.00     0.000 S
ATOM     31   O  SGN C   2      13.147 -50.658  34.9160  0.00  0.00     0.000 OA
ATOM     32   O  SGN C   2      15.103 -49.228  34.4990  0.00  0.00     0.000 OA
ATOM     33   O  SGN C   2      15.423 -51.364  35.5430  0.00  0.00     0.000 OA
ENDBRANCH 21 30
BRANCH 24 34
ATOM     34   C  SGN C   2      12.201 -52.145  41.4120  0.00  0.00     0.000 C
ATOM     35   O  SGN C   2      12.478 -51.801  42.7810  0.00  0.00     0.000 O
ATOM     36   S  SGN C   2      12.152 -52.906  43.8870  0.00  0.00     0.000 S
ATOM     37   O  SGN C   2      12.858 -54.092  43.4420  0.00  0.00     0.000 OA
ATOM     38   O  SGN C   2      12.653 -52.372  45.1300  0.00  0.00     0.000 OA
ATOM     39   O  SGN C   2      10.716 -53.030  43.8430  0.00  0.00     0.000 OA
ENDBRANCH 24 34
BRANCH 20 40
ATOM     40  O4  IDS C   3      15.511 -50.944  39.2650  0.00  0.00     0.000 O
BRANCH 40 44
ATOM     41  C1  IDS C   3      18.838 -49.979  39.9200  0.00  0.00     0.000 C
ATOM     42  C2  IDS C   3      18.394 -50.419  38.5280  0.00  0.00     0.000 C
ATOM     43  C3  IDS C   3      17.681 -51.767  38.5990  0.00  0.00     0.000 C
ATOM     44  C4  IDS C   3      16.601 -51.776  39.6700  0.00  0.00     0.000 C
ATOM     45  C5  IDS C   3      17.180 -51.263  41.0050  0.00  0.00     0.000 C
ATOM     46  O5  IDS C   3      17.729 -49.957  40.8150  0.00  0.00     0.000 O
ATOM     47   O  IDS C   3      18.634 -52.794  38.8620  0.00  0.00     0.000 O
ATOM     49  HD  IDS C   3      18.250 -52.218  38.3420  0.00  0.00     0.000 HD
BRANCH 42 49
ATOM     49   O  IDS C   3      17.465 -49.421  37.9500  0.00  0.00     0.000 O
ATOM     50   S  IDS C   3      17.966 -48.457  36.7730  0.00  0.00     0.000 S
ATOM     51   O  IDS C   3      18.066 -49.345  35.6350  0.00  0.00     0.000 OA
ATOM     52   O  IDS C   3      19.247 -47.874  37.1390  0.00  0.00     0.000 OA
ATOM     53   O  IDS C   3      16.936 -47.452  36.6150  0.00  0.00     0.000 OA
ENDBRANCH 42 49
BRANCH 45 54
ATOM     54   C  IDS C   3      16.152 -51.202  42.1240  0.00  0.00     0.000 C
ATOM     55   O  IDS C   3      15.722 -52.223  42.5950  0.00  0.00     0.000 OA
ATOM     56   O  IDS C   3      15.756 -50.126  42.5260  0.00  0.00     0.000 OA
ENDBRANCH 45 54
BRANCH 41 57
ATOM     57  O4  SGN C   4      19.951 -50.663  40.2110  0.00  0.00     0.000 O
BRANCH 57 61
ATOM     58  C1  SGN C   4      22.694 -50.732  43.3730  0.00  0.00     0.000 C
ATOM     59  C2  SGN C   4      21.235 -50.408  43.7310  0.00  0.00     0.000 C
ATOM     60  C3  SGN C   4      20.283 -50.811  42.5960  0.00  0.00     0.000 C
ATOM     61  C4  SGN C   4      20.742 -50.170  41.2970  0.00  0.00     0.000 C
ATOM     62  C5  SGN C   4      22.206 -50.510  41.0200  0.00  0.00     0.000 C
ATOM     63  O5  SGN C   4      23.035 -50.127  42.1340  0.00  0.00     0.000 O
BRANCH 59 66
ATOM     64   N  SGN C   4      21.114 -50.999  45.0670  0.00  0.00     0.000 N
ATOM     66  HD  SGN C   4      20.949 -50.716  44.2660  0.00  0.00     0.000 HD
ATOM     66   O  SGN C   4      20.376 -51.020  47.3890  0.00  0.00     0.000 OA
ATOM     67   O  SGN C   4      21.212 -48.937  46.3860  0.00  0.00     0.000 OA
ATOM     68   S  SGN C   4      20.317 -50.213  46.2180  0.00  0.00     0.000 S
ATOM     69   O  SGN C   4      19.054 -49.826  45.7020  0.00  0.00     0.000 OA
ENDBRANCH 59 66
BRANCH 62 70
ATOM     70   C  SGN C   4      22.725 -49.778  39.8080  0.00  0.00     0.000 C
ATOM     71   S  SGN C   4      23.552 -47.498  38.9790  0.00  0.00     0.000 S
ATOM     72   O  SGN C   4      24.657 -48.157  38.3110  0.00  0.00     0.000 OA
ATOM     73   O  SGN C   4      22.368 -47.382  38.1520  0.00  0.00     0.000 OA
ATOM     74   O  SGN C   4      23.927 -46.267  39.6360  0.00  0.00     0.000 OA
ATOM     75   O  SGN C   4      23.167 -48.466  40.1770  0.00  0.00     0.000 O
ENDBRANCH 62 70
ENDBRANCH 57 61
ENDBRANCH 41 57
ENDBRANCH 40 44
ENDBRANCH 20 40
ENDBRANCH 19 23
ENDBRANCH 1 19
TORSDOF 14
ENDMDL
MODEL 87
REMARK VINA RESULT:      -4.9     22.466     27.174
ROOT
ATOM      1  C1  IDS C   1       6.496 -17.217  10.9430  0.00  0.00     0.000 C
ATOM      2  C2  IDS C   1       5.632 -16.318  10.0770  0.00  0.00     0.000 C
ATOM      3  C3  IDS C   1       5.510 -16.881   8.6660  0.00  0.00     0.000 C
ATOM      4  C4  IDS C   1       5.080 -18.348   8.6920  0.00  0.00     0.000 C
ATOM      5  C5  IDS C   1       5.964 -19.145   9.6720  0.00  0.00     0.000 C
ATOM      6  O5  IDS C   1       5.954 -18.537  10.9590  0.00  0.00     0.000 O
ATOM      7   O  IDS C   1       6.758 -16.738   7.9860  0.00  0.00     0.000 O
ATOM      9  HD  IDS C   1       6.429 -17.423   7.5720  0.00  0.00     0.000 HD
ATOM      9   O  IDS C   1       3.710 -18.425   9.1150  0.00  0.00     0.000 O
ATOM     11  HD  IDS C   1       3.380 -19.110   8.7010  0.00  0.00     0.000 HD
ENDROOT
BRANCH 2 11
ATOM     11   O  IDS C   1       4.268 -16.222  10.6420  0.00  0.00     0.000 O
ATOM     12   S  IDS C   1       3.696 -14.821  11.1540  0.00  0.00     0.000 S
ATOM     13   O  IDS C   1       2.292 -14.922  10.8220  0.00  0.00     0.000 OA
ATOM     14   O  IDS C   1       4.364 -13.748  10.4570  0.00  0.00     0.000 OA
ATOM     15   O  IDS C   1       3.951 -14.821  12.5730  0.00  0.00     0.000 OA
ENDBRANCH 2 11
BRANCH 5 16
ATOM     16   C  IDS C   1       5.523 -20.588   9.8390  0.00  0.00     0.000 C
ATOM     17   O  IDS C   1       4.797 -21.078   9.0000  0.00  0.00     0.000 OA
ATOM     18   O  IDS C   1       5.870 -21.231  10.7900  0.00  0.00     0.000 OA
ENDBRANCH 5 16
BRANCH 1 19
ATOM     19  O4  SGN C   2       7.826 -17.133  10.8410  0.00  0.00     0.000 O
BRANCH 19 23
ATOM     20  C1  SGN C   2      11.472 -18.033  12.6640  0.00  0.00     0.000 C
ATOM     21  C2  SGN C   2      10.573 -19.223  12.3060  0.00  0.00     0.000 C
ATOM     22  C3  SGN C   2       9.523 -18.788  11.2870  0.00  0.00     0.000 C
ATOM     23  C4  SGN C   2       8.723 -17.615  11.8420  0.00  0.00     0.000 C
ATOM     24  C5  SGN C   2       9.674 -16.491  12.2640  0.00  0.00     0.000 C
ATOM     25  O5  SGN C   2      10.653 -17.001  13.1880  0.00  0.00     0.000 O
ATOM     26   O  SGN C   2       8.670 -19.877  10.9550  0.00  0.00     0.000 O
ATOM     28  HD  SGN C   2       8.242 -20.604  10.7580  0.00  0.00     0.000 HD
BRANCH 21 30
ATOM     28   N  SGN C   2      11.823 -19.945  12.5780  0.00  0.00     0.000 N
ATOM     30  HD  SGN C   2      12.213 -20.345  11.9160  0.00  0.00     0.000 HD
ATOM     30   S  SGN C   2      11.823 -21.514  12.8910  0.00  0.00     0.000 S
ATOM     31   O  SGN C   2      11.122 -22.115  11.8060  0.00  0.00     0.000 OA
ATOM     32   O  SGN C   2      13.149 -21.914  13.1850  0.00  0.00     0.000 OA
ATOM     33   O  SGN C   2      11.002 -21.636  14.2200  0.00  0.00     0.000 OA
ENDBRANCH 21 30
BRANCH 24 34
ATOM     34   C  SGN C   2       8.984 -15.344  12.9630  0.00  0.00     0.000 C
ATOM     35   O  SGN C   2       9.020 -14.187  12.1100  0.00  0.00     0.000 O
ATOM     36   S  SGN C   2       8.788 -12.767  12.8030  0.00  0.00     0.000 S
ATOM     37   O  SGN C   2       9.762 -12.716  13.8750  0.00  0.00     0.000 OA
ATOM     38   O  SGN C   2       9.019 -11.787  11.7690  0.00  0.00     0.000 OA
ATOM     39   O  SGN C   2       7.420 -12.821  13.2580  0.00  0.00     0.000 OA
ENDBRANCH 24 34
BRANCH 20 40
ATOM     40  O4  IDS C   3      12.243 -17.533  11.7010  0.00  0.00     0.000 O
BRANCH 40 44
ATOM     41  C1  IDS C   3      14.653 -16.749   9.2510  0.00  0.00     0.000 C
ATOM     42  C2  IDS C   3      14.583 -18.135   9.8860  0.00  0.00     0.000 C
ATOM     43  C3  IDS C   3      14.589 -18.023  11.4080  0.00  0.00     0.000 C
ATOM     44  C4  IDS C   3      13.561 -17.017  11.9030  0.00  0.00     0.000 C
ATOM     45  C5  IDS C   3      13.720 -15.685  11.1400  0.00  0.00     0.000 C
ATOM     46  O5  IDS C   3      13.599 -15.922   9.7360  0.00  0.00     0.000 O
ATOM     47   O  IDS C   3      15.890 -17.644  11.8490  0.00  0.00     0.000 O
ATOM     49  HD  IDS C   3      15.322 -18.219  11.5400  0.00  0.00     0.000 HD
BRANCH 42 49
ATOM     49   O  IDS C   3      13.340 -18.825   9.4670  0.00  0.00     0.000 O
ATOM     50   S  IDS C   3      13.417 -20.317   8.8890  0.00  0.00     0.000 S
ATOM     51   O  IDS C   3      13.722 -21.112  10.0590  0.00  0.00     0.000 OA
ATOM     52   O  IDS C   3      14.459 -20.391   7.8780  0.00  0.00     0.000 OA
ATOM     53   O  IDS C   3      12.107 -20.600   8.3420  0.00  0.00     0.000 OA
ENDBRANCH 42 49
BRANCH 45 54
ATOM     54   C  IDS C   3      12.701 -14.632  11.5480  0.00  0.00     0.000 C
ATOM     55   O  IDS C   3      11.996 -14.130  10.7110  0.00  0.00     0.000 OA
ATOM     56   O  IDS C   3      12.614 -14.290  12.7110  0.00  0.00     0.000 OA
ENDBRANCH 45 54
BRANCH 41 57
ATOM     57  O4  SGN C   4      15.931 -16.354   9.3140  0.00  0.00     0.000 O
BRANCH 57 61
ATOM     58  C1  SGN C   4      18.304 -13.212   7.8910  0.00  0.00     0.000 C
ATOM     59  C2  SGN C   4      17.189 -12.842   8.8820  0.00  0.00     0.000 C
ATOM     60  C3  SGN C   4      16.677 -14.082   9.6290  0.00  0.00     0.000 C
ATOM     61  C4  SGN C   4      16.264 -15.145   8.6250  0.00  0.00     0.000 C
ATOM     62  C5  SGN C   4      17.408 -15.441   7.6560  0.00  0.00     0.000 C
ATOM     63  O5  SGN C   4      17.852 -14.232   7.0120  0.00  0.00     0.000 O
BRANCH 59 66
ATOM     64   N  SGN C   4      17.494 -11.438   9.1730  0.00  0.00     0.000 N
ATOM     66  HD  SGN C   4      17.533 -12.300   9.1070  0.00  0.00     0.000 HD
ATOM     66   O  SGN C   4      17.744  -9.516  10.6490  0.00  0.00     0.000 OA
ATOM     67   O  SGN C   4      15.876 -11.080  10.9770  0.00  0.00     0.000 OA
ATOM     68   S  SGN C   4      17.405 -10.898  10.6810  0.00  0.00     0.000 S
ATOM     69   O  SGN C   4      18.144 -11.776  11.5150  0.00  0.00     0.000 OA
ENDBRANCH 59 66
BRANCH 62 70
ATOM     70   C  SGN C   4      16.980 -16.393   6.5680  0.00  0.00     0.000 C
ATOM     71   S  SGN C   4      15.155 -16.838   4.8240  0.00  0.00     0.000 S
ATOM     72   O  SGN C   4      16.182 -17.125   3.8430  0.00  0.00     0.000 OA
ATOM     73   O  SGN C   4      14.738 -18.005   5.5760  0.00  0.00     0.000 OA
ATOM     74   O  SGN C   4      14.056 -16.059   4.3000  0.00  0.00     0.000 OA
ATOM     75   O  SGN C   4      15.850 -15.862   5.8660  0.00  0.00     0.000 O
ENDBRANCH 62 70
ENDBRANCH 57 61
ENDBRANCH 41 57
ENDBRANCH 40 44
ENDBRANCH 20 40
ENDBRANCH 19 23
ENDBRANCH 1 19
TORSDOF 14
ENDMDL
MODEL 88
REMARK VINA RESULT:      -4.8     23.184     27.563
ROOT
ATOM      1  C1  IDS C   1      18.809 -39.925   4.9910  0.00  0.00     0.000 C
ATOM      2  C2  IDS C   1      17.594 -40.825   4.8500  0.00  0.00     0.000 C
ATOM      3  C3  IDS C   1      17.389 -41.657   6.1090  0.00  0.00     0.000 C
ATOM      4  C4  IDS C   1      17.390 -40.777   7.3590  0.00  0.00     0.000 C
ATOM      5  C5  IDS C   1      18.615 -39.840   7.3510  0.00  0.00     0.000 C
ATOM      6  O5  IDS C   1      18.662 -39.092   6.1400  0.00  0.00     0.000 O
ATOM      7   O  IDS C   1      18.412 -42.650   6.1960  0.00  0.00     0.000 O
ATOM      9  HD  IDS C   1      18.217 -42.548   7.0340  0.00  0.00     0.000 HD
ATOM      9   O  IDS C   1      16.189 -39.989   7.3770  0.00  0.00     0.000 O
ATOM     11  HD  IDS C   1      15.994 -39.887   8.2140  0.00  0.00     0.000 HD
ENDROOT
BRANCH 2 11
ATOM     11   O  IDS C   1      16.376 -40.010   4.6460  0.00  0.00     0.000 O
ATOM     12   S  IDS C   1      15.343 -40.368   3.4800  0.00  0.00     0.000 S
ATOM     13   O  IDS C   1      14.074 -40.009   4.0740  0.00  0.00     0.000 OA
ATOM     14   O  IDS C   1      15.442 -41.774   3.1690  0.00  0.00     0.000 OA
ATOM     15   O  IDS C   1      15.725 -39.515   2.3820  0.00  0.00     0.000 OA
ENDBRANCH 2 11
BRANCH 5 16
ATOM     16   C  IDS C   1      18.624 -38.854   8.5040  0.00  0.00     0.000 C
ATOM     17   O  IDS C   1      17.800 -38.977   9.3850  0.00  0.00     0.000 OA
ATOM     18   O  IDS C   1      19.421 -37.957   8.5410  0.00  0.00     0.000 OA
ENDBRANCH 5 16
BRANCH 1 19
ATOM     19  O4  SGN C   2      20.025 -40.441   4.7950  0.00  0.00     0.000 O
BRANCH 19 23
ATOM     20  C1  SGN C   2      24.001 -39.486   3.9520  0.00  0.00     0.000 C
ATOM     21  C2  SGN C   2      23.607 -39.534   5.4330  0.00  0.00     0.000 C
ATOM     22  C3  SGN C   2      22.297 -40.301   5.5940  0.00  0.00     0.000 C
ATOM     23  C4  SGN C   2      21.215 -39.653   4.7370  0.00  0.00     0.000 C
ATOM     24  C5  SGN C   2      21.694 -39.550   3.2860  0.00  0.00     0.000 C
ATOM     25  O5  SGN C   2      22.952 -38.854   3.2350  0.00  0.00     0.000 O
ATOM     26   O  SGN C   2      21.909 -40.342   6.9620  0.00  0.00     0.000 O
ATOM     28  HD  SGN C   2      21.781 -40.380   7.8180  0.00  0.00     0.000 HD
BRANCH 21 30
ATOM     28   N  SGN C   2      24.595 -40.044   6.3930  0.00  0.00     0.000 N
ATOM     30  HD  SGN C   2      24.443 -39.918   7.2370  0.00  0.00     0.000 HD
ATOM     30   S  SGN C   2      25.761 -39.107   6.9600  0.00  0.00     0.000 S
ATOM     31   O  SGN C   2      25.101 -37.958   7.4820  0.00  0.00     0.000 OA
ATOM     32   O  SGN C   2      26.596 -39.885   7.7980  0.00  0.00     0.000 OA
ATOM     33   O  SGN C   2      26.603 -38.738   5.6910  0.00  0.00     0.000 OA
ENDBRANCH 21 30
BRANCH 24 34
ATOM     34   C  SGN C   2      20.748 -38.788   2.3880  0.00  0.00     0.000 C
ATOM     35   O  SGN C   2      20.641 -37.435   2.8640  0.00  0.00     0.000 O
ATOM     36   S  SGN C   2      19.372 -36.595   2.3820  0.00  0.00     0.000 S
ATOM     37   O  SGN C   2      18.230 -37.416   2.7350  0.00  0.00     0.000 OA
ATOM     38   O  SGN C   2      19.430 -35.350   3.1090  0.00  0.00     0.000 OA
ATOM     39   O  SGN C   2      19.570 -36.448   0.9610  0.00  0.00     0.000 OA
ENDBRANCH 24 34
BRANCH 20 40
ATOM     40  O4  IDS C   3      24.305 -40.638   3.3580  0.00  0.00     0.000 O
BRANCH 40 44
ATOM     41  C1  IDS C   3      26.191 -43.228   1.8880  0.00  0.00     0.000 C
ATOM     42  C2  IDS C   3      26.858 -41.981   2.4610  0.00  0.00     0.000 C
ATOM     43  C3  IDS C   3      26.215 -40.722   1.8840  0.00  0.00     0.000 C
ATOM     44  C4  IDS C   3      24.698 -40.766   1.9900  0.00  0.00     0.000 C
ATOM     45  C5  IDS C   3      24.171 -42.100   1.4190  0.00  0.00     0.000 C
ATOM     46  O5  IDS C   3      24.783 -43.189   2.1110  0.00  0.00     0.000 O
ATOM     47   O  IDS C   3      26.603 -40.574   0.5210  0.00  0.00     0.000 O
ATOM     49  HD  IDS C   3      26.758 -40.533   1.3720  0.00  0.00     0.000 HD
BRANCH 42 49
ATOM     49   O  IDS C   3      26.712 -41.956   3.9350  0.00  0.00     0.000 O
ATOM     50   S  IDS C   3      27.996 -42.186   4.8640  0.00  0.00     0.000 S
ATOM     51   O  IDS C   3      28.750 -40.963   4.7000  0.00  0.00     0.000 OA
ATOM     52   O  IDS C   3      28.724 -43.356   4.4010  0.00  0.00     0.000 OA
ATOM     53   O  IDS C   3      27.488 -42.359   6.2080  0.00  0.00     0.000 OA
ENDBRANCH 42 49
BRANCH 45 54
ATOM     54   C  IDS C   3      22.660 -42.243   1.5220  0.00  0.00     0.000 C
ATOM     55   O  IDS C   3      22.179 -42.832   2.4560  0.00  0.00     0.000 OA
ATOM     56   O  IDS C   3      21.946 -41.778   0.6550  0.00  0.00     0.000 OA
ENDBRANCH 45 54
BRANCH 41 57
ATOM     57  O4  SGN C   4      26.695 -43.414   0.6620  0.00  0.00     0.000 O
BRANCH 57 61
ATOM     58  C1  SGN C   4      26.265 -46.197  -2.4360  0.00  0.00     0.000 C
ATOM     59  C2  SGN C   4      24.979 -45.764  -1.7130  0.00  0.00     0.000 C
ATOM     60  C3  SGN C   4      25.202 -44.475  -0.9090  0.00  0.00     0.000 C
ATOM     61  C4  SGN C   4      26.388 -44.658   0.0240  0.00  0.00     0.000 C
ATOM     62  C5  SGN C   4      27.619 -45.115  -0.7570  0.00  0.00     0.000 C
ATOM     63  O5  SGN C   4      27.330 -46.312  -1.5040  0.00  0.00     0.000 O
BRANCH 59 66
ATOM     64   N  SGN C   4      23.906 -45.664  -2.7080  0.00  0.00     0.000 N
ATOM     66  HD  SGN C   4      24.367 -45.625  -1.9760  0.00  0.00     0.000 HD
ATOM     66   O  SGN C   4      21.806 -46.351  -3.7330  0.00  0.00     0.000 OA
ATOM     67   O  SGN C   4      23.388 -48.049  -2.9230  0.00  0.00     0.000 OA
ATOM     68   S  SGN C   4      22.668 -46.683  -2.6500  0.00  0.00     0.000 S
ATOM     69   O  SGN C   4      22.154 -46.688  -1.3270  0.00  0.00     0.000 OA
ENDBRANCH 59 66
BRANCH 62 70
ATOM     70   C  SGN C   4      28.772 -45.433   0.1620  0.00  0.00     0.000 C
ATOM     71   S  SGN C   4      29.644 -47.155   1.8490  0.00  0.00     0.000 S
ATOM     72   O  SGN C   4      30.947 -47.094   1.2170  0.00  0.00     0.000 OA
ATOM     73   O  SGN C   4      29.475 -46.183   2.9110  0.00  0.00     0.000 OA
ATOM     74   O  SGN C   4      29.242 -48.493   2.2160  0.00  0.00     0.000 OA
ATOM     75   O  SGN C   4      28.619 -46.749   0.7060  0.00  0.00     0.000 O
ENDBRANCH 62 70
ENDBRANCH 57 61
ENDBRANCH 41 57
ENDBRANCH 40 44
ENDBRANCH 20 40
ENDBRANCH 19 23
ENDBRANCH 1 19
TORSDOF 14
ENDMDL
MODEL 89
REMARK VINA RESULT:      -4.8     22.836     27.685
ROOT
ATOM      1  C1  IDS C   1       6.533 -17.068  11.0660  0.00  0.00     0.000 C
ATOM      2  C2  IDS C   1       5.513 -16.449  10.1260  0.00  0.00     0.000 C
ATOM      3  C3  IDS C   1       5.511 -17.167   8.7820  0.00  0.00     0.000 C
ATOM      4  C4  IDS C   1       5.378 -18.679   8.9640  0.00  0.00     0.000 C
ATOM      5  C5  IDS C   1       6.397 -19.183  10.0060  0.00  0.00     0.000 C
ATOM      6  O5  IDS C   1       6.261 -18.460  11.2250  0.00  0.00     0.000 O
ATOM      7   O  IDS C   1       6.711 -16.853   8.0720  0.00  0.00     0.000 O
ATOM      9  HD  IDS C   1       6.525 -17.628   7.7350  0.00  0.00     0.000 HD
ATOM      9   O  IDS C   1       4.048 -18.980   9.4130  0.00  0.00     0.000 O
ATOM     11  HD  IDS C   1       3.862 -19.755   9.0760  0.00  0.00     0.000 HD
ENDROOT
BRANCH 2 11
ATOM     11   O  IDS C   1       4.154 -16.565  10.7000  0.00  0.00     0.000 O
ATOM     12   S  IDS C   1       3.380 -15.270  11.2260  0.00  0.00     0.000 S
ATOM     13   O  IDS C   1       2.006 -15.581  10.9000  0.00  0.00     0.000 OA
ATOM     14   O  IDS C   1       3.873 -14.104  10.5340  0.00  0.00     0.000 OA
ATOM     15   O  IDS C   1       3.642 -15.242  12.6440  0.00  0.00     0.000 OA
ENDBRANCH 2 11
BRANCH 5 16
ATOM     16   C  IDS C   1       6.247 -20.659  10.3250  0.00  0.00     0.000 C
ATOM     17   O  IDS C   1       7.032 -21.445   9.8380  0.00  0.00     0.000 OA
ATOM     18   O  IDS C   1       5.360 -21.049  11.0340  0.00  0.00     0.000 OA
ENDBRANCH 5 16
BRANCH 1 19
ATOM     19  O4  SGN C   2       7.821 -16.736  10.9360  0.00  0.00     0.000 O
BRANCH 19 23
ATOM     20  C1  SGN C   2      11.461 -16.258  12.9220  0.00  0.00     0.000 C
ATOM     21  C2  SGN C   2      10.916 -17.688  12.8270  0.00  0.00     0.000 C
ATOM     22  C3  SGN C   2       9.853 -17.762  11.7340  0.00  0.00     0.000 C
ATOM     23  C4  SGN C   2       8.750 -16.749  12.0210  0.00  0.00     0.000 C
ATOM     24  C5  SGN C   2       9.358 -15.355  12.1930  0.00  0.00     0.000 C
ATOM     25  O5  SGN C   2      10.377 -15.389  13.2090  0.00  0.00     0.000 O
ATOM     26   O  SGN C   2       9.324 -19.080  11.6420  0.00  0.00     0.000 O
ATOM     28  HD  SGN C   2       9.107 -19.918  11.6050  0.00  0.00     0.000 HD
BRANCH 21 30
ATOM     28   N  SGN C   2      12.246 -17.942  13.3960  0.00  0.00     0.000 N
ATOM     30  HD  SGN C   2      12.865 -18.233  12.8650  0.00  0.00     0.000 HD
ATOM     30   S  SGN C   2      12.668 -19.402  13.8970  0.00  0.00     0.000 S
ATOM     31   O  SGN C   2      12.421 -20.266  12.7920  0.00  0.00     0.000 OA
ATOM     32   O  SGN C   2      13.964 -19.326  14.4600  0.00  0.00     0.000 OA
ATOM     33   O  SGN C   2      11.675 -19.702  15.0720  0.00  0.00     0.000 OA
ENDBRANCH 21 30
BRANCH 24 34
ATOM     34   C  SGN C   2       8.360 -14.307  12.6260  0.00  0.00     0.000 C
ATOM     35   O  SGN C   2       8.839 -13.671  13.8240  0.00  0.00     0.000 O
ATOM     36   S  SGN C   2       7.765 -12.891  14.7110  0.00  0.00     0.000 S
ATOM     37   O  SGN C   2       6.718 -13.862  14.9610  0.00  0.00     0.000 OA
ATOM     38   O  SGN C   2       8.467 -12.485  15.9050  0.00  0.00     0.000 OA
ATOM     39   O  SGN C   2       7.355 -11.790  13.8740  0.00  0.00     0.000 OA
ENDBRANCH 24 34
BRANCH 20 40
ATOM     40  O4  IDS C   3      12.136 -15.786  11.8770  0.00  0.00     0.000 O
BRANCH 40 44
ATOM     41  C1  IDS C   3      14.676 -15.144   9.5190  0.00  0.00     0.000 C
ATOM     42  C2  IDS C   3      14.873 -16.149  10.6500  0.00  0.00     0.000 C
ATOM     43  C3  IDS C   3      14.532 -15.510  11.9940  0.00  0.00     0.000 C
ATOM     44  C4  IDS C   3      13.181 -14.813  11.9580  0.00  0.00     0.000 C
ATOM     45  C5  IDS C   3      13.109 -13.869  10.7390  0.00  0.00     0.000 C
ATOM     46  O5  IDS C   3      13.354 -14.614   9.5450  0.00  0.00     0.000 O
ATOM     47   O  IDS C   3      15.551 -14.578  12.3470  0.00  0.00     0.000 O
ATOM     49  HD  IDS C   3      15.247 -15.383  12.2510  0.00  0.00     0.000 HD
BRANCH 42 49
ATOM     49   O  IDS C   3      13.994 -17.324  10.4460  0.00  0.00     0.000 O
ATOM     50   S  IDS C   3      14.639 -18.746  10.0880  0.00  0.00     0.000 S
ATOM     51   O  IDS C   3      15.259 -19.153  11.3300  0.00  0.00     0.000 OA
ATOM     52   O  IDS C   3      15.601 -18.582   9.0110  0.00  0.00     0.000 OA
ATOM     53   O  IDS C   3      13.534 -19.599   9.7050  0.00  0.00     0.000 OA
ENDBRANCH 42 49
BRANCH 45 54
ATOM     54   C  IDS C   3      11.771 -13.159  10.6060  0.00  0.00     0.000 C
ATOM     55   O  IDS C   3      11.139 -13.263   9.5870  0.00  0.00     0.000 OA
ATOM     56   O  IDS C   3      11.353 -12.476  11.5210  0.00  0.00     0.000 OA
ENDBRANCH 45 54
BRANCH 41 57
ATOM     57  O4  SGN C   4      15.747 -14.340   9.5180  0.00  0.00     0.000 O
BRANCH 57 61
ATOM     58  C1  SGN C   4      17.703 -11.768   6.8570  0.00  0.00     0.000 C
ATOM     59  C2  SGN C   4      16.196 -11.540   7.0570  0.00  0.00     0.000 C
ATOM     60  C3  SGN C   4      15.692 -12.244   8.3240  0.00  0.00     0.000 C
ATOM     61  C4  SGN C   4      16.079 -13.713   8.2760  0.00  0.00     0.000 C
ATOM     62  C5  SGN C   4      17.582 -13.864   8.0460  0.00  0.00     0.000 C
ATOM     63  O5  SGN C   4      17.987 -13.159   6.8570  0.00  0.00     0.000 O
BRANCH 59 66
ATOM     64   N  SGN C   4      16.029 -10.085   6.9780  0.00  0.00     0.000 N
ATOM     66  HD  SGN C   4      15.913 -10.927   7.1420  0.00  0.00     0.000 HD
ATOM     66   O  SGN C   4      15.030  -8.044   6.1000  0.00  0.00     0.000 OA
ATOM     67   O  SGN C   4      15.557  -9.903   4.5810  0.00  0.00     0.000 OA
ATOM     68   S  SGN C   4      14.958  -9.459   5.9600  0.00  0.00     0.000 S
ATOM     69   O  SGN C   4      13.717 -10.116   6.1580  0.00  0.00     0.000 OA
ENDBRANCH 59 66
BRANCH 62 70
ATOM     70   C  SGN C   4      17.972 -15.309   7.8610  0.00  0.00     0.000 C
ATOM     71   S  SGN C   4      18.695 -17.036   6.1100  0.00  0.00     0.000 S
ATOM     72   O  SGN C   4      19.732 -17.496   7.0120  0.00  0.00     0.000 OA
ATOM     73   O  SGN C   4      17.433 -17.726   6.2870  0.00  0.00     0.000 OA
ATOM     74   O  SGN C   4      19.124 -16.950   4.7330  0.00  0.00     0.000 OA
ATOM     75   O  SGN C   4      18.439 -15.525   6.5230  0.00  0.00     0.000 O
ENDBRANCH 62 70
ENDBRANCH 57 61
ENDBRANCH 41 57
ENDBRANCH 40 44
ENDBRANCH 20 40
ENDBRANCH 19 23
ENDBRANCH 1 19
TORSDOF 14
ENDMDL
MODEL 90
REMARK VINA RESULT:      -4.8     10.548     16.189
ROOT
ATOM      1  C1  IDS C   1      24.334 -30.193  10.4580  0.00  0.00     0.000 C
ATOM      2  C2  IDS C   1      25.043 -31.409  11.0270  0.00  0.00     0.000 C
ATOM      3  C3  IDS C   1      24.037 -32.469  11.4570  0.00  0.00     0.000 C
ATOM      4  C4  IDS C   1      23.043 -32.775  10.3370  0.00  0.00     0.000 C
ATOM      5  C5  IDS C   1      22.457 -31.465   9.7720  0.00  0.00     0.000 C
ATOM      6  O5  IDS C   1      23.501 -30.585   9.3680  0.00  0.00     0.000 O
ATOM      7   O  IDS C   1      23.349 -32.025  12.6280  0.00  0.00     0.000 O
ATOM      9  HD  IDS C   1      22.756 -32.554  12.2850  0.00  0.00     0.000 HD
ATOM      9   O  IDS C   1      23.724 -33.483   9.2890  0.00  0.00     0.000 O
ATOM     11  HD  IDS C   1      23.131 -34.011   8.9460  0.00  0.00     0.000 HD
ENDROOT
BRANCH 2 11
ATOM     11   O  IDS C   1      25.922 -32.014  10.0010  0.00  0.00     0.000 O
ATOM     12   S  IDS C   1      27.210 -32.859  10.4280  0.00  0.00     0.000 S
ATOM     13   O  IDS C   1      27.265 -33.874   9.4000  0.00  0.00     0.000 OA
ATOM     14   O  IDS C   1      27.007 -33.405  11.7490  0.00  0.00     0.000 OA
ATOM     15   O  IDS C   1      28.299 -31.917  10.3650  0.00  0.00     0.000 OA
ENDBRANCH 2 11
BRANCH 5 16
ATOM     16   C  IDS C   1      21.547 -31.682   8.5760  0.00  0.00     0.000 C
ATOM     17   O  IDS C   1      21.827 -31.148   7.5240  0.00  0.00     0.000 OA
ATOM     18   O  IDS C   1      20.558 -32.356   8.6700  0.00  0.00     0.000 OA
ENDBRANCH 5 16
BRANCH 1 19
ATOM     19  O4  SGN C   2      23.813 -29.294  11.2980  0.00  0.00     0.000 O
BRANCH 19 23
ATOM     20  C1  SGN C   2      22.756 -25.286  11.7880  0.00  0.00     0.000 C
ATOM     21  C2  SGN C   2      21.795 -26.151  10.9630  0.00  0.00     0.000 C
ATOM     22  C3  SGN C   2      22.070 -27.628  11.2350  0.00  0.00     0.000 C
ATOM     23  C4  SGN C   2      23.529 -27.943  10.9280  0.00  0.00     0.000 C
ATOM     24  C5  SGN C   2      24.441 -26.995  11.7100  0.00  0.00     0.000 C
ATOM     25  O5  SGN C   2      24.083 -25.630  11.4270  0.00  0.00     0.000 O
ATOM     26   O  SGN C   2      21.197 -28.446  10.4650  0.00  0.00     0.000 O
ATOM     28  HD  SGN C   2      20.587 -28.868  10.0170  0.00  0.00     0.000 HD
BRANCH 21 30
ATOM     28   N  SGN C   2      21.006 -24.918  11.0870  0.00  0.00     0.000 N
ATOM     30  HD  SGN C   2      20.350 -24.911  11.6510  0.00  0.00     0.000 HD
ATOM     30   S  SGN C   2      19.655 -24.712  10.2560  0.00  0.00     0.000 S
ATOM     31   O  SGN C   2      18.853 -25.852  10.5520  0.00  0.00     0.000 OA
ATOM     32   O  SGN C   2      19.160 -23.412  10.5180  0.00  0.00     0.000 OA
ATOM     33   O  SGN C   2      20.121 -24.731   8.7600  0.00  0.00     0.000 OA
ENDBRANCH 21 30
BRANCH 24 34
ATOM     34   C  SGN C   2      25.904 -27.133  11.3590  0.00  0.00     0.000 C
ATOM     35   O  SGN C   2      26.065 -26.937   9.9430  0.00  0.00     0.000 O
ATOM     36   S  SGN C   2      27.409 -27.492   9.2820  0.00  0.00     0.000 S
ATOM     37   O  SGN C   2      27.464 -28.886   9.6750  0.00  0.00     0.000 OA
ATOM     38   O  SGN C   2      27.250 -27.302   7.8600  0.00  0.00     0.000 OA
ATOM     39   O  SGN C   2      28.446 -26.677   9.8660  0.00  0.00     0.000 OA
ENDBRANCH 24 34
BRANCH 20 40
ATOM     40  O4  IDS C   3      22.637 -25.327  13.1130  0.00  0.00     0.000 O
BRANCH 40 44
ATOM     41  C1  IDS C   3      21.677 -24.245  16.3280  0.00  0.00     0.000 C
ATOM     42  C2  IDS C   3      21.371 -23.417  15.0830  0.00  0.00     0.000 C
ATOM     43  C3  IDS C   3      22.641 -23.204  14.2610  0.00  0.00     0.000 C
ATOM     44  C4  IDS C   3      23.381 -24.510  14.0200  0.00  0.00     0.000 C
ATOM     45  C5  IDS C   3      23.575 -25.258  15.3560  0.00  0.00     0.000 C
ATOM     46  O5  IDS C   3      22.303 -25.474  15.9700  0.00  0.00     0.000 O
ATOM     47   O  IDS C   3      23.491 -22.281  14.9370  0.00  0.00     0.000 O
ATOM     49  HD  IDS C   3      22.793 -22.476  14.4630  0.00  0.00     0.000 HD
BRANCH 42 49
ATOM     49   O  IDS C   3      20.373 -24.115  14.2390  0.00  0.00     0.000 O
ATOM     50   S  IDS C   3      18.845 -23.634  14.2550  0.00  0.00     0.000 S
ATOM     51   O  IDS C   3      18.885 -22.374  13.5460  0.00  0.00     0.000 OA
ATOM     52   O  IDS C   3      18.400 -23.486  15.6310  0.00  0.00     0.000 OA
ATOM     53   O  IDS C   3      18.100 -24.655  13.5500  0.00  0.00     0.000 OA
ENDBRANCH 42 49
BRANCH 45 54
ATOM     54   C  IDS C   3      24.275 -26.599  15.1980  0.00  0.00     0.000 C
ATOM     55   O  IDS C   3      25.475 -26.638  15.1050  0.00  0.00     0.000 OA
ATOM     56   O  IDS C   3      23.622 -27.623  15.1510  0.00  0.00     0.000 OA
ENDBRANCH 45 54
BRANCH 41 57
ATOM     57  O4  SGN C   4      22.233 -23.417  17.2210  0.00  0.00     0.000 O
BRANCH 57 61
ATOM     58  C1  SGN C   4      23.416 -23.532  21.2360  0.00  0.00     0.000 C
ATOM     59  C2  SGN C   4      23.899 -24.684  20.3390  0.00  0.00     0.000 C
ATOM     60  C3  SGN C   4      23.760 -24.326  18.8530  0.00  0.00     0.000 C
ATOM     61  C4  SGN C   4      22.331 -23.896  18.5660  0.00  0.00     0.000 C
ATOM     62  C5  SGN C   4      21.910 -22.772  19.5110  0.00  0.00     0.000 C
ATOM     63  O5  SGN C   4      22.089 -23.168  20.8830  0.00  0.00     0.000 O
BRANCH 59 66
ATOM     64   N  SGN C   4      25.239 -25.001  20.8450  0.00  0.00     0.000 N
ATOM     66  HD  SGN C   4      24.535 -24.924  20.3450  0.00  0.00     0.000 HD
ATOM     66   O  SGN C   4      26.955 -26.507  21.6920  0.00  0.00     0.000 OA
ATOM     67   O  SGN C   4      24.623 -26.771  22.4220  0.00  0.00     0.000 OA
ATOM     68   S  SGN C   4      25.609 -26.514  21.2310  0.00  0.00     0.000 S
ATOM     69   O  SGN C   4      25.249 -27.353  20.1450  0.00  0.00     0.000 OA
ENDBRANCH 59 66
BRANCH 62 70
ATOM     70   C  SGN C   4      20.454 -22.419  19.3370  0.00  0.00     0.000 C
ATOM     71   S  SGN C   4      18.250 -22.091  20.6060  0.00  0.00     0.000 S
ATOM     72   O  SGN C   4      18.017 -20.872  19.8570  0.00  0.00     0.000 OA
ATOM     73   O  SGN C   4      17.716 -23.273  19.9600  0.00  0.00     0.000 OA
ATOM     74   O  SGN C   4      17.904 -21.985  22.0050  0.00  0.00     0.000 OA
ATOM     75   O  SGN C   4      19.829 -22.263  20.6170  0.00  0.00     0.000 O
ENDBRANCH 62 70
ENDBRANCH 57 61
ENDBRANCH 41 57
ENDBRANCH 40 44
ENDBRANCH 20 40
ENDBRANCH 19 23
ENDBRANCH 1 19
TORSDOF 14
ENDMDL
MODEL 91
REMARK VINA RESULT:      -4.7     20.041     23.883
ROOT
ATOM      1  C1  IDS C   1      11.667 -50.258  39.6460  0.00  0.00     0.000 C
ATOM      2  C2  IDS C   1      11.348 -51.015  40.9230  0.00  0.00     0.000 C
ATOM      3  C3  IDS C   1      11.275 -50.065  42.1120  0.00  0.00     0.000 C
ATOM      4  C4  IDS C   1      10.348 -48.885  41.8190  0.00  0.00     0.000 C
ATOM      5  C5  IDS C   1      10.702 -48.252  40.4590  0.00  0.00     0.000 C
ATOM      6  O5  IDS C   1      10.691 -49.239  39.4320  0.00  0.00     0.000 O
ATOM      7   O  IDS C   1      12.588 -49.601  42.4320  0.00  0.00     0.000 O
ATOM      9  HD  IDS C   1      12.110 -48.941  42.7240  0.00  0.00     0.000 HD
ATOM      9   O  IDS C   1       8.991 -49.356  41.7870  0.00  0.00     0.000 O
ATOM     11  HD  IDS C   1       8.513 -48.696  42.0800  0.00  0.00     0.000 HD
ENDROOT
BRANCH 2 11
ATOM     11   O  IDS C   1      10.035 -51.687  40.8040  0.00  0.00     0.000 O
ATOM     12   S  IDS C   1       9.870 -53.226  41.2010  0.00  0.00     0.000 S
ATOM     13   O  IDS C   1       8.530 -53.261  41.7440  0.00  0.00     0.000 OA
ATOM     14   O  IDS C   1      10.880 -53.582  42.1680  0.00  0.00     0.000 OA
ATOM     15   O  IDS C   1      10.002 -53.939  39.9540  0.00  0.00     0.000 OA
ENDBRANCH 2 11
BRANCH 5 16
ATOM     16   C  IDS C   1       9.748 -47.146  40.0460  0.00  0.00     0.000 C
ATOM     17   O  IDS C   1       9.997 -46.502  39.0490  0.00  0.00     0.000 OA
ATOM     18   O  IDS C   1       8.773 -46.898  40.7000  0.00  0.00     0.000 OA
ENDBRANCH 5 16
BRANCH 1 19
ATOM     19  O4  SGN C   2      12.934 -49.915  39.3940  0.00  0.00     0.000 O
BRANCH 19 23
ATOM     20  C1  SGN C   2      15.965 -49.877  36.5250  0.00  0.00     0.000 C
ATOM     21  C2  SGN C   2      14.837 -48.856  36.3420  0.00  0.00     0.000 C
ATOM     22  C3  SGN C   2      14.070 -48.694  37.6520  0.00  0.00     0.000 C
ATOM     23  C4  SGN C   2      13.545 -50.049  38.1100  0.00  0.00     0.000 C
ATOM     24  C5  SGN C   2      14.698 -51.053  38.1920  0.00  0.00     0.000 C
ATOM     25  O5  SGN C   2      15.388 -51.108  36.9300  0.00  0.00     0.000 O
ATOM     26   O  SGN C   2      13.008 -47.760  37.4960  0.00  0.00     0.000 O
ATOM     28  HD  SGN C   2      12.432 -47.133  37.3370  0.00  0.00     0.000 HD
BRANCH 21 30
ATOM     28   N  SGN C   2      15.553 -48.637  35.0780  0.00  0.00     0.000 N
ATOM     30  HD  SGN C   2      16.301 -48.202  35.1060  0.00  0.00     0.000 HD
ATOM     30   S  SGN C   2      15.360 -47.289  34.2380  0.00  0.00     0.000 S
ATOM     31   O  SGN C   2      15.628 -46.233  35.1550  0.00  0.00     0.000 OA
ATOM     32   O  SGN C   2      16.110 -47.395  33.0420  0.00  0.00     0.000 OA
ATOM     33   O  SGN C   2      13.847 -47.306  33.8340  0.00  0.00     0.000 OA
ENDBRANCH 21 30
BRANCH 24 34
ATOM     34   C  SGN C   2      14.253 -52.465  38.4950  0.00  0.00     0.000 C
ATOM     35   O  SGN C   2      14.527 -52.755  39.8770  0.00  0.00     0.000 O
ATOM     36   S  SGN C   2      14.586 -54.294  40.2970  0.00  0.00     0.000 S
ATOM     37   O  SGN C   2      15.546 -54.888  39.3890  0.00  0.00     0.000 OA
ATOM     38   O  SGN C   2      15.016 -54.305  41.6750  0.00  0.00     0.000 OA
ATOM     39   O  SGN C   2      13.234 -54.759  40.1070  0.00  0.00     0.000 OA
ENDBRANCH 24 34
BRANCH 20 40
ATOM     40  O4  IDS C   3      16.952 -49.561  37.3600  0.00  0.00     0.000 O
BRANCH 40 44
ATOM     41  C1  IDS C   3      20.197 -48.951  38.5960  0.00  0.00     0.000 C
ATOM     42  C2  IDS C   3      19.959 -49.349  37.1420  0.00  0.00     0.000 C
ATOM     43  C3  IDS C   3      19.105 -50.613  37.0700  0.00  0.00     0.000 C
ATOM     44  C4  IDS C   3      17.861 -50.502  37.9370  0.00  0.00     0.000 C
ATOM     45  C5  IDS C   3      18.249 -50.046  39.3590  0.00  0.00     0.000 C
ATOM     46  O5  IDS C   3      18.958 -48.807  39.2840  0.00  0.00     0.000 O
ATOM     47   O  IDS C   3      19.885 -51.734  37.4810  0.00  0.00     0.000 O
ATOM     49  HD  IDS C   3      19.660 -51.124  36.9090  0.00  0.00     0.000 HD
BRANCH 42 49
ATOM     49   O  IDS C   3      19.254 -48.261  36.4250  0.00  0.00     0.000 O
ATOM     50   S  IDS C   3      19.450 -48.097  34.8430  0.00  0.00     0.000 S
ATOM     51   O  IDS C   3      18.721 -49.221  34.2990  0.00  0.00     0.000 OA
ATOM     52   O  IDS C   3      20.867 -48.143  34.5240  0.00  0.00     0.000 OA
ATOM     53   O  IDS C   3      18.856 -46.822  34.4990  0.00  0.00     0.000 OA
ENDBRANCH 42 49
BRANCH 45 54
ATOM     54   C  IDS C   3      17.054 -49.870  40.2830  0.00  0.00     0.000 C
ATOM     55   O  IDS C   3      16.762 -50.748  41.0530  0.00  0.00     0.000 OA
ATOM     56   O  IDS C   3      16.389 -48.854  40.2280  0.00  0.00     0.000 OA
ENDBRANCH 45 54
BRANCH 41 57
ATOM     57  O4  SGN C   4      21.164 -49.748  39.0660  0.00  0.00     0.000 O
BRANCH 57 61
ATOM     58  C1  SGN C   4      22.996 -50.521  42.7510  0.00  0.00     0.000 C
ATOM     59  C2  SGN C   4      21.462 -50.414  42.7500  0.00  0.00     0.000 C
ATOM     60  C3  SGN C   4      20.898 -50.544  41.3280  0.00  0.00     0.000 C
ATOM     61  C4  SGN C   4      21.574 -49.530  40.4200  0.00  0.00     0.000 C
ATOM     62  C5  SGN C   4      23.094 -49.674  40.4930  0.00  0.00     0.000 C
ATOM     63  O5  SGN C   4      23.548 -49.567  41.8550  0.00  0.00     0.000 O
BRANCH 59 66
ATOM     64   N  SGN C   4      21.108 -51.358  43.8150  0.00  0.00     0.000 N
ATOM     66  HD  SGN C   4      21.110 -50.887  43.0880  0.00  0.00     0.000 HD
ATOM     66   O  SGN C   4      19.802 -52.098  45.7340  0.00  0.00     0.000 OA
ATOM     67   O  SGN C   4      20.462 -49.738  45.5350  0.00  0.00     0.000 OA
ATOM     68   S  SGN C   4      19.902 -51.014  44.8160  0.00  0.00     0.000 S
ATOM     69   O  SGN C   4      18.769 -50.649  44.0440  0.00  0.00     0.000 OA
ENDBRANCH 59 66
BRANCH 62 70
ATOM     70   C  SGN C   4      23.791 -48.594  39.7050  0.00  0.00     0.000 C
ATOM     71   S  SGN C   4      24.088 -46.055  39.5100  0.00  0.00     0.000 S
ATOM     72   O  SGN C   4      25.518 -46.247  39.3700  0.00  0.00     0.000 OA
ATOM     73   O  SGN C   4      23.378 -46.081  38.2470  0.00  0.00     0.000 OA
ATOM     74   O  SGN C   4      23.735 -44.936  40.3530  0.00  0.00     0.000 OA
ATOM     75   O  SGN C   4      23.587 -47.321  40.3290  0.00  0.00     0.000 O
ENDBRANCH 62 70
ENDBRANCH 57 61
ENDBRANCH 41 57
ENDBRANCH 40 44
ENDBRANCH 20 40
ENDBRANCH 19 23
ENDBRANCH 1 19
TORSDOF 14
ENDMDL
MODEL 92
REMARK VINA RESULT:      -4.7     44.318     49.389
ROOT
ATOM      1  C1  IDS C   1      49.878 -66.201  45.6160  0.00  0.00     0.000 C
ATOM      2  C2  IDS C   1      49.596 -64.749  45.2700  0.00  0.00     0.000 C
ATOM      3  C3  IDS C   1      48.099 -64.469  45.2920  0.00  0.00     0.000 C
ATOM      4  C4  IDS C   1      47.467 -64.949  46.5990  0.00  0.00     0.000 C
ATOM      5  C5  IDS C   1      47.896 -66.399  46.8980  0.00  0.00     0.000 C
ATOM      6  O5  IDS C   1      49.315 -66.512  46.8890  0.00  0.00     0.000 O
ATOM      7   O  IDS C   1      47.478 -65.105  44.1740  0.00  0.00     0.000 O
ATOM      9  HD  IDS C   1      46.817 -65.082  44.7320  0.00  0.00     0.000 HD
ATOM      9   O  IDS C   1      47.901 -64.094  47.6690  0.00  0.00     0.000 O
ATOM     11  HD  IDS C   1      47.240 -64.071  48.2270  0.00  0.00     0.000 HD
ENDROOT
BRANCH 2 11
ATOM     11   O  IDS C   1      50.236 -63.855  46.2600  0.00  0.00     0.000 O
ATOM     12   S  IDS C   1      51.183 -62.659  45.7830  0.00  0.00     0.000 S
ATOM     13   O  IDS C   1      50.911 -61.640  46.7730  0.00  0.00     0.000 OA
ATOM     14   O  IDS C   1      50.813 -62.259  44.4470  0.00  0.00     0.000 OA
ATOM     15   O  IDS C   1      52.518 -63.197  45.8660  0.00  0.00     0.000 OA
ENDBRANCH 2 11
BRANCH 5 16
ATOM     16   C  IDS C   1      47.400 -66.907  48.2400  0.00  0.00     0.000 C
ATOM     17   O  IDS C   1      46.562 -66.263  48.8350  0.00  0.00     0.000 OA
ATOM     18   O  IDS C   1      47.838 -67.918  48.7150  0.00  0.00     0.000 OA
ENDBRANCH 5 16
BRANCH 1 19
ATOM     19  O4  SGN C   2      49.734 -67.133  44.6700  0.00  0.00     0.000 O
BRANCH 19 23
ATOM     20  C1  SGN C   2      51.020 -70.892  43.3870  0.00  0.00     0.000 C
ATOM     21  C2  SGN C   2      50.741 -70.739  44.8870  0.00  0.00     0.000 C
ATOM     22  C3  SGN C   2      49.887 -69.496  45.1290  0.00  0.00     0.000 C
ATOM     23  C4  SGN C   2      50.588 -68.272  44.5500  0.00  0.00     0.000 C
ATOM     24  C5  SGN C   2      50.920 -68.512  43.0750  0.00  0.00     0.000 C
ATOM     25  O5  SGN C   2      51.686 -69.723  42.9390  0.00  0.00     0.000 O
ATOM     26   O  SGN C   2      49.632 -69.330  46.5190  0.00  0.00     0.000 O
ATOM     28  HD  SGN C   2      49.467 -69.340  47.3690  0.00  0.00     0.000 HD
BRANCH 21 30
ATOM     28   N  SGN C   2      50.164 -71.861  45.6380  0.00  0.00     0.000 N
ATOM     30  HD  SGN C   2      50.205 -71.835  46.5020  0.00  0.00     0.000 HD
ATOM     30   S  SGN C   2      51.069 -73.091  46.1170  0.00  0.00     0.000 S
ATOM     31   O  SGN C   2      52.146 -72.505  46.8410  0.00  0.00     0.000 OA
ATOM     32   O  SGN C   2      50.233 -74.046  46.7430  0.00  0.00     0.000 OA
ATOM     33   O  SGN C   2      51.577 -73.732  44.7810  0.00  0.00     0.000 OA
ENDBRANCH 21 30
BRANCH 24 34
ATOM     34   C  SGN C   2      51.748 -67.412  42.4530  0.00  0.00     0.000 C
ATOM     35   O  SGN C   2      52.806 -67.054  43.3590  0.00  0.00     0.000 O
ATOM     36   S  SGN C   2      53.499 -65.632  43.1400  0.00  0.00     0.000 S
ATOM     37   O  SGN C   2      52.403 -64.684  43.1400  0.00  0.00     0.000 OA
ATOM     38   O  SGN C   2      54.403 -65.464  44.2520  0.00  0.00     0.000 OA
ATOM     39   O  SGN C   2      54.162 -65.761  41.8650  0.00  0.00     0.000 OA
ENDBRANCH 24 34
BRANCH 20 40
ATOM     40  O4  IDS C   3      49.982 -71.137  42.5900  0.00  0.00     0.000 O
BRANCH 40 44
ATOM     41  C1  IDS C   3      47.668 -73.099  40.7940  0.00  0.00     0.000 C
ATOM     42  C2  IDS C   3      48.796 -73.734  41.6020  0.00  0.00     0.000 C
ATOM     43  C3  IDS C   3      50.138 -73.117  41.2180  0.00  0.00     0.000 C
ATOM     44  C4  IDS C   3      50.086 -71.597  41.2410  0.00  0.00     0.000 C
ATOM     45  C5  IDS C   3      48.872 -71.101  40.4270  0.00  0.00     0.000 C
ATOM     46  O5  IDS C   3      47.677 -71.682  40.9520  0.00  0.00     0.000 O
ATOM     47   O  IDS C   3      50.514 -73.570  39.9200  0.00  0.00     0.000 O
ATOM     49  HD  IDS C   3      50.408 -73.684  40.7720  0.00  0.00     0.000 HD
BRANCH 42 49
ATOM     49   O  IDS C   3      48.571 -73.516  43.0500  0.00  0.00     0.000 O
ATOM     50   S  IDS C   3      47.932 -74.686  43.9390  0.00  0.00     0.000 S
ATOM     51   O  IDS C   3      49.000 -75.657  44.0300  0.00  0.00     0.000 OA
ATOM     52   O  IDS C   3      46.754 -75.212  43.2700  0.00  0.00     0.000 OA
ATOM     53   O  IDS C   3      47.608 -74.084  45.2150  0.00  0.00     0.000 OA
ENDBRANCH 42 49
BRANCH 45 54
ATOM     54   C  IDS C   3      48.722 -69.588  40.4310  0.00  0.00     0.000 C
ATOM     55   O  IDS C   3      49.544 -68.905  39.8770  0.00  0.00     0.000 OA
ATOM     56   O  IDS C   3      47.783 -69.073  41.0060  0.00  0.00     0.000 OA
ENDBRANCH 45 54
BRANCH 41 57
ATOM     57  O4  SGN C   4      47.690 -73.662  39.5800  0.00  0.00     0.000 O
BRANCH 57 61
ATOM     58  C1  SGN C   4      45.624 -73.287  35.9580  0.00  0.00     0.000 C
ATOM     59  C2  SGN C   4      46.115 -71.985  36.6120  0.00  0.00     0.000 C
ATOM     60  C3  SGN C   4      47.184 -72.268  37.6770  0.00  0.00     0.000 C
ATOM     61  C4  SGN C   4      46.649 -73.281  38.6760  0.00  0.00     0.000 C
ATOM     62  C5  SGN C   4      46.153 -74.534  37.9560  0.00  0.00     0.000 C
ATOM     63  O5  SGN C   4      45.174 -74.191  36.9570  0.00  0.00     0.000 O
BRANCH 59 66
ATOM     64   N  SGN C   4      46.442 -71.145  35.4560  0.00  0.00     0.000 N
ATOM     66  HD  SGN C   4      46.424 -71.505  36.2440  0.00  0.00     0.000 HD
ATOM     66   O  SGN C   4      46.415 -69.065  34.1880  0.00  0.00     0.000 OA
ATOM     67   O  SGN C   4      44.406 -69.785  35.4080  0.00  0.00     0.000 OA
ATOM     68   S  SGN C   4      45.964 -69.614  35.4220  0.00  0.00     0.000 S
ATOM     69   O  SGN C   4      46.350 -68.998  36.6400  0.00  0.00     0.000 OA
ENDBRANCH 59 66
BRANCH 62 70
ATOM     70   C  SGN C   4      45.495 -75.499  38.9100  0.00  0.00     0.000 C
ATOM     71   S  SGN C   4      45.484 -77.943  39.6830  0.00  0.00     0.000 S
ATOM     72   O  SGN C   4      45.454 -77.493  41.0600  0.00  0.00     0.000 OA
ATOM     73   O  SGN C   4      44.166 -78.107  39.1030  0.00  0.00     0.000 OA
ATOM     74   O  SGN C   4      46.362 -79.069  39.4620  0.00  0.00     0.000 OA
ATOM     75   O  SGN C   4      46.177 -76.758  38.8850  0.00  0.00     0.000 O
ENDBRANCH 62 70
ENDBRANCH 57 61
ENDBRANCH 41 57
ENDBRANCH 40 44
ENDBRANCH 20 40
ENDBRANCH 19 23
ENDBRANCH 1 19
TORSDOF 14
ENDMDL
MODEL 93
REMARK VINA RESULT:      -4.7      9.697     14.923
ROOT
ATOM      1  C1  IDS C   1      26.440 -29.345  10.9040  0.00  0.00     0.000 C
ATOM      2  C2  IDS C   1      27.757 -29.624  10.2010  0.00  0.00     0.000 C
ATOM      3  C3  IDS C   1      28.391 -30.906  10.7280  0.00  0.00     0.000 C
ATOM      4  C4  IDS C   1      27.394 -32.065  10.7030  0.00  0.00     0.000 C
ATOM      5  C5  IDS C   1      26.065 -31.640  11.3580  0.00  0.00     0.000 C
ATOM      6  O5  IDS C   1      25.562 -30.458  10.7440  0.00  0.00     0.000 O
ATOM      7   O  IDS C   1      28.871 -30.688  12.0560  0.00  0.00     0.000 O
ATOM      9  HD  IDS C   1      28.722 -31.541  12.0770  0.00  0.00     0.000 HD
ATOM      9   O  IDS C   1      27.154 -32.444   9.3390  0.00  0.00     0.000 O
ATOM     11  HD  IDS C   1      27.005 -33.297   9.3600  0.00  0.00     0.000 HD
ENDROOT
BRANCH 2 11
ATOM     11   O  IDS C   1      27.533 -29.798   8.7480  0.00  0.00     0.000 O
ATOM     12   S  IDS C   1      27.301 -28.530   7.8040  0.00  0.00     0.000 S
ATOM     13   O  IDS C   1      27.938 -28.944   6.5730  0.00  0.00     0.000 OA
ATOM     14   O  IDS C   1      27.923 -27.371   8.3970  0.00  0.00     0.000 OA
ATOM     15   O  IDS C   1      25.868 -28.414   7.6980  0.00  0.00     0.000 OA
ENDBRANCH 2 11
BRANCH 5 16
ATOM     16   C  IDS C   1      24.985 -32.703  11.2670  0.00  0.00     0.000 C
ATOM     17   O  IDS C   1      24.529 -32.982  10.1790  0.00  0.00     0.000 OA
ATOM     18   O  IDS C   1      24.575 -33.249  12.2540  0.00  0.00     0.000 OA
ENDBRANCH 5 16
BRANCH 1 19
ATOM     19  O4  SGN C   2      26.459 -28.786  12.1170  0.00  0.00     0.000 O
BRANCH 19 23
ATOM     20  C1  SGN C   2      24.611 -26.037  14.6590  0.00  0.00     0.000 C
ATOM     21  C2  SGN C   2      23.799 -27.286  14.2950  0.00  0.00     0.000 C
ATOM     22  C3  SGN C   2      24.731 -28.365  13.7470  0.00  0.00     0.000 C
ATOM     23  C4  SGN C   2      25.502 -27.817  12.5520  0.00  0.00     0.000 C
ATOM     24  C5  SGN C   2      26.222 -26.525  12.9460  0.00  0.00     0.000 C
ATOM     25  O5  SGN C   2      25.277 -25.586  13.4910  0.00  0.00     0.000 O
ATOM     26   O  SGN C   2      23.991 -29.527  13.3890  0.00  0.00     0.000 O
ATOM     28  HD  SGN C   2      23.480 -30.214  13.2630  0.00  0.00     0.000 HD
BRANCH 21 30
ATOM     28   N  SGN C   2      22.337 -27.147  14.2710  0.00  0.00     0.000 N
ATOM     30  HD  SGN C   2      22.001 -26.367  14.4400  0.00  0.00     0.000 HD
ATOM     30   S  SGN C   2      21.471 -27.273  15.6100  0.00  0.00     0.000 S
ATOM     31   O  SGN C   2      22.048 -26.342  16.5210  0.00  0.00     0.000 OA
ATOM     32   O  SGN C   2      20.100 -27.172  15.2690  0.00  0.00     0.000 OA
ATOM     33   O  SGN C   2      21.717 -28.745  16.0860  0.00  0.00     0.000 OA
ENDBRANCH 21 30
BRANCH 24 34
ATOM     34   C  SGN C   2      26.895 -25.828  11.7870  0.00  0.00     0.000 C
ATOM     35   O  SGN C   2      26.436 -24.466  11.7310  0.00  0.00     0.000 O
ATOM     36   S  SGN C   2      26.632 -23.691  10.3480  0.00  0.00     0.000 S
ATOM     37   O  SGN C   2      26.009 -24.544   9.3560  0.00  0.00     0.000 OA
ATOM     38   O  SGN C   2      25.964 -22.423  10.5150  0.00  0.00     0.000 OA
ATOM     39   O  SGN C   2      28.063 -23.581  10.2100  0.00  0.00     0.000 OA
ENDBRANCH 24 34
BRANCH 20 40
ATOM     40  O4  IDS C   3      25.491 -26.143  15.6520  0.00  0.00     0.000 O
BRANCH 40 44
ATOM     41  C1  IDS C   3      27.024 -26.235  18.8250  0.00  0.00     0.000 C
ATOM     42  C2  IDS C   3      25.515 -26.068  18.6720  0.00  0.00     0.000 C
ATOM     43  C3  IDS C   3      25.202 -24.922  17.7140  0.00  0.00     0.000 C
ATOM     44  C4  IDS C   3      25.986 -25.042  16.4170  0.00  0.00     0.000 C
ATOM     45  C5  IDS C   3      27.483 -25.255  16.7270  0.00  0.00     0.000 C
ATOM     46  O5  IDS C   3      27.639 -26.412  17.5510  0.00  0.00     0.000 O
ATOM     47   O  IDS C   3      25.499 -23.680  18.3480  0.00  0.00     0.000 O
ATOM     49  HD  IDS C   3      25.007 -24.383  18.2300  0.00  0.00     0.000 HD
BRANCH 42 49
ATOM     49   O  IDS C   3      24.916 -27.312  18.1350  0.00  0.00     0.000 O
ATOM     50   S  IDS C   3      24.098 -28.284  19.1100  0.00  0.00     0.000 S
ATOM     51   O  IDS C   3      22.878 -27.551  19.3670  0.00  0.00     0.000 OA
ATOM     52   O  IDS C   3      24.872 -28.520  20.3180  0.00  0.00     0.000 OA
ATOM     53   O  IDS C   3      23.875 -29.503  18.3610  0.00  0.00     0.000 OA
ENDBRANCH 42 49
BRANCH 45 54
ATOM     54   C  IDS C   3      28.338 -25.425  15.4800  0.00  0.00     0.000 C
ATOM     55   O  IDS C   3      28.472 -24.503  14.7190  0.00  0.00     0.000 OA
ATOM     56   O  IDS C   3      28.867 -26.495  15.2490  0.00  0.00     0.000 OA
ENDBRANCH 45 54
BRANCH 41 57
ATOM     57  O4  SGN C   4      27.440 -25.285  19.6710  0.00  0.00     0.000 O
BRANCH 57 61
ATOM     58  C1  SGN C   4      31.111 -24.237  21.3890  0.00  0.00     0.000 C
ATOM     59  C2  SGN C   4      30.655 -23.412  20.1750  0.00  0.00     0.000 C
ATOM     60  C3  SGN C   4      29.157 -23.606  19.9030  0.00  0.00     0.000 C
ATOM     61  C4  SGN C   4      28.854 -25.090  19.7730  0.00  0.00     0.000 C
ATOM     62  C5  SGN C   4      29.359 -25.850  20.9980  0.00  0.00     0.000 C
ATOM     63  O5  SGN C   4      30.762 -25.601  21.2060  0.00  0.00     0.000 O
BRANCH 59 66
ATOM     64   N  SGN C   4      31.119 -22.049  20.4560  0.00  0.00     0.000 N
ATOM     66  HD  SGN C   4      30.694 -22.734  20.1380  0.00  0.00     0.000 HD
ATOM     66   O  SGN C   4      32.317 -19.995  19.9270  0.00  0.00     0.000 OA
ATOM     67   O  SGN C   4      33.302 -22.173  19.3540  0.00  0.00     0.000 OA
ATOM     68   S  SGN C   4      32.018 -21.274  19.3770  0.00  0.00     0.000 S
ATOM     69   O  SGN C   4      31.374 -21.356  18.1160  0.00  0.00     0.000 OA
ENDBRANCH 59 66
BRANCH 62 70
ATOM     70   C  SGN C   4      29.191 -27.339  20.8340  0.00  0.00     0.000 C
ATOM     71   S  SGN C   4      28.627 -29.497  22.0990  0.00  0.00     0.000 S
ATOM     72   O  SGN C   4      27.743 -29.883  21.0170  0.00  0.00     0.000 OA
ATOM     73   O  SGN C   4      29.992 -29.948  21.9140  0.00  0.00     0.000 OA
ATOM     74   O  SGN C   4      28.092 -29.781  23.4110  0.00  0.00     0.000 OA
ATOM     75   O  SGN C   4      28.670 -27.911  22.0400  0.00  0.00     0.000 O
ENDBRANCH 62 70
ENDBRANCH 57 61
ENDBRANCH 41 57
ENDBRANCH 40 44
ENDBRANCH 20 40
ENDBRANCH 19 23
ENDBRANCH 1 19
TORSDOF 14
ENDMDL
MODEL 94
REMARK VINA RESULT:      -4.7     21.510     24.798
ROOT
ATOM      1  C1  IDS C   1      15.381 -16.156  44.5180  0.00  0.00     0.000 C
ATOM      2  C2  IDS C   1      15.160 -16.108  43.0160  0.00  0.00     0.000 C
ATOM      3  C3  IDS C   1      14.529 -17.403  42.5210  0.00  0.00     0.000 C
ATOM      4  C4  IDS C   1      13.288 -17.761  43.3390  0.00  0.00     0.000 C
ATOM      5  C5  IDS C   1      13.603 -17.687  44.8460  0.00  0.00     0.000 C
ATOM      6  O5  IDS C   1      14.144 -16.413  45.1800  0.00  0.00     0.000 O
ATOM      7   O  IDS C   1      15.491 -18.457  42.5860  0.00  0.00     0.000 O
ATOM      9  HD  IDS C   1      14.756 -18.908  42.6620  0.00  0.00     0.000 HD
ATOM      9   O  IDS C   1      12.239 -16.832  43.0250  0.00  0.00     0.000 O
ATOM     11  HD  IDS C   1      11.503 -17.282  43.1010  0.00  0.00     0.000 HD
ENDROOT
BRANCH 2 11
ATOM     11   O  IDS C   1      14.242 -15.000  42.6710  0.00  0.00     0.000 O
ATOM     12   S  IDS C   1      14.517 -14.086  41.3890  0.00  0.00     0.000 S
ATOM     13   O  IDS C   1      13.177 -13.788  40.9330  0.00  0.00     0.000 OA
ATOM     14   O  IDS C   1      15.288 -14.833  40.4250  0.00  0.00     0.000 OA
ATOM     15   O  IDS C   1      15.216 -12.936  41.9060  0.00  0.00     0.000 OA
ENDBRANCH 2 11
BRANCH 5 16
ATOM     16   C  IDS C   1      12.386 -17.917  45.7250  0.00  0.00     0.000 C
ATOM     17   O  IDS C   1      11.622 -16.996  45.9180  0.00  0.00     0.000 OA
ATOM     18   O  IDS C   1      12.189 -18.986  46.2350  0.00  0.00     0.000 OA
ENDBRANCH 5 16
BRANCH 1 19
ATOM     19  O4  SGN C   2      16.446 -16.807  44.9960  0.00  0.00     0.000 O
BRANCH 19 23
ATOM     20  C1  SGN C   2      18.945 -17.042  48.3320  0.00  0.00     0.000 C
ATOM     21  C2  SGN C   2      17.870 -18.128  48.2040  0.00  0.00     0.000 C
ATOM     22  C3  SGN C   2      17.349 -18.171  46.7700  0.00  0.00     0.000 C
ATOM     23  C4  SGN C   2      16.821 -16.796  46.3750  0.00  0.00     0.000 C
ATOM     24  C5  SGN C   2      17.903 -15.738  46.6040  0.00  0.00     0.000 C
ATOM     25  O5  SGN C   2      18.366 -15.800  47.9660  0.00  0.00     0.000 O
ATOM     26   O  SGN C   2      16.338 -19.163  46.6360  0.00  0.00     0.000 O
ATOM     28  HD  SGN C   2      15.785 -19.830  46.6240  0.00  0.00     0.000 HD
BRANCH 21 30
ATOM     28   N  SGN C   2      18.681 -18.702  49.2860  0.00  0.00     0.000 N
ATOM     30  HD  SGN C   2      19.158 -19.402  49.1080  0.00  0.00     0.000 HD
ATOM     30   S  SGN C   2      18.131 -19.904  50.1870  0.00  0.00     0.000 S
ATOM     31   O  SGN C   2      17.738 -20.916  49.2650  0.00  0.00     0.000 OA
ATOM     32   O  SGN C   2      19.091 -20.192  51.1860  0.00  0.00     0.000 OA
ATOM     33   O  SGN C   2      16.883 -19.295  50.9120  0.00  0.00     0.000 OA
ENDBRANCH 21 30
BRANCH 24 34
ATOM     34   C  SGN C   2      17.426 -14.322  46.3810  0.00  0.00     0.000 C
ATOM     35   O  SGN C   2      17.906 -13.863  45.1050  0.00  0.00     0.000 O
ATOM     36   S  SGN C   2      17.934 -12.285  44.8660  0.00  0.00     0.000 S
ATOM     37   O  SGN C   2      18.691 -11.757  45.9840  0.00  0.00     0.000 OA
ATOM     38   O  SGN C   2      18.585 -12.096  43.5920  0.00  0.00     0.000 OA
ATOM     39   O  SGN C   2      16.543 -11.906  44.8710  0.00  0.00     0.000 OA
ENDBRANCH 24 34
BRANCH 20 40
ATOM     40  O4  IDS C   3      20.077 -17.214  47.6540  0.00  0.00     0.000 O
BRANCH 40 44
ATOM     41  C1  IDS C   3      23.204 -17.843  46.1540  0.00  0.00     0.000 C
ATOM     42  C2  IDS C   3      22.617 -18.786  47.1990  0.00  0.00     0.000 C
ATOM     43  C3  IDS C   3      22.213 -18.008  48.4490  0.00  0.00     0.000 C
ATOM     44  C4  IDS C   3      21.366 -16.793  48.1070  0.00  0.00     0.000 C
ATOM     45  C5  IDS C   3      22.059 -15.963  47.0060  0.00  0.00     0.000 C
ATOM     46  O5  IDS C   3      22.292 -16.788  45.8630  0.00  0.00     0.000 O
ATOM     47   O  IDS C   3      23.385 -17.601  49.1520  0.00  0.00     0.000 O
ATOM     49  HD  IDS C   3      22.806 -18.196  48.9040  0.00  0.00     0.000 HD
BRANCH 42 49
ATOM     49   O  IDS C   3      21.418 -19.465  46.6560  0.00  0.00     0.000 O
ATOM     50   S  IDS C   3      21.318 -21.064  46.7100  0.00  0.00     0.000 S
ATOM     51   O  IDS C   3      21.105 -21.337  48.1140  0.00  0.00     0.000 OA
ATOM     52   O  IDS C   3      22.555 -21.642  46.2110  0.00  0.00     0.000 OA
ATOM     53   O  IDS C   3      20.181 -21.419  45.8880  0.00  0.00     0.000 OA
ENDBRANCH 42 49
BRANCH 45 54
ATOM     54   C  IDS C   3      21.256 -14.745  46.5750  0.00  0.00     0.000 C
ATOM     55   O  IDS C   3      20.916 -14.631  45.4260  0.00  0.00     0.000 OA
ATOM     56   O  IDS C   3      20.976 -13.884  47.3860  0.00  0.00     0.000 OA
ENDBRANCH 45 54
BRANCH 41 57
ATOM     57  O4  SGN C   4      24.466 -17.588  46.5210  0.00  0.00     0.000 O
BRANCH 57 61
ATOM     58  C1  SGN C   4      27.757 -15.698  44.7520  0.00  0.00     0.000 C
ATOM     59  C2  SGN C   4      26.365 -15.201  44.3300  0.00  0.00     0.000 C
ATOM     60  C3  SGN C   4      25.288 -15.662  45.3210  0.00  0.00     0.000 C
ATOM     61  C4  SGN C   4      25.364 -17.171  45.4870  0.00  0.00     0.000 C
ATOM     62  C5  SGN C   4      26.779 -17.596  45.8770  0.00  0.00     0.000 C
ATOM     63  O5  SGN C   4      27.737 -17.108  44.9190  0.00  0.00     0.000 O
BRANCH 59 66
ATOM     64   N  SGN C   4      26.739 -13.975  43.6170  0.00  0.00     0.000 N
ATOM     66  HD  SGN C   4      26.574 -14.560  44.2330  0.00  0.00     0.000 HD
ATOM     66   O  SGN C   4      26.370 -11.691  42.8550  0.00  0.00     0.000 OA
ATOM     67   O  SGN C   4      24.507 -13.295  42.8690  0.00  0.00     0.000 OA
ATOM     68   S  SGN C   4      25.749 -12.712  43.6280  0.00  0.00     0.000 S
ATOM     69   O  SGN C   4      25.384 -12.442  44.9720  0.00  0.00     0.000 OA
ENDBRANCH 59 66
BRANCH 62 70
ATOM     70   C  SGN C   4      26.915 -19.097  45.9180  0.00  0.00     0.000 C
ATOM     71   S  SGN C   4      27.131 -21.184  44.4450  0.00  0.00     0.000 S
ATOM     72   O  SGN C   4      28.194 -21.664  45.3050  0.00  0.00     0.000 OA
ATOM     73   O  SGN C   4      25.812 -21.607  44.8710  0.00  0.00     0.000 OA
ATOM     74   O  SGN C   4      27.385 -21.398  43.0380  0.00  0.00     0.000 OA
ATOM     75   O  SGN C   4      27.165 -19.604  44.6020  0.00  0.00     0.000 O
ENDBRANCH 62 70
ENDBRANCH 57 61
ENDBRANCH 41 57
ENDBRANCH 40 44
ENDBRANCH 20 40
ENDBRANCH 19 23
ENDBRANCH 1 19
TORSDOF 14
ENDMDL
MODEL 95
REMARK VINA RESULT:      -4.6     21.551     25.415
ROOT
ATOM      1  C1  IDS C   1      10.913 -32.735   5.3330  0.00  0.00     0.000 C
ATOM      2  C2  IDS C   1      10.581 -31.635   6.3260  0.00  0.00     0.000 C
ATOM      3  C3  IDS C   1      11.833 -31.178   7.0650  0.00  0.00     0.000 C
ATOM      4  C4  IDS C   1      12.958 -30.839   6.0870  0.00  0.00     0.000 C
ATOM      5  C5  IDS C   1      13.144 -31.983   5.0700  0.00  0.00     0.000 C
ATOM      6  O5  IDS C   1      11.912 -32.279   4.4220  0.00  0.00     0.000 O
ATOM      7   O  IDS C   1      12.250 -32.200   7.9720  0.00  0.00     0.000 O
ATOM      9  HD  IDS C   1      13.005 -31.806   7.8160  0.00  0.00     0.000 HD
ATOM      9   O  IDS C   1      12.621 -29.631   5.3880  0.00  0.00     0.000 O
ATOM     11  HD  IDS C   1      13.377 -29.238   5.2320  0.00  0.00     0.000 HD
ENDROOT
BRANCH 2 11
ATOM     11   O  IDS C   1      10.022 -30.461   5.6180  0.00  0.00     0.000 O
ATOM     12   S  IDS C   1       8.519 -30.477   5.0760  0.00  0.00     0.000 S
ATOM     13   O  IDS C   1       8.115 -29.100   5.2530  0.00  0.00     0.000 OA
ATOM     14   O  IDS C   1       7.737 -31.400   5.8630  0.00  0.00     0.000 OA
ATOM     15   O  IDS C   1       8.637 -30.868   3.6930  0.00  0.00     0.000 OA
ENDBRANCH 2 11
BRANCH 5 16
ATOM     16   C  IDS C   1      14.168 -31.669   3.9950  0.00  0.00     0.000 C
ATOM     17   O  IDS C   1      13.845 -30.953   3.0710  0.00  0.00     0.000 OA
ATOM     18   O  IDS C   1      15.275 -32.131   4.0450  0.00  0.00     0.000 OA
ENDBRANCH 5 16
BRANCH 1 19
ATOM     19  O4  SGN C   2      11.055 -33.988   5.7770  0.00  0.00     0.000 O
BRANCH 19 23
ATOM     20  C1  SGN C   2      10.270 -38.012   4.9910  0.00  0.00     0.000 C
ATOM     21  C2  SGN C   2      11.025 -37.237   3.9050  0.00  0.00     0.000 C
ATOM     22  C3  SGN C   2      11.608 -35.956   4.4960  0.00  0.00     0.000 C
ATOM     23  C4  SGN C   2      10.493 -35.124   5.1190  0.00  0.00     0.000 C
ATOM     24  C5  SGN C   2       9.717 -35.971   6.1310  0.00  0.00     0.000 C
ATOM     25  O5  SGN C   2       9.244 -37.175   5.5000  0.00  0.00     0.000 O
ATOM     26   O  SGN C   2      12.300 -35.216   3.4970  0.00  0.00     0.000 O
ATOM     28  HD  SGN C   2      12.756 -34.864   2.8500  0.00  0.00     0.000 HD
BRANCH 21 30
ATOM     28   N  SGN C   2      10.812 -38.501   3.1870  0.00  0.00     0.000 N
ATOM     30  HD  SGN C   2      11.306 -39.178   3.4040  0.00  0.00     0.000 HD
ATOM     30   S  SGN C   2      11.693 -38.887   1.9090  0.00  0.00     0.000 S
ATOM     31   O  SGN C   2      13.047 -38.776   2.3370  0.00  0.00     0.000 OA
ATOM     32   O  SGN C   2      11.215 -40.114   1.3880  0.00  0.00     0.000 OA
ATOM     33   O  SGN C   2      11.347 -37.777   0.8590  0.00  0.00     0.000 OA
ENDBRANCH 21 30
BRANCH 24 34
ATOM     34   C  SGN C   2       8.498 -35.279   6.6950  0.00  0.00     0.000 C
ATOM     35   O  SGN C   2       8.753 -34.925   8.0650  0.00  0.00     0.000 O
ATOM     36   S  SGN C   2       7.483 -34.624   8.9850  0.00  0.00     0.000 S
ATOM     37   O  SGN C   2       6.641 -35.795   8.8460  0.00  0.00     0.000 OA
ATOM     38   O  SGN C   2       8.003 -34.445  10.3190  0.00  0.00     0.000 OA
ATOM     39   O  SGN C   2       6.917 -33.425   8.4160  0.00  0.00     0.000 OA
ENDBRANCH 24 34
BRANCH 20 40
ATOM     40  O4  IDS C   3      10.980 -38.500   6.0050  0.00  0.00     0.000 O
BRANCH 40 44
ATOM     41  C1  IDS C   3      13.089 -40.330   8.1560  0.00  0.00     0.000 C
ATOM     42  C2  IDS C   3      13.051 -40.602   6.6550  0.00  0.00     0.000 C
ATOM     43  C3  IDS C   3      11.613 -40.822   6.1920  0.00  0.00     0.000 C
ATOM     44  C4  IDS C   3      10.687 -39.722   6.6870  0.00  0.00     0.000 C
ATOM     45  C5  IDS C   3      10.870 -39.526   8.2070  0.00  0.00     0.000 C
ATOM     46  O5  IDS C   3      12.241 -39.235   8.4880  0.00  0.00     0.000 O
ATOM     47   O  IDS C   3      11.154 -42.089   6.6570  0.00  0.00     0.000 O
ATOM     49  HD  IDS C   3      11.623 -41.590   6.1270  0.00  0.00     0.000 HD
BRANCH 42 49
ATOM     49   O  IDS C   3      13.616 -39.451   5.9140  0.00  0.00     0.000 O
ATOM     50   S  IDS C   3      15.151 -39.478   5.4560  0.00  0.00     0.000 S
ATOM     51   O  IDS C   3      15.162 -40.451   4.3850  0.00  0.00     0.000 OA
ATOM     52   O  IDS C   3      15.984 -39.876   6.5790  0.00  0.00     0.000 OA
ATOM     53   O  IDS C   3      15.455 -38.138   5.0020  0.00  0.00     0.000 OA
ENDBRANCH 42 49
BRANCH 45 54
ATOM     54   C  IDS C   3      10.007 -38.413   8.7790  0.00  0.00     0.000 C
ATOM     55   O  IDS C   3       8.808 -38.518   8.7610  0.00  0.00     0.000 OA
ATOM     56   O  IDS C   3      10.529 -37.415   9.2370  0.00  0.00     0.000 OA
ENDBRANCH 45 54
BRANCH 41 57
ATOM     57  O4  SGN C   4      12.969 -41.513   8.7710  0.00  0.00     0.000 O
BRANCH 57 61
ATOM     58  C1  SGN C   4      13.380 -43.084  12.6300  0.00  0.00     0.000 C
ATOM     59  C2  SGN C   4      12.271 -42.040  12.4230  0.00  0.00     0.000 C
ATOM     60  C3  SGN C   4      11.954 -41.855  10.9330  0.00  0.00     0.000 C
ATOM     61  C4  SGN C   4      13.233 -41.535  10.1780  0.00  0.00     0.000 C
ATOM     62  C5  SGN C   4      14.297 -42.597  10.4520  0.00  0.00     0.000 C
ATOM     63  O5  SGN C   4      14.525 -42.733  11.8680  0.00  0.00     0.000 O
BRANCH 59 66
ATOM     64   N  SGN C   4      11.286 -42.499  13.4080  0.00  0.00     0.000 N
ATOM     66  HD  SGN C   4      11.665 -42.191  12.6930  0.00  0.00     0.000 HD
ATOM     66   O  SGN C   4       9.531 -42.164  15.0630  0.00  0.00     0.000 OA
ATOM     67   O  SGN C   4      11.454 -40.634  14.9870  0.00  0.00     0.000 OA
ATOM     68   S  SGN C   4      10.371 -41.430  14.1790  0.00  0.00     0.000 S
ATOM     69   O  SGN C   4       9.785 -40.566  13.2180  0.00  0.00     0.000 OA
ENDBRANCH 59 66
BRANCH 62 70
ATOM     70   C  SGN C   4      15.618 -42.233   9.8220  0.00  0.00     0.000 C
ATOM     71   S  SGN C   4      18.077 -41.729  10.3440  0.00  0.00     0.000 S
ATOM     72   O  SGN C   4      18.471 -42.588   9.2450  0.00  0.00     0.000 OA
ATOM     73   O  SGN C   4      17.866 -40.351   9.9480  0.00  0.00     0.000 OA
ATOM     74   O  SGN C   4      18.904 -41.877  11.5190  0.00  0.00     0.000 OA
ATOM     75   O  SGN C   4      16.661 -42.283  10.8030  0.00  0.00     0.000 O
ENDBRANCH 62 70
ENDBRANCH 57 61
ENDBRANCH 41 57
ENDBRANCH 40 44
ENDBRANCH 20 40
ENDBRANCH 19 23
ENDBRANCH 1 19
TORSDOF 14
ENDMDL
MODEL 96
REMARK VINA RESULT:      -4.6     41.849     44.744
ROOT
ATOM      1  C1  IDS C   1      41.788 -72.746  29.1060  0.00  0.00     0.000 C
ATOM      2  C2  IDS C   1      40.312 -72.986  29.3690  0.00  0.00     0.000 C
ATOM      3  C3  IDS C   1      39.466 -71.877  28.7560  0.00  0.00     0.000 C
ATOM      4  C4  IDS C   1      39.825 -71.656  27.2870  0.00  0.00     0.000 C
ATOM      5  C5  IDS C   1      41.353 -71.519  27.1260  0.00  0.00     0.000 C
ATOM      6  O5  IDS C   1      42.017 -72.639  27.7010  0.00  0.00     0.000 O
ATOM      7   O  IDS C   1      39.648 -70.672  29.5020  0.00  0.00     0.000 O
ATOM      9  HD  IDS C   1      39.439 -70.350  28.7260  0.00  0.00     0.000 HD
ATOM      9   O  IDS C   1      39.365 -72.780  26.5200  0.00  0.00     0.000 O
ATOM     11  HD  IDS C   1      39.156 -72.457  25.7440  0.00  0.00     0.000 HD
ENDROOT
BRANCH 2 11
ATOM     11   O  IDS C   1      39.886 -74.266  28.7590  0.00  0.00     0.000 O
ATOM     12   S  IDS C   1      39.126 -75.369  29.6300  0.00  0.00     0.000 S
ATOM     13   O  IDS C   1      38.218 -75.949  28.6650  0.00  0.00     0.000 OA
ATOM     14   O  IDS C   1      38.445 -74.726  30.7280  0.00  0.00     0.000 OA
ATOM     15   O  IDS C   1      40.164 -76.273  30.0570  0.00  0.00     0.000 OA
ENDBRANCH 2 11
BRANCH 5 16
ATOM     16   C  IDS C   1      41.796 -71.412  25.6780  0.00  0.00     0.000 C
ATOM     17   O  IDS C   1      42.196 -70.344  25.2670  0.00  0.00     0.000 OA
ATOM     18   O  IDS C   1      41.738 -72.361  24.9450  0.00  0.00     0.000 OA
ENDBRANCH 5 16
BRANCH 1 19
ATOM     19  O4  SGN C   2      42.451 -71.876  29.8730  0.00  0.00     0.000 O
BRANCH 19 23
ATOM     20  C1  SGN C   2      46.298 -70.639  30.9200  0.00  0.00     0.000 C
ATOM     21  C2  SGN C   2      45.564 -69.786  29.8790  0.00  0.00     0.000 C
ATOM     22  C3  SGN C   2      44.068 -70.087  29.9270  0.00  0.00     0.000 C
ATOM     23  C4  SGN C   2      43.838 -71.578  29.7080  0.00  0.00     0.000 C
ATOM     24  C5  SGN C   2      44.660 -72.385  30.7160  0.00  0.00     0.000 C
ATOM     25  O5  SGN C   2      46.046 -72.004  30.6310  0.00  0.00     0.000 O
ATOM     26   O  SGN C   2      43.373 -69.315  28.9550  0.00  0.00     0.000 O
ATOM     28  HD  SGN C   2      43.020 -68.762  28.3890  0.00  0.00     0.000 HD
BRANCH 21 30
ATOM     28   N  SGN C   2      46.673 -69.214  29.1040  0.00  0.00     0.000 N
ATOM     30  HD  SGN C   2      47.450 -69.166  29.4830  0.00  0.00     0.000 HD
ATOM     30   S  SGN C   2      47.057 -67.666  29.2250  0.00  0.00     0.000 S
ATOM     31   O  SGN C   2      47.246 -67.432  30.6170  0.00  0.00     0.000 OA
ATOM     32   O  SGN C   2      48.105 -67.391  28.3130  0.00  0.00     0.000 OA
ATOM     33   O  SGN C   2      45.785 -66.916  28.7000  0.00  0.00     0.000 OA
ENDBRANCH 21 30
BRANCH 24 34
ATOM     34   C  SGN C   2      44.613 -73.876  30.4830  0.00  0.00     0.000 C
ATOM     35   O  SGN C   2      43.695 -74.467  31.4210  0.00  0.00     0.000 O
ATOM     36   S  SGN C   2      43.833 -76.036  31.6810  0.00  0.00     0.000 S
ATOM     37   O  SGN C   2      45.223 -76.228  32.0450  0.00  0.00     0.000 OA
ATOM     38   O  SGN C   2      42.913 -76.335  32.7510  0.00  0.00     0.000 OA
ATOM     39   O  SGN C   2      43.471 -76.631  30.4180  0.00  0.00     0.000 OA
ENDBRANCH 24 34
BRANCH 20 40
ATOM     40  O4  IDS C   3      46.032 -70.407  32.2030  0.00  0.00     0.000 O
BRANCH 40 44
ATOM     41  C1  IDS C   3      45.570 -69.558  35.5940  0.00  0.00     0.000 C
ATOM     42  C2  IDS C   3      45.984 -68.515  34.5590  0.00  0.00     0.000 C
ATOM     43  C3  IDS C   3      47.203 -68.999  33.7760  0.00  0.00     0.000 C
ATOM     44  C4  IDS C   3      47.008 -70.411  33.2480  0.00  0.00     0.000 C
ATOM     45  C5  IDS C   3      46.544 -71.340  34.3900  0.00  0.00     0.000 C
ATOM     46  O5  IDS C   3      45.346 -70.820  34.9700  0.00  0.00     0.000 O
ATOM     47   O  IDS C   3      48.354 -68.948  34.6150  0.00  0.00     0.000 O
ATOM     49  HD  IDS C   3      47.745 -68.576  34.1250  0.00  0.00     0.000 HD
BRANCH 42 49
ATOM     49   O  IDS C   3      44.875 -68.273  33.6080  0.00  0.00     0.000 O
ATOM     50   S  IDS C   3      44.185 -66.829  33.5450  0.00  0.00     0.000 S
ATOM     51   O  IDS C   3      45.193 -66.004  32.9160  0.00  0.00     0.000 OA
ATOM     52   O  IDS C   3      43.863 -66.388  34.8920  0.00  0.00     0.000 OA
ATOM     53   O  IDS C   3      43.000 -66.990  32.7290  0.00  0.00     0.000 OA
ENDBRANCH 42 49
BRANCH 45 54
ATOM     54   C  IDS C   3      46.287 -72.769  33.9370  0.00  0.00     0.000 C
ATOM     55   O  IDS C   3      45.248 -73.306  34.2210  0.00  0.00     0.000 OA
ATOM     56   O  IDS C   3      47.137 -73.368  33.3070  0.00  0.00     0.000 OA
ENDBRANCH 45 54
BRANCH 41 57
ATOM     57  O4  SGN C   4      46.407 -69.434  36.6310  0.00  0.00     0.000 O
BRANCH 57 61
ATOM     58  C1  SGN C   4      46.372 -70.688  40.6250  0.00  0.00     0.000 C
ATOM     59  C2  SGN C   4      45.574 -71.541  39.6260  0.00  0.00     0.000 C
ATOM     60  C3  SGN C   4      45.991 -71.236  38.1810  0.00  0.00     0.000 C
ATOM     61  C4  SGN C   4      45.877 -69.743  37.9240  0.00  0.00     0.000 C
ATOM     62  C5  SGN C   4      46.668 -68.958  38.9690  0.00  0.00     0.000 C
ATOM     63  O5  SGN C   4      46.243 -69.312  40.2990  0.00  0.00     0.000 O
BRANCH 59 66
ATOM     64   N  SGN C   4      45.738 -72.915  40.1120  0.00  0.00     0.000 N
ATOM     66  HD  SGN C   4      45.593 -72.221  39.6150  0.00  0.00     0.000 HD
ATOM     66   O  SGN C   4      44.915 -75.095  40.8220  0.00  0.00     0.000 OA
ATOM     67   O  SGN C   4      43.721 -73.054  41.4950  0.00  0.00     0.000 OA
ATOM     68   S  SGN C   4      44.447 -73.838  40.3470  0.00  0.00     0.000 S
ATOM     69   O  SGN C   4      43.645 -73.790  39.1780  0.00  0.00     0.000 OA
ENDBRANCH 59 66
BRANCH 62 70
ATOM     70   C  SGN C   4      46.463 -67.471  38.8180  0.00  0.00     0.000 C
ATOM     71   S  SGN C   4      46.596 -65.238  40.0700  0.00  0.00     0.000 S
ATOM     72   O  SGN C   4      47.274 -64.655  38.9290  0.00  0.00     0.000 OA
ATOM     73   O  SGN C   4      45.153 -65.127  40.0000  0.00  0.00     0.000 OA
ATOM     74   O  SGN C   4      47.151 -64.832  41.3410  0.00  0.00     0.000 OA
ATOM     75   O  SGN C   4      46.928 -66.789  39.9890  0.00  0.00     0.000 O
ENDBRANCH 62 70
ENDBRANCH 57 61
ENDBRANCH 41 57
ENDBRANCH 40 44
ENDBRANCH 20 40
ENDBRANCH 19 23
ENDBRANCH 1 19
TORSDOF 14
ENDMDL
MODEL 97
REMARK VINA RESULT:      -4.5     21.892     25.161
ROOT
ATOM      1  C1  IDS C   1      15.950 -15.133  43.9900  0.00  0.00     0.000 C
ATOM      2  C2  IDS C   1      16.139 -14.539  42.6050  0.00  0.00     0.000 C
ATOM      3  C3  IDS C   1      16.171 -15.634  41.5470  0.00  0.00     0.000 C
ATOM      4  C4  IDS C   1      14.969 -16.569  41.6830  0.00  0.00     0.000 C
ATOM      5  C5  IDS C   1      14.819 -17.036  43.1450  0.00  0.00     0.000 C
ATOM      6  O5  IDS C   1      14.757 -15.916  44.0210  0.00  0.00     0.000 O
ATOM      7   O  IDS C   1      17.391 -16.369  41.6580  0.00  0.00     0.000 O
ATOM      9  HD  IDS C   1      16.874 -16.970  41.3110  0.00  0.00     0.000 HD
ATOM      9   O  IDS C   1      13.783 -15.865  41.2830  0.00  0.00     0.000 O
ATOM     11  HD  IDS C   1      13.265 -16.466  40.9350  0.00  0.00     0.000 HD
ENDROOT
BRANCH 2 11
ATOM     11   O  IDS C   1      15.014 -13.633  42.2810  0.00  0.00     0.000 O
ATOM     12   S  IDS C   1      15.242 -12.054  42.1880  0.00  0.00     0.000 S
ATOM     13   O  IDS C   1      14.324 -11.673  41.1370  0.00  0.00     0.000 OA
ATOM     14   O  IDS C   1      16.621 -11.789  41.8560  0.00  0.00     0.000 OA
ATOM     15   O  IDS C   1      14.865 -11.556  43.4880  0.00  0.00     0.000 OA
ENDBRANCH 2 11
BRANCH 5 16
ATOM     16   C  IDS C   1      13.577 -17.877  43.3810  0.00  0.00     0.000 C
ATOM     17   O  IDS C   1      13.693 -18.942  43.9500  0.00  0.00     0.000 OA
ATOM     18   O  IDS C   1      12.501 -17.506  43.0000  0.00  0.00     0.000 OA
ENDBRANCH 5 16
BRANCH 1 19
ATOM     19  O4  SGN C   2      17.006 -15.653  44.6220  0.00  0.00     0.000 O
BRANCH 19 23
ATOM     20  C1  SGN C   2      18.780 -16.340  48.3380  0.00  0.00     0.000 C
ATOM     21  C2  SGN C   2      17.560 -17.202  47.9920  0.00  0.00     0.000 C
ATOM     22  C3  SGN C   2      17.305 -17.153  46.4870  0.00  0.00     0.000 C
ATOM     23  C4  SGN C   2      17.124 -15.706  46.0450  0.00  0.00     0.000 C
ATOM     24  C5  SGN C   2      18.328 -14.872  46.4920  0.00  0.00     0.000 C
ATOM     25  O5  SGN C   2      18.520 -15.013  47.9110  0.00  0.00     0.000 O
ATOM     26   O  SGN C   2      16.165 -17.936  46.1500  0.00  0.00     0.000 O
ATOM     28  HD  SGN C   2      15.508 -18.485  46.0210  0.00  0.00     0.000 HD
BRANCH 21 30
ATOM     28   N  SGN C   2      18.018 -17.870  49.2170  0.00  0.00     0.000 N
ATOM     30  HD  SGN C   2      18.429 -18.629  49.1370  0.00  0.00     0.000 HD
ATOM     30   S  SGN C   2      17.124 -18.984  49.9380  0.00  0.00     0.000 S
ATOM     31   O  SGN C   2      16.827 -19.941  48.9270  0.00  0.00     0.000 OA
ATOM     32   O  SGN C   2      17.781 -19.389  51.1250  0.00  0.00     0.000 OA
ATOM     33   O  SGN C   2      15.831 -18.212  50.3720  0.00  0.00     0.000 OA
ENDBRANCH 21 30
BRANCH 24 34
ATOM     34   C  SGN C   2      18.173 -13.393  46.2280  0.00  0.00     0.000 C
ATOM     35   O  SGN C   2      18.949 -13.041  45.0680  0.00  0.00     0.000 O
ATOM     36   S  SGN C   2      19.317 -11.499  44.8820  0.00  0.00     0.000 S
ATOM     37   O  SGN C   2      19.950 -11.118  46.1300  0.00  0.00     0.000 OA
ATOM     38   O  SGN C   2      20.207 -11.445  43.7470  0.00  0.00     0.000 OA
ATOM     39   O  SGN C   2      18.043 -10.862  44.6540  0.00  0.00     0.000 OA
ENDBRANCH 24 34
BRANCH 20 40
ATOM     40  O4  IDS C   3      19.962 -16.728  47.8660  0.00  0.00     0.000 O
BRANCH 40 44
ATOM     41  C1  IDS C   3      23.065 -18.298  47.2890  0.00  0.00     0.000 C
ATOM     42  C2  IDS C   3      22.107 -18.797  48.3660  0.00  0.00     0.000 C
ATOM     43  C3  IDS C   3      21.690 -17.647  49.2800  0.00  0.00     0.000 C
ATOM     44  C4  IDS C   3      21.218 -16.439  48.4850  0.00  0.00     0.000 C
ATOM     45  C5  IDS C   3      22.261 -16.082  47.4050  0.00  0.00     0.000 C
ATOM     46  O5  IDS C   3      22.485 -17.216  46.5650  0.00  0.00     0.000 O
ATOM     47   O  IDS C   3      22.788 -17.282  50.1120  0.00  0.00     0.000 O
ATOM     49  HD  IDS C   3      22.137 -17.807  49.8860  0.00  0.00     0.000 HD
BRANCH 42 49
ATOM     49   O  IDS C   3      20.892 -19.371  47.7420  0.00  0.00     0.000 O
ATOM     50   S  IDS C   3      20.558 -20.925  47.9380  0.00  0.00     0.000 S
ATOM     51   O  IDS C   3      20.148 -21.005  49.3230  0.00  0.00     0.000 OA
ATOM     52   O  IDS C   3      21.747 -21.714  47.6620  0.00  0.00     0.000 OA
ATOM     53   O  IDS C   3      19.483 -21.221  47.0150  0.00  0.00     0.000 OA
ENDBRANCH 42 49
BRANCH 45 54
ATOM     54   C  IDS C   3      21.847 -14.905  46.5350  0.00  0.00     0.000 C
ATOM     55   O  IDS C   3      21.730 -13.812  47.0270  0.00  0.00     0.000 OA
ATOM     56   O  IDS C   3      21.620 -15.074  45.3530  0.00  0.00     0.000 OA
ENDBRANCH 45 54
BRANCH 41 57
ATOM     57  O4  SGN C   4      24.271 -18.185  47.8590  0.00  0.00     0.000 O
BRANCH 57 61
ATOM     58  C1  SGN C   4      28.149 -17.044  46.7680  0.00  0.00     0.000 C
ATOM     59  C2  SGN C   4      27.062 -15.961  46.6890  0.00  0.00     0.000 C
ATOM     60  C3  SGN C   4      25.814 -16.368  47.4840  0.00  0.00     0.000 C
ATOM     61  C4  SGN C   4      25.339 -17.734  47.0190  0.00  0.00     0.000 C
ATOM     62  C5  SGN C   4      26.476 -18.752  47.0970  0.00  0.00     0.000 C
ATOM     63  O5  SGN C   4      27.619 -18.294  46.3500  0.00  0.00     0.000 O
BRANCH 59 66
ATOM     64   N  SGN C   4      27.867 -14.758  46.4550  0.00  0.00     0.000 N
ATOM     66  HD  SGN C   4      27.508 -15.462  46.8090  0.00  0.00     0.000 HD
ATOM     66   O  SGN C   4      28.425 -12.407  46.7650  0.00  0.00     0.000 OA
ATOM     67   O  SGN C   4      26.073 -13.093  46.5610  0.00  0.00     0.000 OA
ATOM     68   S  SGN C   4      27.480 -13.384  47.1880  0.00  0.00     0.000 S
ATOM     69   O  SGN C   4      27.322 -13.645  48.5740  0.00  0.00     0.000 OA
ENDBRANCH 59 66
BRANCH 62 70
ATOM     70   C  SGN C   4      26.069 -20.083  46.5160  0.00  0.00     0.000 C
ATOM     71   S  SGN C   4      26.368 -21.619  44.4860  0.00  0.00     0.000 S
ATOM     72   O  SGN C   4      26.553 -22.743  45.3810  0.00  0.00     0.000 OA
ATOM     73   O  SGN C   4      24.983 -21.393  44.1260  0.00  0.00     0.000 OA
ATOM     74   O  SGN C   4      27.270 -21.625  43.3560  0.00  0.00     0.000 OA
ATOM     75   O  SGN C   4      26.823 -20.351  45.3280  0.00  0.00     0.000 O
ENDBRANCH 62 70
ENDBRANCH 57 61
ENDBRANCH 41 57
ENDBRANCH 40 44
ENDBRANCH 20 40
ENDBRANCH 19 23
ENDBRANCH 1 19
TORSDOF 14
ENDMDL
MODEL 98
REMARK VINA RESULT:      -4.4     21.204     26.315
ROOT
ATOM      1  C1  IDS C   1       7.093 -17.130  10.6810  0.00  0.00     0.000 C
ATOM      2  C2  IDS C   1       6.119 -16.425   9.7540  0.00  0.00     0.000 C
ATOM      3  C3  IDS C   1       5.739 -17.325   8.5840  0.00  0.00     0.000 C
ATOM      4  C4  IDS C   1       5.278 -18.699   9.0710  0.00  0.00     0.000 C
ATOM      5  C5  IDS C   1       6.294 -19.277  10.0770  0.00  0.00     0.000 C
ATOM      6  O5  IDS C   1       6.524 -18.356  11.1380  0.00  0.00     0.000 O
ATOM      7   O  IDS C   1       6.855 -17.456   7.7020  0.00  0.00     0.000 O
ATOM      9  HD  IDS C   1       6.439 -18.199   7.5450  0.00  0.00     0.000 HD
ATOM      9   O  IDS C   1       4.000 -18.562   9.7110  0.00  0.00     0.000 O
ATOM     11  HD  IDS C   1       3.584 -19.305   9.5550  0.00  0.00     0.000 HD
ENDROOT
BRANCH 2 11
ATOM     11   O  IDS C   1       4.876 -16.085  10.4810  0.00  0.00     0.000 O
ATOM     12   S  IDS C   1       4.485 -14.560  10.7550  0.00  0.00     0.000 S
ATOM     13   O  IDS C   1       3.041 -14.593  10.6660  0.00  0.00     0.000 OA
ATOM     14   O  IDS C   1       5.093 -13.722   9.7500  0.00  0.00     0.000 OA
ATOM     15   O  IDS C   1       4.971 -14.294  12.0860  0.00  0.00     0.000 OA
ENDBRANCH 2 11
BRANCH 5 16
ATOM     16   C  IDS C   1       5.847 -20.590  10.6930  0.00  0.00     0.000 C
ATOM     17   O  IDS C   1       4.960 -20.576  11.5190  0.00  0.00     0.000 OA
ATOM     18   O  IDS C   1       6.370 -21.625  10.3830  0.00  0.00     0.000 OA
ENDBRANCH 5 16
BRANCH 1 19
ATOM     19  O4  SGN C   2       8.387 -17.173  10.3510  0.00  0.00     0.000 O
BRANCH 19 23
ATOM     20  C1  SGN C   2      12.233 -17.540  11.9320  0.00  0.00     0.000 C
ATOM     21  C2  SGN C   2      11.121 -18.315  12.6490  0.00  0.00     0.000 C
ATOM     22  C3  SGN C   2       9.906 -18.438  11.7340  0.00  0.00     0.000 C
ATOM     23  C4  SGN C   2       9.446 -17.050  11.3020  0.00  0.00     0.000 C
ATOM     24  C5  SGN C   2      10.616 -16.289  10.6720  0.00  0.00     0.000 C
ATOM     25  O5  SGN C   2      11.728 -16.261  11.5850  0.00  0.00     0.000 O
ATOM     26   O  SGN C   2       8.857 -19.142  12.3900  0.00  0.00     0.000 O
ATOM     28  HD  SGN C   2       8.299 -19.636  12.8320  0.00  0.00     0.000 HD
BRANCH 21 30
ATOM     28   N  SGN C   2      12.304 -18.858  13.3290  0.00  0.00     0.000 N
ATOM     30  HD  SGN C   2      12.563 -19.657  13.1180  0.00  0.00     0.000 HD
ATOM     30   S  SGN C   2      12.164 -19.774  14.6330  0.00  0.00     0.000 S
ATOM     31   O  SGN C   2      11.274 -20.822  14.2630  0.00  0.00     0.000 OA
ATOM     32   O  SGN C   2      13.462 -20.083  15.1070  0.00  0.00     0.000 OA
ATOM     33   O  SGN C   2      11.502 -18.828  15.6930  0.00  0.00     0.000 OA
ENDBRANCH 21 30
BRANCH 24 34
ATOM     34   C  SGN C   2      10.296 -14.849  10.3460  0.00  0.00     0.000 C
ATOM     35   O  SGN C   2      10.168 -14.109  11.5730  0.00  0.00     0.000 O
ATOM     36   S  SGN C   2       9.384 -12.719  11.5030  0.00  0.00     0.000 S
ATOM     37   O  SGN C   2       8.108 -13.045  10.8970  0.00  0.00     0.000 OA
ATOM     38   O  SGN C   2       9.272 -12.267  12.8690  0.00  0.00     0.000 OA
ATOM     39   O  SGN C   2      10.227 -11.885  10.6810  0.00  0.00     0.000 OA
ENDBRANCH 24 34
BRANCH 20 40
ATOM     40  O4  IDS C   3      12.780 -18.101  10.8570  0.00  0.00     0.000 O
BRANCH 40 44
ATOM     41  C1  IDS C   3      14.715 -20.370   8.9770  0.00  0.00     0.000 C
ATOM     42  C2  IDS C   3      14.631 -20.462  10.4970  0.00  0.00     0.000 C
ATOM     43  C3  IDS C   3      14.956 -19.111  11.1300  0.00  0.00     0.000 C
ATOM     44  C4  IDS C   3      14.157 -17.985  10.4920  0.00  0.00     0.000 C
ATOM     45  C5  IDS C   3      14.296 -18.047   8.9560  0.00  0.00     0.000 C
ATOM     46  O5  IDS C   3      13.871 -19.329   8.4910  0.00  0.00     0.000 O
ATOM     47   O  IDS C   3      16.351 -18.850  11.0010  0.00  0.00     0.000 O
ATOM     49  HD  IDS C   3      15.676 -19.256  11.3610  0.00  0.00     0.000 HD
BRANCH 42 49
ATOM     49   O  IDS C   3      13.266 -20.863  10.9090  0.00  0.00     0.000 O
ATOM     50   S  IDS C   3      12.999 -22.355  11.4260  0.00  0.00     0.000 S
ATOM     51   O  IDS C   3      13.632 -22.376  12.7260  0.00  0.00     0.000 OA
ATOM     52   O  IDS C   3      13.597 -23.302  10.4990  0.00  0.00     0.000 OA
ATOM     53   O  IDS C   3      11.560 -22.500  11.4980  0.00  0.00     0.000 OA
ENDBRANCH 42 49
BRANCH 45 54
ATOM     54   C  IDS C   3      13.493 -16.975   8.2350  0.00  0.00     0.000 C
ATOM     55   O  IDS C   3      13.664 -15.816   8.5100  0.00  0.00     0.000 OA
ATOM     56   O  IDS C   3      12.671 -17.293   7.3980  0.00  0.00     0.000 OA
ENDBRANCH 45 54
BRANCH 41 57
ATOM     57  O4  SGN C   4      16.012 -20.420   8.6520  0.00  0.00     0.000 O
BRANCH 57 61
ATOM     58  C1  SGN C   4      18.326 -21.682   5.3990  0.00  0.00     0.000 C
ATOM     59  C2  SGN C   4      17.067 -20.860   5.0750  0.00  0.00     0.000 C
ATOM     60  C3  SGN C   4      16.551 -20.124   6.3180  0.00  0.00     0.000 C
ATOM     61  C4  SGN C   4      16.347 -21.119   7.4490  0.00  0.00     0.000 C
ATOM     62  C5  SGN C   4      17.626 -21.919   7.6960  0.00  0.00     0.000 C
ATOM     63  O5  SGN C   4      18.065 -22.560   6.4830  0.00  0.00     0.000 O
BRANCH 59 66
ATOM     64   N  SGN C   4      17.447 -20.050   3.9130  0.00  0.00     0.000 N
ATOM     66  HD  SGN C   4      17.053 -20.353   4.6220  0.00  0.00     0.000 HD
ATOM     66   O  SGN C   4      17.153 -19.204   1.6480  0.00  0.00     0.000 OA
ATOM     67   O  SGN C   4      16.681 -21.565   2.1470  0.00  0.00     0.000 OA
ATOM     68   S  SGN C   4      16.534 -20.069   2.5940  0.00  0.00     0.000 S
ATOM     69   O  SGN C   4      15.189 -19.832   2.9780  0.00  0.00     0.000 OA
ENDBRANCH 59 66
BRANCH 62 70
ATOM     70   C  SGN C   4      17.411 -23.004   8.7210  0.00  0.00     0.000 C
ATOM     71   S  SGN C   4      17.194 -25.541   9.0160  0.00  0.00     0.000 S
ATOM     72   O  SGN C   4      18.086 -25.471  10.1560  0.00  0.00     0.000 OA
ATOM     73   O  SGN C   4      15.799 -25.369   9.3670  0.00  0.00     0.000 OA
ATOM     74   O  SGN C   4      17.443 -26.676   8.1570  0.00  0.00     0.000 OA
ATOM     75   O  SGN C   4      17.585 -24.292   8.1170  0.00  0.00     0.000 O
ENDBRANCH 62 70
ENDBRANCH 57 61
ENDBRANCH 41 57
ENDBRANCH 40 44
ENDBRANCH 20 40
ENDBRANCH 19 23
ENDBRANCH 1 19
TORSDOF 14
ENDMDL
MODEL 99
REMARK VINA RESULT:      -4.4     19.792     24.756
ROOT
ATOM      1  C1  IDS C   1      16.401 -26.686  50.8430  0.00  0.00     0.000 C
ATOM      2  C2  IDS C   1      15.806 -27.879  50.1160  0.00  0.00     0.000 C
ATOM      3  C3  IDS C   1      16.067 -29.167  50.8860  0.00  0.00     0.000 C
ATOM      4  C4  IDS C   1      15.641 -29.032  52.3480  0.00  0.00     0.000 C
ATOM      5  C5  IDS C   1      16.224 -27.742  52.9570  0.00  0.00     0.000 C
ATOM      6  O5  IDS C   1      15.870 -26.613  52.1660  0.00  0.00     0.000 O
ATOM      7   O  IDS C   1      17.454 -29.502  50.7990  0.00  0.00     0.000 O
ATOM      9  HD  IDS C   1      17.245 -29.879  51.5500  0.00  0.00     0.000 HD
ATOM      9   O  IDS C   1      14.207 -28.984  52.4130  0.00  0.00     0.000 O
ATOM     11  HD  IDS C   1      13.999 -29.361  53.1650  0.00  0.00     0.000 HD
ENDROOT
BRANCH 2 11
ATOM     11   O  IDS C   1      14.340 -27.720  49.9880  0.00  0.00     0.000 O
ATOM     12   S  IDS C   1      13.649 -27.671  48.5480  0.00  0.00     0.000 S
ATOM     13   O  IDS C   1      12.385 -28.330  48.7930  0.00  0.00     0.000 OA
ATOM     14   O  IDS C   1      14.476 -28.373  47.5970  0.00  0.00     0.000 OA
ATOM     15   O  IDS C   1      13.517 -26.265  48.2570  0.00  0.00     0.000 OA
ENDBRANCH 2 11
BRANCH 5 16
ATOM     16   C  IDS C   1      15.749 -27.480  54.3750  0.00  0.00     0.000 C
ATOM     17   O  IDS C   1      15.954 -26.391  54.8680  0.00  0.00     0.000 OA
ATOM     18   O  IDS C   1      15.195 -28.337  55.0070  0.00  0.00     0.000 OA
ENDBRANCH 5 16
BRANCH 1 19
ATOM     19  O4  SGN C   2      17.709 -26.440  50.7250  0.00  0.00     0.000 O
BRANCH 19 23
ATOM     20  C1  SGN C   2      20.665 -23.492  50.7460  0.00  0.00     0.000 C
ATOM     21  C2  SGN C   2      19.945 -23.750  52.0760  0.00  0.00     0.000 C
ATOM     22  C3  SGN C   2      19.238 -25.102  52.0260  0.00  0.00     0.000 C
ATOM     23  C4  SGN C   2      18.279 -25.135  50.8410  0.00  0.00     0.000 C
ATOM     24  C5  SGN C   2      19.030 -24.786  49.5540  0.00  0.00     0.000 C
ATOM     25  O5  SGN C   2      19.700 -23.522  49.7070  0.00  0.00     0.000 O
ATOM     26   O  SGN C   2      18.551 -25.350  53.2470  0.00  0.00     0.000 O
ATOM     28  HD  SGN C   2      18.221 -25.454  54.0400  0.00  0.00     0.000 HD
BRANCH 21 30
ATOM     28   N  SGN C   2      21.107 -23.030  52.6140  0.00  0.00     0.000 N
ATOM     30  HD  SGN C   2      21.612 -23.442  53.1840  0.00  0.00     0.000 HD
ATOM     30   S  SGN C   2      21.021 -22.236  54.0000  0.00  0.00     0.000 S
ATOM     31   O  SGN C   2      20.536 -23.183  54.9470  0.00  0.00     0.000 OA
ATOM     32   O  SGN C   2      22.258 -21.584  54.2220  0.00  0.00     0.000 OA
ATOM     33   O  SGN C   2      19.956 -21.118  53.7330  0.00  0.00     0.000 OA
ENDBRANCH 21 30
BRANCH 24 34
ATOM     34   C  SGN C   2      18.133 -24.649  48.3460  0.00  0.00     0.000 C
ATOM     35   O  SGN C   2      18.609 -23.564  47.5310  0.00  0.00     0.000 O
ATOM     36   S  SGN C   2      17.580 -22.937  46.4840  0.00  0.00     0.000 S
ATOM     37   O  SGN C   2      16.416 -22.587  47.2750  0.00  0.00     0.000 OA
ATOM     38   O  SGN C   2      18.251 -21.794  45.9150  0.00  0.00     0.000 OA
ATOM     39   O  SGN C   2      17.348 -24.004  45.5420  0.00  0.00     0.000 OA
ENDBRANCH 24 34
BRANCH 20 40
ATOM     40  O4  IDS C   3      21.676 -24.297  50.4280  0.00  0.00     0.000 O
BRANCH 40 44
ATOM     41  C1  IDS C   3      24.698 -26.081  50.0950  0.00  0.00     0.000 C
ATOM     42  C2  IDS C   3      24.447 -25.150  51.2780  0.00  0.00     0.000 C
ATOM     43  C3  IDS C   3      24.005 -23.774  50.7860  0.00  0.00     0.000 C
ATOM     44  C4  IDS C   3      22.875 -23.874  49.7740  0.00  0.00     0.000 C
ATOM     45  C5  IDS C   3      23.248 -24.884  48.6680  0.00  0.00     0.000 C
ATOM     46  O5  IDS C   3      23.546 -26.150  49.2600  0.00  0.00     0.000 O
ATOM     47   O  IDS C   3      25.118 -23.099  50.2060  0.00  0.00     0.000 O
ATOM     49  HD  IDS C   3      24.668 -23.393  50.8840  0.00  0.00     0.000 HD
BRANCH 42 49
ATOM     49   O  IDS C   3      23.384 -25.706  52.1480  0.00  0.00     0.000 O
ATOM     50   S  IDS C   3      23.649 -25.869  53.7190  0.00  0.00     0.000 S
ATOM     51   O  IDS C   3      23.634 -24.506  54.2030  0.00  0.00     0.000 OA
ATOM     52   O  IDS C   3      24.932 -26.520  53.9280  0.00  0.00     0.000 OA
ATOM     53   O  IDS C   3      22.549 -26.660  54.2280  0.00  0.00     0.000 OA
ENDBRANCH 42 49
BRANCH 45 54
ATOM     54   C  IDS C   3      22.152 -25.075  47.6320  0.00  0.00     0.000 C
ATOM     55   O  IDS C   3      21.616 -26.147  47.5210  0.00  0.00     0.000 OA
ATOM     56   O  IDS C   3      21.833 -24.151  46.9090  0.00  0.00     0.000 OA
ENDBRANCH 45 54
BRANCH 41 57
ATOM     57  O4  SGN C   4      25.900 -25.766  49.5970  0.00  0.00     0.000 O
BRANCH 57 61
ATOM     58  C1  SGN C   4      29.098 -28.194  48.4140  0.00  0.00     0.000 C
ATOM     59  C2  SGN C   4      28.477 -27.295  47.3330  0.00  0.00     0.000 C
ATOM     60  C3  SGN C   4      27.622 -26.185  47.9600  0.00  0.00     0.000 C
ATOM     61  C4  SGN C   4      26.596 -26.801  48.8960  0.00  0.00     0.000 C
ATOM     62  C5  SGN C   4      27.280 -27.703  49.9220  0.00  0.00     0.000 C
ATOM     63  O5  SGN C   4      28.081 -28.703  49.2640  0.00  0.00     0.000 O
BRANCH 59 66
ATOM     64   N  SGN C   4      29.626 -26.929  46.4990  0.00  0.00     0.000 N
ATOM     66  HD  SGN C   4      28.861 -26.932  46.9050  0.00  0.00     0.000 HD
ATOM     66   O  SGN C   4      30.777 -26.633  44.3730  0.00  0.00     0.000 OA
ATOM     67   O  SGN C   4      29.329 -28.588  44.7220  0.00  0.00     0.000 OA
ATOM     68   S  SGN C   4      29.521 -27.043  44.9020  0.00  0.00     0.000 S
ATOM     69   O  SGN C   4      28.339 -26.379  44.4830  0.00  0.00     0.000 OA
ENDBRANCH 59 66
BRANCH 62 70
ATOM     70   C  SGN C   4      26.274 -28.432  50.7770  0.00  0.00     0.000 C
ATOM     71   S  SGN C   4      25.931 -30.523  52.2200  0.00  0.00     0.000 S
ATOM     72   O  SGN C   4      25.304 -29.701  53.2370  0.00  0.00     0.000 OA
ATOM     73   O  SGN C   4      24.996 -31.033  51.2380  0.00  0.00     0.000 OA
ATOM     74   O  SGN C   4      26.819 -31.528  52.7570  0.00  0.00     0.000 OA
ATOM     75   O  SGN C   4      26.901 -29.535  51.4420  0.00  0.00     0.000 O
ENDBRANCH 62 70
ENDBRANCH 57 61
ENDBRANCH 41 57
ENDBRANCH 40 44
ENDBRANCH 20 40
ENDBRANCH 19 23
ENDBRANCH 1 19
TORSDOF 14
ENDMDL
MODEL 100
REMARK VINA RESULT:      -4.4     21.032     25.051
ROOT
ATOM      1  C1  IDS C   1      12.673 -35.116   6.3320  0.00  0.00     0.000 C
ATOM      2  C2  IDS C   1      11.452 -34.375   5.8160  0.00  0.00     0.000 C
ATOM      3  C3  IDS C   1      10.995 -33.321   6.8170  0.00  0.00     0.000 C
ATOM      4  C4  IDS C   1      12.157 -32.422   7.2390  0.00  0.00     0.000 C
ATOM      5  C5  IDS C   1      13.371 -33.277   7.6540  0.00  0.00     0.000 C
ATOM      6  O5  IDS C   1      13.718 -34.186   6.6140  0.00  0.00     0.000 O
ATOM      7   O  IDS C   1      10.420 -33.963   7.9560  0.00  0.00     0.000 O
ATOM      9  HD  IDS C   1      10.696 -33.224   8.3120  0.00  0.00     0.000 HD
ATOM      9   O  IDS C   1      12.522 -31.581   6.1340  0.00  0.00     0.000 O
ATOM     11  HD  IDS C   1      12.798 -30.841   6.4900  0.00  0.00     0.000 HD
ENDROOT
BRANCH 2 11
ATOM     11   O  IDS C   1      11.773 -33.682   4.5480  0.00  0.00     0.000 O
ATOM     12   S  IDS C   1      11.769 -34.478   3.1620  0.00  0.00     0.000 S
ATOM     13   O  IDS C   1      11.293 -33.476   2.2340  0.00  0.00     0.000 OA
ATOM     14   O  IDS C   1      10.887 -35.615   3.2660  0.00  0.00     0.000 OA
ATOM     15   O  IDS C   1      13.147 -34.847   2.9520  0.00  0.00     0.000 OA
ENDBRANCH 2 11
BRANCH 5 16
ATOM     16   C  IDS C   1      14.604 -32.453   7.9770  0.00  0.00     0.000 C
ATOM     17   O  IDS C   1      14.466 -31.281   8.2570  0.00  0.00     0.000 OA
ATOM     18   O  IDS C   1      15.699 -32.943   7.9420  0.00  0.00     0.000 OA
ENDBRANCH 5 16
BRANCH 1 19
ATOM     19  O4  SGN C   2      12.507 -36.097   7.2240  0.00  0.00     0.000 O
BRANCH 19 23
ATOM     20  C1  SGN C   2      13.646 -39.966   8.3020  0.00  0.00     0.000 C
ATOM     21  C2  SGN C   2      14.647 -38.846   8.6110  0.00  0.00     0.000 C
ATOM     22  C3  SGN C   2      13.938 -37.495   8.5730  0.00  0.00     0.000 C
ATOM     23  C4  SGN C   2      13.270 -37.305   7.2150  0.00  0.00     0.000 C
ATOM     24  C5  SGN C   2      12.349 -38.492   6.9180  0.00  0.00     0.000 C
ATOM     25  O5  SGN C   2      13.090 -39.721   7.0210  0.00  0.00     0.000 O
ATOM     26   O  SGN C   2      14.856 -36.442   8.8420  0.00  0.00     0.000 O
ATOM     28  HD  SGN C   2      15.461 -35.870   9.0810  0.00  0.00     0.000 HD
BRANCH 21 30
ATOM     28   N  SGN C   2      15.187 -39.611   9.7430  0.00  0.00     0.000 N
ATOM     30  HD  SGN C   2      15.446 -39.172  10.4430  0.00  0.00     0.000 HD
ATOM     30   S  SGN C   2      16.761 -39.849   9.9080  0.00  0.00     0.000 S
ATOM     31   O  SGN C   2      17.344 -38.551   9.8570  0.00  0.00     0.000 OA
ATOM     32   O  SGN C   2      16.974 -40.676  11.0370  0.00  0.00     0.000 OA
ATOM     33   O  SGN C   2      17.154 -40.687   8.6440  0.00  0.00     0.000 OA
ENDBRANCH 21 30
BRANCH 24 34
ATOM     34   C  SGN C   2      11.755 -38.466   5.5300  0.00  0.00     0.000 C
ATOM     35   O  SGN C   2      12.197 -39.631   4.8110  0.00  0.00     0.000 O
ATOM     36   S  SGN C   2      12.094 -39.583   3.2190  0.00  0.00     0.000 S
ATOM     37   O  SGN C   2      12.803 -38.377   2.8390  0.00  0.00     0.000 OA
ATOM     38   O  SGN C   2      12.728 -40.793   2.7510  0.00  0.00     0.000 OA
ATOM     39   O  SGN C   2      10.676 -39.534   2.9620  0.00  0.00     0.000 OA
ENDBRANCH 24 34
BRANCH 20 40
ATOM     40  O4  IDS C   3      12.662 -40.169   9.1750  0.00  0.00     0.000 O
BRANCH 40 44
ATOM     41  C1  IDS C   3      10.552 -41.068  11.8520  0.00  0.00     0.000 C
ATOM     42  C2  IDS C   3      12.063 -41.270  11.9240  0.00  0.00     0.000 C
ATOM     43  C3  IDS C   3      12.555 -42.038  10.7000  0.00  0.00     0.000 C
ATOM     44  C4  IDS C   3      12.031 -41.431   9.4070  0.00  0.00     0.000 C
ATOM     45  C5  IDS C   3      10.503 -41.240   9.4980  0.00  0.00     0.000 C
ATOM     46  O5  IDS C   3      10.191 -40.427  10.6310  0.00  0.00     0.000 O
ATOM     47   O  IDS C   3      12.145 -43.399  10.7980  0.00  0.00     0.000 O
ATOM     49  HD  IDS C   3      12.648 -42.731  11.0220  0.00  0.00     0.000 HD
BRANCH 42 49
ATOM     49   O  IDS C   3      12.750 -39.959  11.9700  0.00  0.00     0.000 O
ATOM     50   S  IDS C   3      13.496 -39.500  13.3110  0.00  0.00     0.000 S
ATOM     51   O  IDS C   3      14.661 -40.357  13.3550  0.00  0.00     0.000 OA
ATOM     52   O  IDS C   3      12.613 -39.701  14.4480  0.00  0.00     0.000 OA
ATOM     53   O  IDS C   3      13.831 -38.105  13.1230  0.00  0.00     0.000 OA
ENDBRANCH 42 49
BRANCH 45 54
ATOM     54   C  IDS C   3       9.901 -40.600   8.2570  0.00  0.00     0.000 C
ATOM     55   O  IDS C   3       9.320 -39.550   8.3500  0.00  0.00     0.000 OA
ATOM     56   O  IDS C   3       9.995 -41.157   7.1810  0.00  0.00     0.000 OA
ENDBRANCH 45 54
BRANCH 41 57
ATOM     57  O4  SGN C   4       9.984 -42.221  12.2260  0.00  0.00     0.000 O
BRANCH 57 61
ATOM     58  C1  SGN C   4       6.376 -43.405  13.9890  0.00  0.00     0.000 C
ATOM     59  C2  SGN C   4       6.409 -43.349  12.4530  0.00  0.00     0.000 C
ATOM     60  C3  SGN C   4       7.852 -43.312  11.9310  0.00  0.00     0.000 C
ATOM     61  C4  SGN C   4       8.602 -42.168  12.5920  0.00  0.00     0.000 C
ATOM     62  C5  SGN C   4       8.502 -42.270  14.1130  0.00  0.00     0.000 C
ATOM     63  O5  SGN C   4       7.124 -42.325  14.5290  0.00  0.00     0.000 O
BRANCH 59 66
ATOM     64   N  SGN C   4       5.123 -43.928  12.0510  0.00  0.00     0.000 N
ATOM     66  HD  SGN C   4       5.901 -43.799  12.4090  0.00  0.00     0.000 HD
ATOM     66   O  SGN C   4       3.718 -45.459  10.7800  0.00  0.00     0.000 OA
ATOM     67   O  SGN C   4       5.650 -44.386   9.7030  0.00  0.00     0.000 OA
ATOM     68   S  SGN C   4       5.086 -45.115  10.9710  0.00  0.00     0.000 S
ATOM     69   O  SGN C   4       6.006 -46.116  11.3750  0.00  0.00     0.000 OA
ENDBRANCH 59 66
BRANCH 62 70
ATOM     70   C  SGN C   4       9.123 -41.074  14.7910  0.00  0.00     0.000 C
ATOM     71   S  SGN C   4       9.158 -39.737  16.9780  0.00  0.00     0.000 S
ATOM     72   O  SGN C   4      10.606 -39.701  16.9160  0.00  0.00     0.000 OA
ATOM     73   O  SGN C   4       8.526 -38.626  16.2950  0.00  0.00     0.000 OA
ATOM     74   O  SGN C   4       8.643 -39.974  18.3070  0.00  0.00     0.000 OA
ATOM     75   O  SGN C   4       8.751 -41.045  16.1740  0.00  0.00     0.000 O
ENDBRANCH 62 70
ENDBRANCH 57 61
ENDBRANCH 41 57
ENDBRANCH 40 44
ENDBRANCH 20 40
ENDBRANCH 19 23
ENDBRANCH 1 19
TORSDOF 14
ENDMDL
