MODEL 1
REMARK VINA RESULT:      -6.5      0.000      0.000
ROOT
ATOM      1  C1  A00 X   1      10.759   9.481  12.5810  0.00  0.00     0.000 C
ATOM      2  C2  A00 X   1      10.610   7.987  12.1880  0.00  0.00     0.000 C
ATOM      3  C3  A00 X   1       9.163   7.398  12.2640  0.00  0.00     0.000 C
ATOM      4  C4  A00 X   1       8.137   8.245  13.0590  0.00  0.00     0.000 C
ATOM      5  C5  A00 X   1       8.814   9.185  14.0560  0.00  0.00     0.000 C
ATOM      6  O5  A00 X   1       9.612  10.072  13.2410  0.00  0.00     0.000 O
ATOM      7   O  A00 X   1       9.221   6.125  12.9050  0.00  0.00     0.000 O
ATOM      9  HD  A00 X   1       8.523   6.535  13.2130  0.00  0.00     0.000 HD
ATOM      9   O  A00 X   1       7.292   8.995  12.1870  0.00  0.00     0.000 O
ATOM     11  HD  A00 X   1       6.594   9.405  12.4950  0.00  0.00     0.000 HD
ENDROOT
BRANCH 2 11
ATOM     11   O  A00 X   1      11.109   7.836  10.8440  0.00  0.00     0.000 O
ATOM     12   O  A00 X   1      10.784   5.815   9.5890  0.00  0.00     0.000 OA
ATOM     13   O  A00 X   1      12.133   5.756  11.6130  0.00  0.00     0.000 OA
ATOM     14   O  A00 X   1      12.908   6.908   9.6810  0.00  0.00     0.000 OA
ATOM     15   S  A00 X   1      11.757   6.472  10.4250  0.00  0.00     0.000 S
ENDBRANCH 2 11
BRANCH 5 16
ATOM     16   C  A00 X   1       9.610   8.489  15.1650  0.00  0.00     0.000 C
ATOM     17   O  A00 X   1       9.410   7.309  15.3710  0.00  0.00     0.000 OA
ATOM     18   O  A00 X   1      10.436   9.072  15.8390  0.00  0.00     0.000 OA
ENDBRANCH 5 16
BRANCH 1 19
ATOM     19  O4  A00 X   2      11.983   9.751  13.3080  0.00  0.00     0.000 O
BRANCH 19 23
ATOM     20  C1  A00 X   2      14.454  13.248  13.1380  0.00  0.00     0.000 C
ATOM     21  C2  A00 X   2      13.586  13.047  14.4040  0.00  0.00     0.000 C
ATOM     22  C3  A00 X   2      13.108  11.584  14.5160  0.00  0.00     0.000 C
ATOM     23  C4  A00 X   2      12.389  11.147  13.2200  0.00  0.00     0.000 C
ATOM     24  C5  A00 X   2      13.351  11.415  12.0300  0.00  0.00     0.000 C
ATOM     25  O5  A00 X   2      13.665  12.831  11.9930  0.00  0.00     0.000 O
ATOM     26   O  A00 X   2      12.367  11.433  15.7390  0.00  0.00     0.000 O
ATOM     28  HD  A00 X   2      11.865  12.120  15.5780  0.00  0.00     0.000 HD
BRANCH 21 30
ATOM     28   N  A00 X   2      13.279  14.479  14.4740  0.00  0.00     0.000 N
ATOM     30  HD  A00 X   2      13.145  14.155  15.2660  0.00  0.00     0.000 HD
ATOM     30   O  A00 X   2      13.227  15.102  16.7250  0.00  0.00     0.000 OA
ATOM     31   S  A00 X   2      12.331  14.995  15.6290  0.00  0.00     0.000 S
ATOM     32   O  A00 X   2      11.837  16.241  15.1300  0.00  0.00     0.000 OA
ATOM     33   O  A00 X   2      11.262  14.050  15.7540  0.00  0.00     0.000 OA
ENDBRANCH 21 30
BRANCH 24 34
ATOM     34   C  A00 X   2      12.963  10.852  10.6420  0.00  0.00     0.000 C
ATOM     35   O  A00 X   2      11.995  12.915   7.8020  0.00  0.00     0.000 OA
ATOM     36   O  A00 X   2      12.297  11.849   9.8420  0.00  0.00     0.000 O
ATOM     37   O  A00 X   2      14.032  13.158   8.9790  0.00  0.00     0.000 OA
ATOM     38   S  A00 X   2      13.035  12.245   8.5110  0.00  0.00     0.000 S
ATOM     39   O  A00 X   2      13.483  11.021   7.9180  0.00  0.00     0.000 OA
ENDBRANCH 24 34
BRANCH 20 40
ATOM     40  O4  A00 X   3      15.577  12.367  13.2940  0.00  0.00     0.000 O
BRANCH 40 44
ATOM     41  C1  A00 X   3      17.308  10.515  10.7060  0.00  0.00     0.000 C
ATOM     42  C2  A00 X   3      17.433  10.239  12.2200  0.00  0.00     0.000 C
ATOM     43  C3  A00 X   3      17.756  11.541  12.9970  0.00  0.00     0.000 C
ATOM     44  C4  A00 X   3      16.836  12.713  12.6780  0.00  0.00     0.000 C
ATOM     45  C5  A00 X   3      16.765  12.931  11.1400  0.00  0.00     0.000 C
ATOM     46  O5  A00 X   3      16.469  11.675  10.4480  0.00  0.00     0.000 O
ATOM     47   O  A00 X   3      17.980  11.392  14.3980  0.00  0.00     0.000 O
ATOM     49  HD  A00 X   3      17.539  12.136  14.4340  0.00  0.00     0.000 HD
BRANCH 42 49
ATOM     49   O  A00 X   3      16.180   9.663  12.6510  0.00  0.00     0.000 O
ATOM     50   O  A00 X   3      15.252   8.880  14.7140  0.00  0.00     0.000 OA
ATOM     51   O  A00 X   3      17.501   8.358  14.2040  0.00  0.00     0.000 OA
ATOM     52   O  A00 X   3      15.791   7.362  12.9110  0.00  0.00     0.000 OA
ATOM     53   S  A00 X   3      16.164   8.497  13.6820  0.00  0.00     0.000 S
ENDBRANCH 42 49
BRANCH 45 54
ATOM     54   C  A00 X   3      18.021  13.632  10.6080  0.00  0.00     0.000 C
ATOM     55   O  A00 X   3      19.049  13.633  11.2530  0.00  0.00     0.000 OA
ATOM     56   O  A00 X   3      18.008  14.202   9.5280  0.00  0.00     0.000 OA
ENDBRANCH 45 54
BRANCH 41 57
ATOM     57  O4  A00 X   4      18.601  10.570  10.0650  0.00  0.00     0.000 O
BRANCH 57 61
ATOM     58  C1  A00 X   4      19.866  10.032   5.9720  0.00  0.00     0.000 C
ATOM     59  C2  A00 X   4      19.476  11.454   6.4470  0.00  0.00     0.000 C
ATOM     60  C3  A00 X   4      19.394  11.589   7.9810  0.00  0.00     0.000 C
ATOM     61  C4  A00 X   4      18.578  10.443   8.6140  0.00  0.00     0.000 C
ATOM     62  C5  A00 X   4      19.267   9.125   8.1810  0.00  0.00     0.000 C
ATOM     63  O5  A00 X   4      19.198   9.003   6.7370  0.00  0.00     0.000 O
BRANCH 59 66
ATOM     64   N  A00 X   4      19.037  12.843   6.2250  0.00  0.00     0.000 N
ATOM     66  HD  A00 X   4      18.216  13.040   6.4220  0.00  0.00     0.000 HD
ATOM     66   O  A00 X   4      19.175  12.405   3.8620  0.00  0.00     0.000 OA
ATOM     67   S  A00 X   4      19.276  13.493   4.7840  0.00  0.00     0.000 S
ATOM     68   O  A00 X   4      18.198  14.438   4.7430  0.00  0.00     0.000 OA
ATOM     69   O  A00 X   4      20.569  14.084   4.9840  0.00  0.00     0.000 OA
ENDBRANCH 59 66
BRANCH 62 70
ATOM     70   C  A00 X   4      18.653   7.853   8.8120  0.00  0.00     0.000 C
ATOM     71   O  A00 X   4      15.916   5.820   7.5940  0.00  0.00     0.000 OA
ATOM     72   O  A00 X   4      16.316   6.737   9.7260  0.00  0.00     0.000 OA
ATOM     73   O  A00 X   4      17.760   7.239   7.8690  0.00  0.00     0.000 O
ATOM     74   O  A00 X   4      15.542   8.179   7.9210  0.00  0.00     0.000 OA
ATOM     75   S  A00 X   4      16.271   7.014   8.3080  0.00  0.00     0.000 S
ENDBRANCH 62 70
ENDBRANCH 57 61
ENDBRANCH 41 57
ENDBRANCH 40 44
ENDBRANCH 20 40
ENDBRANCH 19 23
ENDBRANCH 1 19
TORSDOF 14
ENDMDL
MODEL 2
REMARK VINA RESULT:      -6.4      3.061      9.161
ROOT
ATOM      1  C1  A00 X   1      15.544   8.869  11.3280  0.00  0.00     0.000 C
ATOM      2  C2  A00 X   1      16.263   7.790  10.4750  0.00  0.00     0.000 C
ATOM      3  C3  A00 X   1      16.449   6.391  11.1510  0.00  0.00     0.000 C
ATOM      4  C4  A00 X   1      16.234   6.356  12.6860  0.00  0.00     0.000 C
ATOM      5  C5  A00 X   1      16.418   7.732  13.3260  0.00  0.00     0.000 C
ATOM      6  O5  A00 X   1      15.387   8.554  12.7340  0.00  0.00     0.000 O
ATOM      7   O  A00 X   1      17.783   5.945  10.9180  0.00  0.00     0.000 O
ATOM      9  HD  A00 X   1      17.587   5.749  11.7390  0.00  0.00     0.000 HD
ATOM      9   O  A00 X   1      14.947   5.837  13.0210  0.00  0.00     0.000 O
ATOM     11  HD  A00 X   1      14.752   5.641  13.8410  0.00  0.00     0.000 HD
ENDROOT
BRANCH 2 11
ATOM     11   O  A00 X   1      15.516   7.627   9.2550  0.00  0.00     0.000 O
ATOM     12   O  A00 X   1      16.013   5.878   7.6860  0.00  0.00     0.000 OA
ATOM     13   O  A00 X   1      17.672   7.606   8.1070  0.00  0.00     0.000 OA
ATOM     14   O  A00 X   1      15.645   8.131   6.9790  0.00  0.00     0.000 OA
ATOM     15   S  A00 X   1      16.285   7.270   7.9360  0.00  0.00     0.000 S
ENDBRANCH 2 11
BRANCH 5 16
ATOM     16   C  A00 X   1      17.825   8.325  13.1940  0.00  0.00     0.000 C
ATOM     17   O  A00 X   1      18.743   7.584  12.9090  0.00  0.00     0.000 OA
ATOM     18   O  A00 X   1      18.052   9.507  13.3580  0.00  0.00     0.000 OA
ENDBRANCH 5 16
BRANCH 1 19
ATOM     19  O4  A00 X   2      16.100  10.194  11.1430  0.00  0.00     0.000 O
BRANCH 19 23
ATOM     20  C1  A00 X   2      12.272  12.120  11.0910  0.00  0.00     0.000 C
ATOM     21  C2  A00 X   2      12.946  11.832   9.7270  0.00  0.00     0.000 C
ATOM     22  C3  A00 X   2      14.064  10.780   9.8790  0.00  0.00     0.000 C
ATOM     23  C4  A00 X   2      15.073  11.211  10.9670  0.00  0.00     0.000 C
ATOM     24  C5  A00 X   2      14.275  11.487  12.2710  0.00  0.00     0.000 C
ATOM     25  O5  A00 X   2      13.311  12.541  12.0150  0.00  0.00     0.000 O
ATOM     26   O  A00 X   2      14.610  10.497   8.5790  0.00  0.00     0.000 O
ATOM     28  HD  A00 X   2      14.724  11.334   8.3890  0.00  0.00     0.000 HD
BRANCH 21 30
ATOM     28   N  A00 X   2      12.324  13.061   9.2250  0.00  0.00     0.000 N
ATOM     30  HD  A00 X   2      12.604  12.621   8.5340  0.00  0.00     0.000 HD
ATOM     30   O  A00 X   2      11.925  12.793   6.9390  0.00  0.00     0.000 OA
ATOM     31   S  A00 X   2      12.735  13.588   7.7920  0.00  0.00     0.000 S
ATOM     32   O  A00 X   2      12.391  14.976   7.8310  0.00  0.00     0.000 OA
ATOM     33   O  A00 X   2      14.154  13.430   7.6730  0.00  0.00     0.000 OA
ENDBRANCH 21 30
BRANCH 24 34
ATOM     34   C  A00 X   2      15.074  11.713  13.5760  0.00  0.00     0.000 C
ATOM     35   O  A00 X   2      15.009  14.804  15.4990  0.00  0.00     0.000 OA
ATOM     36   O  A00 X   2      15.137  13.113  13.9140  0.00  0.00     0.000 O
ATOM     37   O  A00 X   2      13.080  13.558  14.9340  0.00  0.00     0.000 OA
ATOM     38   S  A00 X   2      14.467  13.503  15.2820  0.00  0.00     0.000 S
ATOM     39   O  A00 X   2      14.874  12.510  16.2310  0.00  0.00     0.000 OA
ENDBRANCH 24 34
BRANCH 20 40
ATOM     40  O4  A00 X   3      11.723  10.867  11.5250  0.00  0.00     0.000 O
BRANCH 40 44
ATOM     41  C1  A00 X   3      11.224   8.355  14.0870  0.00  0.00     0.000 C
ATOM     42  C2  A00 X   3      10.654   8.276  12.6540  0.00  0.00     0.000 C
ATOM     43  C3  A00 X   3       9.907   9.583  12.2810  0.00  0.00     0.000 C
ATOM     44  C4  A00 X   3      10.697  10.860  12.5400  0.00  0.00     0.000 C
ATOM     45  C5  A00 X   3      11.232  10.867  14.0000  0.00  0.00     0.000 C
ATOM     46  O5  A00 X   3      11.920   9.612  14.3110  0.00  0.00     0.000 O
ATOM     47   O  A00 X   3       9.262   9.591  11.0090  0.00  0.00     0.000 O
ATOM     49  HD  A00 X   3       9.552  10.406  10.9930  0.00  0.00     0.000 HD
BRANCH 42 49
ATOM     49   O  A00 X   3      11.768   8.034  11.7680  0.00  0.00     0.000 O
ATOM     50   O  A00 X   3      12.066   7.661   9.4220  0.00  0.00     0.000 OA
ATOM     51   O  A00 X   3      10.258   6.610  10.5230  0.00  0.00     0.000 OA
ATOM     52   O  A00 X   3      12.454   5.908  11.0420  0.00  0.00     0.000 OA
ATOM     53   S  A00 X   3      11.644   6.996  10.6140  0.00  0.00     0.000 S
ENDBRANCH 42 49
BRANCH 45 54
ATOM     54   C  A00 X   3      10.130  11.217  15.0070  0.00  0.00     0.000 C
ATOM     55   O  A00 X   3      10.411  11.552  16.1400  0.00  0.00     0.000 OA
ATOM     56   O  A00 X   3       8.952  11.163  14.6890  0.00  0.00     0.000 OA
ENDBRANCH 45 54
BRANCH 41 57
ATOM     57  O4  A00 X   4      10.218   8.056  15.0800  0.00  0.00     0.000 O
BRANCH 57 61
ATOM     58  C1  A00 X   4      10.402   6.377  19.0530  0.00  0.00     0.000 C
ATOM     59  C2  A00 X   4      10.671   7.892  18.8750  0.00  0.00     0.000 C
ATOM     60  C3  A00 X   4      10.231   8.438  17.5010  0.00  0.00     0.000 C
ATOM     61  C4  A00 X   4      10.729   7.546  16.3440  0.00  0.00     0.000 C
ATOM     62  C5  A00 X   4      10.169   6.127  16.6150  0.00  0.00     0.000 C
ATOM     63  O5  A00 X   4      10.721   5.626  17.8590  0.00  0.00     0.000 O
BRANCH 59 66
ATOM     64   N  A00 X   4      12.055   7.420  19.0630  0.00  0.00     0.000 N
ATOM     66  HD  A00 X   4      12.191   6.565  19.0480  0.00  0.00     0.000 HD
ATOM     66   O  A00 X   4      11.880   8.130  21.3570  0.00  0.00     0.000 OA
ATOM     67   S  A00 X   4      12.866   7.939  20.3400  0.00  0.00     0.000 S
ATOM     68   O  A00 X   4      13.759   6.836  20.5450  0.00  0.00     0.000 OA
ATOM     69   O  A00 X   4      13.490   9.107  19.7860  0.00  0.00     0.000 OA
ENDBRANCH 59 66
BRANCH 62 70
ATOM     70   C  A00 X   4      10.471   5.103  15.4950  0.00  0.00     0.000 C
ATOM     71   O  A00 X   4      13.115   2.635  15.3420  0.00  0.00     0.000 OA
ATOM     72   O  A00 X   4      12.407   4.225  13.7570  0.00  0.00     0.000 OA
ATOM     73   O  A00 X   4      11.452   4.164  15.9630  0.00  0.00     0.000 O
ATOM     74   O  A00 X   4      13.714   4.945  15.6830  0.00  0.00     0.000 OA
ATOM     75   S  A00 X   4      12.778   4.016  15.1390  0.00  0.00     0.000 S
ENDBRANCH 62 70
ENDBRANCH 57 61
ENDBRANCH 41 57
ENDBRANCH 40 44
ENDBRANCH 20 40
ENDBRANCH 19 23
ENDBRANCH 1 19
TORSDOF 14
ENDMDL
MODEL 3
REMARK VINA RESULT:      -6.3      2.118      2.992
ROOT
ATOM      1  C1  A00 X   1      10.704   9.514  12.5840  0.00  0.00     0.000 C
ATOM      2  C2  A00 X   1      10.558   8.016  12.2060  0.00  0.00     0.000 C
ATOM      3  C3  A00 X   1       9.116   7.418  12.3120  0.00  0.00     0.000 C
ATOM      4  C4  A00 X   1       8.098   8.267  13.1170  0.00  0.00     0.000 C
ATOM      5  C5  A00 X   1       8.786   9.220  14.0940  0.00  0.00     0.000 C
ATOM      6  O5  A00 X   1       9.565  10.104  13.2580  0.00  0.00     0.000 O
ATOM      7   O  A00 X   1       9.192   6.152  12.9640  0.00  0.00     0.000 O
ATOM      9  HD  A00 X   1       8.497   6.561  13.2800  0.00  0.00     0.000 HD
ATOM      9   O  A00 X   1       7.234   9.004  12.2530  0.00  0.00     0.000 O
ATOM     11  HD  A00 X   1       6.538   9.412  12.5690  0.00  0.00     0.000 HD
ENDROOT
BRANCH 2 11
ATOM     11   O  A00 X   1      11.034   7.855  10.8560  0.00  0.00     0.000 O
ATOM     12   O  A00 X   1      10.697   5.822   9.6230  0.00  0.00     0.000 OA
ATOM     13   O  A00 X   1      12.080   5.786  11.6240  0.00  0.00     0.000 OA
ATOM     14   O  A00 X   1      12.817   6.925   9.6710  0.00  0.00     0.000 OA
ATOM     15   S  A00 X   1      11.681   6.490  10.4370  0.00  0.00     0.000 S
ENDBRANCH 2 11
BRANCH 5 16
ATOM     16   C  A00 X   1       9.605   8.539  15.1950  0.00  0.00     0.000 C
ATOM     17   O  A00 X   1      10.388   9.209  15.8360  0.00  0.00     0.000 OA
ATOM     18   O  A00 X   1       9.494   7.357  15.4540  0.00  0.00     0.000 OA
ENDBRANCH 5 16
BRANCH 1 19
ATOM     19  O4  A00 X   2      11.939   9.798  13.2870  0.00  0.00     0.000 O
BRANCH 19 23
ATOM     20  C1  A00 X   2      14.542  13.156  12.7260  0.00  0.00     0.000 C
ATOM     21  C2  A00 X   2      13.754  13.076  14.0560  0.00  0.00     0.000 C
ATOM     22  C3  A00 X   2      13.221  11.648  14.2950  0.00  0.00     0.000 C
ATOM     23  C4  A00 X   2      12.398  11.164  13.0800  0.00  0.00     0.000 C
ATOM     24  C5  A00 X   2      13.288  11.310  11.8160  0.00  0.00     0.000 C
ATOM     25  O5  A00 X   2      13.659  12.705  11.6640  0.00  0.00     0.000 O
ATOM     26   O  A00 X   2      12.558  11.610  15.5710  0.00  0.00     0.000 O
ATOM     28  HD  A00 X   2      12.077  12.309  15.3980  0.00  0.00     0.000 HD
BRANCH 21 30
ATOM     28   N  A00 X   2      13.511  14.522  14.0520  0.00  0.00     0.000 N
ATOM     30  HD  A00 X   2      13.419  14.256  14.8700  0.00  0.00     0.000 HD
ATOM     30   O  A00 X   2      13.642  15.289  16.2550  0.00  0.00     0.000 OA
ATOM     31   S  A00 X   2      12.668  15.154  15.2300  0.00  0.00     0.000 S
ATOM     32   O  A00 X   2      12.192  16.387  14.6830  0.00  0.00     0.000 OA
ATOM     33   O  A00 X   2      11.572  14.268  15.4880  0.00  0.00     0.000 OA
ENDBRANCH 21 30
BRANCH 24 34
ATOM     34   C  A00 X   2      12.783  10.681  10.4960  0.00  0.00     0.000 C
ATOM     35   O  A00 X   2      11.952  12.591   7.5100  0.00  0.00     0.000 OA
ATOM     36   O  A00 X   2      12.206  11.677   9.6280  0.00  0.00     0.000 O
ATOM     37   O  A00 X   2      14.048  12.689   8.6010  0.00  0.00     0.000 OA
ATOM     38   S  A00 X   2      12.933  11.865   8.2470  0.00  0.00     0.000 S
ATOM     39   O  A00 X   2      13.212  10.549   7.7540  0.00  0.00     0.000 OA
ENDBRANCH 24 34
BRANCH 20 40
ATOM     40  O4  A00 X   3      15.633  12.234  12.8670  0.00  0.00     0.000 O
BRANCH 40 44
ATOM     41  C1  A00 X   3      17.567   9.344  11.8530  0.00  0.00     0.000 C
ATOM     42  C2  A00 X   3      17.926  10.274  13.0320  0.00  0.00     0.000 C
ATOM     43  C3  A00 X   3      17.917  11.760  12.5890  0.00  0.00     0.000 C
ATOM     44  C4  A00 X   3      16.657  12.192  11.8500  0.00  0.00     0.000 C
ATOM     45  C5  A00 X   3      16.365  11.213  10.6780  0.00  0.00     0.000 C
ATOM     46  O5  A00 X   3      16.394   9.823  11.1390  0.00  0.00     0.000 O
ATOM     47   O  A00 X   3      18.320  12.706  13.5770  0.00  0.00     0.000 O
ATOM     49  HD  A00 X   3      17.680  13.174  13.2280  0.00  0.00     0.000 HD
BRANCH 42 49
ATOM     49   O  A00 X   3      16.959  10.027  14.0750  0.00  0.00     0.000 O
ATOM     50   O  A00 X   3      16.474  10.933  16.2370  0.00  0.00     0.000 OA
ATOM     51   O  A00 X   3      18.731  10.586  15.6260  0.00  0.00     0.000 OA
ATOM     52   O  A00 X   3      17.353   8.697  15.9700  0.00  0.00     0.000 OA
ATOM     53   S  A00 X   3      17.389  10.062  15.5710  0.00  0.00     0.000 S
ENDBRANCH 42 49
BRANCH 45 54
ATOM     54   C  A00 X   3      17.286  11.471   9.4800  0.00  0.00     0.000 C
ATOM     55   O  A00 X   3      17.021  11.017   8.3860  0.00  0.00     0.000 OA
ATOM     56   O  A00 X   3      18.303  12.136   9.6050  0.00  0.00     0.000 OA
ENDBRANCH 45 54
BRANCH 41 57
ATOM     57  O4  A00 X   4      18.709   9.092  11.0040  0.00  0.00     0.000 O
BRANCH 57 61
ATOM     58  C1  A00 X   4      19.587   5.835   8.3100  0.00  0.00     0.000 C
ATOM     59  C2  A00 X   4      19.160   7.198   7.7100  0.00  0.00     0.000 C
ATOM     60  C3  A00 X   4      19.225   8.361   8.7210  0.00  0.00     0.000 C
ATOM     61  C4  A00 X   4      18.548   7.996  10.0590  0.00  0.00     0.000 C
ATOM     62  C5  A00 X   4      19.270   6.728  10.5810  0.00  0.00     0.000 C
ATOM     63  O5  A00 X   4      19.063   5.641   9.6430  0.00  0.00     0.000 O
BRANCH 59 66
ATOM     64   N  A00 X   4      17.953   6.365   7.5620  0.00  0.00     0.000 N
ATOM     66  HD  A00 X   4      17.956   5.586   7.9390  0.00  0.00     0.000 HD
ATOM     66   O  A00 X   4      18.543   6.099   5.2430  0.00  0.00     0.000 OA
ATOM     67   S  A00 X   4      17.391   6.103   6.0880  0.00  0.00     0.000 S
ATOM     68   O  A00 X   4      16.759   4.829   6.2750  0.00  0.00     0.000 OA
ATOM     69   O  A00 X   4      16.475   7.201   5.9670  0.00  0.00     0.000 OA
ENDBRANCH 59 66
BRANCH 62 70
ATOM     70   C  A00 X   4      18.801   6.265  11.9810  0.00  0.00     0.000 C
ATOM     71   O  A00 X   4      15.832   4.393  12.8680  0.00  0.00     0.000 OA
ATOM     72   O  A00 X   4      16.723   6.375  13.7740  0.00  0.00     0.000 OA
ATOM     73   O  A00 X   4      17.707   5.345  11.8360  0.00  0.00     0.000 O
ATOM     74   O  A00 X   4      15.573   6.444  11.6260  0.00  0.00     0.000 OA
ATOM     75   S  A00 X   4      16.356   5.692  12.5530  0.00  0.00     0.000 S
ENDBRANCH 62 70
ENDBRANCH 57 61
ENDBRANCH 41 57
ENDBRANCH 40 44
ENDBRANCH 20 40
ENDBRANCH 19 23
ENDBRANCH 1 19
TORSDOF 14
ENDMDL
MODEL 4
REMARK VINA RESULT:      -6.2      2.993      5.672
ROOT
ATOM      1  C1  A00 X   1      12.579   6.987  14.4220  0.00  0.00     0.000 C
ATOM      2  C2  A00 X   1      11.176   6.858  13.7710  0.00  0.00     0.000 C
ATOM      3  C3  A00 X   1      10.232   5.770  14.3830  0.00  0.00     0.000 C
ATOM      4  C4  A00 X   1      10.922   4.724  15.2950  0.00  0.00     0.000 C
ATOM      5  C5  A00 X   1      12.419   4.604  15.0080  0.00  0.00     0.000 C
ATOM      6  O5  A00 X   1      12.957   5.910  15.3150  0.00  0.00     0.000 O
ATOM      7   O  A00 X   1       9.624   5.042  13.3190  0.00  0.00     0.000 O
ATOM      9  HD  A00 X   1       9.843   4.468  13.9290  0.00  0.00     0.000 HD
ATOM      9   O  A00 X   1      10.718   5.021  16.6760  0.00  0.00     0.000 O
ATOM     11  HD  A00 X   1      10.937   4.446  17.2870  0.00  0.00     0.000 HD
ENDROOT
BRANCH 2 11
ATOM     11   O  A00 X   1      10.531   8.143  13.8610  0.00  0.00     0.000 O
ATOM     12   O  A00 X   1       8.219   8.447  13.2870  0.00  0.00     0.000 OA
ATOM     13   O  A00 X   1       9.795   7.774  11.5610  0.00  0.00     0.000 OA
ATOM     14   O  A00 X   1       9.911   9.949  12.5170  0.00  0.00     0.000 OA
ATOM     15   S  A00 X   1       9.540   8.575  12.7260  0.00  0.00     0.000 S
ENDBRANCH 2 11
BRANCH 5 16
ATOM     16   C  A00 X   1      12.771   4.112  13.6010  0.00  0.00     0.000 C
ATOM     17   O  A00 X   1      11.942   3.476  12.9830  0.00  0.00     0.000 OA
ATOM     18   O  A00 X   1      13.845   4.340  13.0800  0.00  0.00     0.000 OA
ENDBRANCH 5 16
BRANCH 1 19
ATOM     19  O4  A00 X   2      13.622   7.262  13.4550  0.00  0.00     0.000 O
BRANCH 19 23
ATOM     20  C1  A00 X   2      17.284   9.462  13.8060  0.00  0.00     0.000 C
ATOM     21  C2  A00 X   2      17.280   7.996  14.3040  0.00  0.00     0.000 C
ATOM     22  C3  A00 X   2      16.074   7.224  13.7300  0.00  0.00     0.000 C
ATOM     23  C4  A00 X   2      14.755   7.967  14.0410  0.00  0.00     0.000 C
ATOM     24  C5  A00 X   2      14.893   9.420  13.5110  0.00  0.00     0.000 C
ATOM     25  O5  A00 X   2      16.013  10.057  14.1790  0.00  0.00     0.000 O
ATOM     26   O  A00 X   2      16.153   5.856  14.1650  0.00  0.00     0.000 O
ATOM     28  HD  A00 X   2      16.268   6.073  14.9950  0.00  0.00     0.000 HD
BRANCH 21 30
ATOM     28   N  A00 X   2      18.212   8.391  15.3640  0.00  0.00     0.000 N
ATOM     30  HD  A00 X   2      18.238   7.527  15.3170  0.00  0.00     0.000 HD
ATOM     30   O  A00 X   2      19.603   6.572  15.8250  0.00  0.00     0.000 OA
ATOM     31   S  A00 X   2      18.593   7.331  16.4730  0.00  0.00     0.000 S
ATOM     32   O  A00 X   2      19.048   8.133  17.5660  0.00  0.00     0.000 OA
ATOM     33   O  A00 X   2      17.390   6.640  16.8300  0.00  0.00     0.000 OA
ENDBRANCH 21 30
BRANCH 24 34
ATOM     34   C  A00 X   2      13.626  10.308  13.4910  0.00  0.00     0.000 C
ATOM     35   O  A00 X   2      11.893  11.460  16.4790  0.00  0.00     0.000 OA
ATOM     36   O  A00 X   2      12.968  10.309  14.7730  0.00  0.00     0.000 O
ATOM     37   O  A00 X   2      14.189  11.839  16.0530  0.00  0.00     0.000 OA
ATOM     38   S  A00 X   2      12.883  11.710  15.4830  0.00  0.00     0.000 S
ATOM     39   O  A00 X   2      12.503  12.652  14.4740  0.00  0.00     0.000 OA
ENDBRANCH 24 34
BRANCH 20 40
ATOM     40  O4  A00 X   3      17.376   9.385  12.3760  0.00  0.00     0.000 O
BRANCH 40 44
ATOM     41  C1  A00 X   3      15.853  10.862   9.4390  0.00  0.00     0.000 C
ATOM     42  C2  A00 X   3      16.840   9.675   9.4160  0.00  0.00     0.000 C
ATOM     43  C3  A00 X   3      18.117   9.999  10.2320  0.00  0.00     0.000 C
ATOM     44  C4  A00 X   3      17.854  10.529  11.6360  0.00  0.00     0.000 C
ATOM     45  C5  A00 X   3      16.859  11.722  11.5760  0.00  0.00     0.000 C
ATOM     46  O5  A00 X   3      15.675  11.376  10.7880  0.00  0.00     0.000 O
ATOM     47   O  A00 X   3      19.140   9.005  10.2090  0.00  0.00     0.000 O
ATOM     49  HD  A00 X   3      19.221   9.229  11.0420  0.00  0.00     0.000 HD
BRANCH 42 49
ATOM     49   O  A00 X   3      16.141   8.533   9.9590  0.00  0.00     0.000 O
ATOM     50   O  A00 X   3      16.656   6.238  10.4050  0.00  0.00     0.000 OA
ATOM     51   O  A00 X   3      17.422   7.208   8.3900  0.00  0.00     0.000 OA
ATOM     52   O  A00 X   3      15.099   6.872   8.6670  0.00  0.00     0.000 OA
ATOM     53   S  A00 X   3      16.332   7.122   9.3300  0.00  0.00     0.000 S
ENDBRANCH 42 49
BRANCH 45 54
ATOM     54   C  A00 X   3      17.544  13.009  11.1020  0.00  0.00     0.000 C
ATOM     55   O  A00 X   3      18.750  13.056  10.9710  0.00  0.00     0.000 OA
ATOM     56   O  A00 X   3      16.890  14.009  10.8500  0.00  0.00     0.000 OA
ENDBRANCH 45 54
BRANCH 41 57
ATOM     57  O4  A00 X   4      16.210  11.872   8.4690  0.00  0.00     0.000 O
BRANCH 57 61
ATOM     58  C1  A00 X   4      13.508  14.199   6.0350  0.00  0.00     0.000 C
ATOM     59  C2  A00 X   4      14.587  14.941   6.8610  0.00  0.00     0.000 C
ATOM     60  C3  A00 X   4      15.700  14.015   7.3930  0.00  0.00     0.000 C
ATOM     61  C4  A00 X   4      15.122  12.749   8.0610  0.00  0.00     0.000 C
ATOM     62  C5  A00 X   4      14.245  12.053   6.9910  0.00  0.00     0.000 C
ATOM     63  O5  A00 X   4      13.148  12.931   6.6290  0.00  0.00     0.000 O
BRANCH 59 66
ATOM     64   N  A00 X   4      13.260  15.121   7.4770  0.00  0.00     0.000 N
ATOM     66  HD  A00 X   4      12.592  14.705   7.1150  0.00  0.00     0.000 HD
ATOM     66   O  A00 X   4      13.294  17.383   6.6510  0.00  0.00     0.000 OA
ATOM     67   S  A00 X   4      12.731  16.612   7.7150  0.00  0.00     0.000 S
ATOM     68   O  A00 X   4      11.315  16.399   7.6400  0.00  0.00     0.000 OA
ATOM     69   O  A00 X   4      13.221  16.845   9.0440  0.00  0.00     0.000 OA
ENDBRANCH 59 66
BRANCH 62 70
ATOM     70   C  A00 X   4      13.659  10.694   7.4410  0.00  0.00     0.000 C
ATOM     71   O  A00 X   4      10.658  10.048   9.3610  0.00  0.00     0.000 OA
ATOM     72   O  A00 X   4      12.854   9.239   9.6270  0.00  0.00     0.000 OA
ATOM     73   O  A00 X   4      12.335  10.896   7.9620  0.00  0.00     0.000 O
ATOM     74   O  A00 X   4      12.325  11.524  10.2880  0.00  0.00     0.000 OA
ATOM     75   S  A00 X   4      12.044  10.420   9.4280  0.00  0.00     0.000 S
ENDBRANCH 62 70
ENDBRANCH 57 61
ENDBRANCH 41 57
ENDBRANCH 40 44
ENDBRANCH 20 40
ENDBRANCH 19 23
ENDBRANCH 1 19
TORSDOF 14
ENDMDL
MODEL 5
REMARK VINA RESULT:      -6.0      3.677      8.386
ROOT
ATOM      1  C1  A00 X   1      13.627   8.094  16.6030  0.00  0.00     0.000 C
ATOM      2  C2  A00 X   1      13.809   9.076  17.7900  0.00  0.00     0.000 C
ATOM      3  C3  A00 X   1      14.396  10.482  17.4350  0.00  0.00     0.000 C
ATOM      4  C4  A00 X   1      15.059  10.596  16.0380  0.00  0.00     0.000 C
ATOM      5  C5  A00 X   1      15.503   9.237  15.4970  0.00  0.00     0.000 C
ATOM      6  O5  A00 X   1      14.280   8.477  15.3670  0.00  0.00     0.000 O
ATOM      7   O  A00 X   1      15.403  10.811  18.3890  0.00  0.00     0.000 O
ATOM      9  HD  A00 X   1      15.698  11.055  17.6120  0.00  0.00     0.000 HD
ATOM      9   O  A00 X   1      14.191  11.229  15.0980  0.00  0.00     0.000 O
ATOM     11  HD  A00 X   1      14.486  11.473  14.3210  0.00  0.00     0.000 HD
ENDROOT
BRANCH 2 11
ATOM     11   O  A00 X   1      12.523   9.250  18.4160  0.00  0.00     0.000 O
ATOM     12   O  A00 X   1      12.232  10.633  20.3580  0.00  0.00     0.000 OA
ATOM     13   O  A00 X   1      13.624   8.644  20.5110  0.00  0.00     0.000 OA
ATOM     14   O  A00 X   1      11.271   8.449  20.2170  0.00  0.00     0.000 OA
ATOM     15   S  A00 X   1      12.437   9.257  19.9820  0.00  0.00     0.000 S
ENDBRANCH 2 11
BRANCH 5 16
ATOM     16   C  A00 X   1      16.579   8.529  16.3260  0.00  0.00     0.000 C
ATOM     17   O  A00 X   1      16.831   7.367  16.0810  0.00  0.00     0.000 OA
ATOM     18   O  A00 X   1      17.192   9.090  17.2120  0.00  0.00     0.000 OA
ENDBRANCH 5 16
BRANCH 1 19
ATOM     19  O4  A00 X   2      13.931   6.722  16.9570  0.00  0.00     0.000 O
BRANCH 19 23
ATOM     20  C1  A00 X   2      10.719   5.096  14.6330  0.00  0.00     0.000 C
ATOM     21  C2  A00 X   2      10.493   5.247  16.1570  0.00  0.00     0.000 C
ATOM     22  C3  A00 X   2      11.524   6.218  16.7710  0.00  0.00     0.000 C
ATOM     23  C4  A00 X   2      12.963   5.778  16.4190  0.00  0.00     0.000 C
ATOM     24  C5  A00 X   2      13.053   5.645  14.8740  0.00  0.00     0.000 C
ATOM     25  O5  A00 X   2      12.089   4.655  14.4320  0.00  0.00     0.000 O
ATOM     26   O  A00 X   2      11.230   6.377  18.1700  0.00  0.00     0.000 O
ATOM     28  HD  A00 X   2      11.190   5.523  18.3100  0.00  0.00     0.000 HD
BRANCH 21 30
ATOM     28   N  A00 X   2       9.632   4.064  16.0640  0.00  0.00     0.000 N
ATOM     30  HD  A00 X   2       9.497   4.412  16.8450  0.00  0.00     0.000 HD
ATOM     30   O  A00 X   2       8.028   4.197  17.7570  0.00  0.00     0.000 OA
ATOM     31   S  A00 X   2       9.134   3.382  17.4000  0.00  0.00     0.000 S
ATOM     32   O  A00 X   2       8.798   2.052  16.9950  0.00  0.00     0.000 OA
ATOM     33   O  A00 X   2      10.245   3.361  18.3040  0.00  0.00     0.000 OA
ENDBRANCH 21 30
BRANCH 24 34
ATOM     34   C  A00 X   2      14.451   5.440  14.2440  0.00  0.00     0.000 C
ATOM     35   O  A00 X   2      16.673   2.674  15.0660  0.00  0.00     0.000 OA
ATOM     36   O  A00 X   2      15.231   4.492  15.0010  0.00  0.00     0.000 O
ATOM     37   O  A00 X   2      14.453   2.402  14.2950  0.00  0.00     0.000 OA
ATOM     38   S  A00 X   2      15.645   3.191  14.2220  0.00  0.00     0.000 S
ATOM     39   O  A00 X   2      16.081   3.616  12.9260  0.00  0.00     0.000 OA
ENDBRANCH 24 34
BRANCH 20 40
ATOM     40  O4  A00 X   3      10.554   6.412  14.0840  0.00  0.00     0.000 O
BRANCH 40 44
ATOM     41  C1  A00 X   3      12.019   8.966  11.9730  0.00  0.00     0.000 C
ATOM     42  C2  A00 X   3      10.705   9.128  12.7680  0.00  0.00     0.000 C
ATOM     43  C3  A00 X   3       9.743   7.943  12.4970  0.00  0.00     0.000 C
ATOM     44  C4  A00 X   3      10.373   6.566  12.6600  0.00  0.00     0.000 C
ATOM     45  C5  A00 X   3      11.684   6.479  11.8290  0.00  0.00     0.000 C
ATOM     46  O5  A00 X   3      12.557   7.621  12.1080  0.00  0.00     0.000 O
ATOM     47   O  A00 X   3       8.459   8.030  13.1130  0.00  0.00     0.000 O
ATOM     49  HD  A00 X   3       8.583   7.181  13.2310  0.00  0.00     0.000 HD
BRANCH 42 49
ATOM     49   O  A00 X   3      11.063   9.209  14.1650  0.00  0.00     0.000 O
ATOM     50   O  A00 X   3       9.899   9.478  16.2390  0.00  0.00     0.000 OA
ATOM     51   O  A00 X   3       9.227  10.771  14.3770  0.00  0.00     0.000 OA
ATOM     52   O  A00 X   3      11.332  11.215  15.3570  0.00  0.00     0.000 OA
ATOM     53   S  A00 X   3      10.345  10.222  15.1030  0.00  0.00     0.000 S
ENDBRANCH 42 49
BRANCH 45 54
ATOM     54   C  A00 X   3      11.397   6.290  10.3340  0.00  0.00     0.000 C
ATOM     55   O  A00 X   3      10.255   6.229   9.9260  0.00  0.00     0.000 OA
ATOM     56   O  A00 X   3      12.311   6.196   9.5290  0.00  0.00     0.000 OA
ENDBRANCH 45 54
BRANCH 41 57
ATOM     57  O4  A00 X   4      11.872   9.405  10.6040  0.00  0.00     0.000 O
BRANCH 57 61
ATOM     58  C1  A00 X   4      14.570  11.288   7.8080  0.00  0.00     0.000 C
ATOM     59  C2  A00 X   4      14.612   9.747   7.9550  0.00  0.00     0.000 C
ATOM     60  C3  A00 X   4      13.387   9.166   8.6920  0.00  0.00     0.000 C
ATOM     61  C4  A00 X   4      13.082   9.938   9.9930  0.00  0.00     0.000 C
ATOM     62  C5  A00 X   4      12.869  11.416   9.5830  0.00  0.00     0.000 C
ATOM     63  O5  A00 X   4      14.098  11.935   9.0120  0.00  0.00     0.000 O
BRANCH 59 66
ATOM     64   N  A00 X   4      15.440   8.550   8.1890  0.00  0.00     0.000 N
ATOM     66  HD  A00 X   4      15.783   8.449   8.9780  0.00  0.00     0.000 HD
ATOM     66   O  A00 X   4      17.100   9.542   6.7530  0.00  0.00     0.000 OA
ATOM     67   S  A00 X   4      16.646   8.255   7.1810  0.00  0.00     0.000 S
ATOM     68   O  A00 X   4      17.539   7.543   8.0470  0.00  0.00     0.000 OA
ATOM     69   O  A00 X   4      15.975   7.428   6.2190  0.00  0.00     0.000 OA
ENDBRANCH 59 66
BRANCH 62 70
ATOM     70   C  A00 X   4      12.440  12.340  10.7480  0.00  0.00     0.000 C
ATOM     71   O  A00 X   4      14.397  14.837  12.4930  0.00  0.00     0.000 OA
ATOM     72   O  A00 X   4      13.045  13.095  13.3190  0.00  0.00     0.000 OA
ATOM     73   O  A00 X   4      13.452  13.338  10.9610  0.00  0.00     0.000 O
ATOM     74   O  A00 X   4      15.238  12.579  12.3890  0.00  0.00     0.000 OA
ATOM     75   S  A00 X   4      14.096  13.437  12.3870  0.00  0.00     0.000 S
ENDBRANCH 62 70
ENDBRANCH 57 61
ENDBRANCH 41 57
ENDBRANCH 40 44
ENDBRANCH 20 40
ENDBRANCH 19 23
ENDBRANCH 1 19
TORSDOF 14
ENDMDL
MODEL 6
REMARK VINA RESULT:      -6.0      2.491      4.073
ROOT
ATOM      1  C1  A00 X   1      11.917   9.234  12.2890  0.00  0.00     0.000 C
ATOM      2  C2  A00 X   1      10.673   8.433  12.7560  0.00  0.00     0.000 C
ATOM      3  C3  A00 X   1      10.889   6.902  12.9920  0.00  0.00     0.000 C
ATOM      4  C4  A00 X   1      12.189   6.310  12.3890  0.00  0.00     0.000 C
ATOM      5  C5  A00 X   1      12.735   7.163  11.2440  0.00  0.00     0.000 C
ATOM      6  O5  A00 X   1      13.046   8.437  11.8520  0.00  0.00     0.000 O
ATOM      7   O  A00 X   1       9.807   6.190  12.3970  0.00  0.00     0.000 O
ATOM      9  HD  A00 X   1      10.530   5.748  12.2210  0.00  0.00     0.000 HD
ATOM      9   O  A00 X   1      13.196   6.140  13.3860  0.00  0.00     0.000 O
ATOM     11  HD  A00 X   1      13.920   5.698  13.2100  0.00  0.00     0.000 HD
ENDROOT
BRANCH 2 11
ATOM     11   O  A00 X   1      10.198   9.033  13.9770  0.00  0.00     0.000 O
ATOM     12   O  A00 X   1       8.470   8.021  15.3020  0.00  0.00     0.000 OA
ATOM     13   O  A00 X   1       7.950   8.789  13.0540  0.00  0.00     0.000 OA
ATOM     14   O  A00 X   1       8.445  10.352  14.7760  0.00  0.00     0.000 OA
ATOM     15   S  A00 X   1       8.660   9.020  14.2810  0.00  0.00     0.000 S
ENDBRANCH 2 11
BRANCH 5 16
ATOM     16   C  A00 X   1      11.816   7.274  10.0240  0.00  0.00     0.000 C
ATOM     17   O  A00 X   1      10.907   6.478   9.9060  0.00  0.00     0.000 OA
ATOM     18   O  A00 X   1      11.959   8.133   9.1760  0.00  0.00     0.000 OA
ENDBRANCH 5 16
BRANCH 1 19
ATOM     19  O4  A00 X   2      11.592  10.264  11.3230  0.00  0.00     0.000 O
BRANCH 19 23
ATOM     20  C1  A00 X   2      14.836  12.892  12.2890  0.00  0.00     0.000 C
ATOM     21  C2  A00 X   2      13.602  12.907  13.2230  0.00  0.00     0.000 C
ATOM     22  C3  A00 X   2      12.740  11.644  13.0150  0.00  0.00     0.000 C
ATOM     23  C4  A00 X   2      12.363  11.483  11.5250  0.00  0.00     0.000 C
ATOM     24  C5  A00 X   2      13.678  11.501  10.6980  0.00  0.00     0.000 C
ATOM     25  O5  A00 X   2      14.354  12.765  10.9250  0.00  0.00     0.000 O
ATOM     26   O  A00 X   2      11.648  11.672  13.9500  0.00  0.00     0.000 O
ATOM     28  HD  A00 X   2      11.422  12.481  13.7390  0.00  0.00     0.000 HD
BRANCH 21 30
ATOM     28   N  A00 X   2      13.193  12.763  14.6240  0.00  0.00     0.000 N
ATOM     30  HD  A00 X   2      13.525  13.558  14.5400  0.00  0.00     0.000 HD
ATOM     30   O  A00 X   2      13.112  14.892  15.5810  0.00  0.00     0.000 OA
ATOM     31   S  A00 X   2      13.864  13.695  15.7100  0.00  0.00     0.000 S
ATOM     32   O  A00 X   2      13.666  12.985  16.9350  0.00  0.00     0.000 OA
ATOM     33   O  A00 X   2      15.261  13.770  15.3990  0.00  0.00     0.000 OA
ENDBRANCH 21 30
BRANCH 24 34
ATOM     34   C  A00 X   2      13.598  11.127   9.2000  0.00  0.00     0.000 C
ATOM     35   O  A00 X   2      11.794  13.071   6.7040  0.00  0.00     0.000 OA
ATOM     36   O  A00 X   2      12.548  11.858   8.5340  0.00  0.00     0.000 O
ATOM     37   O  A00 X   2      13.484  13.957   8.1010  0.00  0.00     0.000 OA
ATOM     38   S  A00 X   2      13.024  12.812   7.3780  0.00  0.00     0.000 S
ATOM     39   O  A00 X   2      13.989  12.076   6.6170  0.00  0.00     0.000 OA
ENDBRANCH 24 34
BRANCH 20 40
ATOM     40  O4  A00 X   3      15.578  11.717  12.6470  0.00  0.00     0.000 O
BRANCH 40 44
ATOM     41  C1  A00 X   3      17.139   8.610  11.6290  0.00  0.00     0.000 C
ATOM     42  C2  A00 X   3      17.105   9.145  13.0770  0.00  0.00     0.000 C
ATOM     43  C3  A00 X   3      17.594  10.615  13.1380  0.00  0.00     0.000 C
ATOM     44  C4  A00 X   3      16.920  11.548  12.1410  0.00  0.00     0.000 C
ATOM     45  C5  A00 X   3      17.000  10.946  10.7100  0.00  0.00     0.000 C
ATOM     46  O5  A00 X   3      16.539   9.556  10.7020  0.00  0.00     0.000 O
ATOM     47   O  A00 X   3      17.687  11.187  14.4410  0.00  0.00     0.000 O
ATOM     49  HD  A00 X   3      17.383  11.887  14.0330  0.00  0.00     0.000 HD
BRANCH 42 49
ATOM     49   O  A00 X   3      15.742   9.022  13.5410  0.00  0.00     0.000 O
ATOM     50   O  A00 X   3      14.484   9.768  15.4360  0.00  0.00     0.000 OA
ATOM     51   O  A00 X   3      16.680   8.960  15.7720  0.00  0.00     0.000 OA
ATOM     52   O  A00 X   3      15.006   7.431  15.1030  0.00  0.00     0.000 OA
ATOM     53   S  A00 X   3      15.444   8.783  15.0500  0.00  0.00     0.000 S
ENDBRANCH 42 49
BRANCH 45 54
ATOM     54   C  A00 X   3      18.394  11.122  10.0970  0.00  0.00     0.000 C
ATOM     55   O  A00 X   3      18.568  10.983   8.9030  0.00  0.00     0.000 OA
ATOM     56   O  A00 X   3      19.354  11.405  10.7970  0.00  0.00     0.000 OA
ENDBRANCH 45 54
BRANCH 41 57
ATOM     57  O4  A00 X   4      18.465   8.178  11.2510  0.00  0.00     0.000 O
BRANCH 57 61
ATOM     58  C1  A00 X   4      19.929   5.288   8.3970  0.00  0.00     0.000 C
ATOM     59  C2  A00 X   4      19.257   6.580   7.8660  0.00  0.00     0.000 C
ATOM     60  C3  A00 X   4      19.106   7.678   8.9380  0.00  0.00     0.000 C
ATOM     61  C4  A00 X   4      18.509   7.123  10.2490  0.00  0.00     0.000 C
ATOM     62  C5  A00 X   4      19.453   5.985  10.7090  0.00  0.00     0.000 C
ATOM     63  O5  A00 X   4      19.450   4.930   9.7130  0.00  0.00     0.000 O
BRANCH 59 66
ATOM     64   N  A00 X   4      17.960   5.965   7.5300  0.00  0.00     0.000 N
ATOM     66  HD  A00 X   4      17.765   5.211   7.9080  0.00  0.00     0.000 HD
ATOM     66   O  A00 X   4      18.852   5.519   5.3380  0.00  0.00     0.000 OA
ATOM     67   S  A00 X   4      17.600   5.753   5.9860  0.00  0.00     0.000 S
ATOM     68   O  A00 X   4      16.731   4.617   6.0770  0.00  0.00     0.000 OA
ATOM     69   O  A00 X   4      16.924   6.990   5.7120  0.00  0.00     0.000 OA
ENDBRANCH 59 66
BRANCH 62 70
ATOM     70   C  A00 X   4      19.079   5.369  12.0790  0.00  0.00     0.000 C
ATOM     71   O  A00 X   4      16.084   3.555  13.0000  0.00  0.00     0.000 OA
ATOM     72   O  A00 X   4      17.176   5.353  14.0590  0.00  0.00     0.000 OA
ATOM     73   O  A00 X   4      17.920   4.534  11.9230  0.00  0.00     0.000 O
ATOM     74   O  A00 X   4      15.851   5.761  12.0550  0.00  0.00     0.000 OA
ATOM     75   S  A00 X   4      16.662   4.855  12.8020  0.00  0.00     0.000 S
ENDBRANCH 62 70
ENDBRANCH 57 61
ENDBRANCH 41 57
ENDBRANCH 40 44
ENDBRANCH 20 40
ENDBRANCH 19 23
ENDBRANCH 1 19
TORSDOF 14
ENDMDL
MODEL 7
REMARK VINA RESULT:      -5.9      2.858      9.368
ROOT
ATOM      1  C1  A00 X   1      17.137   8.723   9.4380  0.00  0.00     0.000 C
ATOM      2  C2  A00 X   1      17.849   7.369   9.7020  0.00  0.00     0.000 C
ATOM      3  C3  A00 X   1      19.048   7.029   8.7570  0.00  0.00     0.000 C
ATOM      4  C4  A00 X   1      19.147   7.884   7.4670  0.00  0.00     0.000 C
ATOM      5  C5  A00 X   1      17.804   8.504   7.0820  0.00  0.00     0.000 C
ATOM      6  O5  A00 X   1      17.470   9.373   8.1870  0.00  0.00     0.000 O
ATOM      7   O  A00 X   1      18.928   5.672   8.3350  0.00  0.00     0.000 O
ATOM      9  HD  A00 X   1      19.175   6.133   7.6450  0.00  0.00     0.000 HD
ATOM      9   O  A00 X   1      20.132   8.908   7.5930  0.00  0.00     0.000 O
ATOM     11  HD  A00 X   1      20.380   9.369   6.9030  0.00  0.00     0.000 HD
ENDROOT
BRANCH 2 11
ATOM     11   O  A00 X   1      18.313   7.376  11.0650  0.00  0.00     0.000 O
ATOM     12   O  A00 X   1      19.076   5.378  12.1580  0.00  0.00     0.000 OA
ATOM     13   O  A00 X   1      16.753   5.537  11.4540  0.00  0.00     0.000 OA
ATOM     14   O  A00 X   1      17.571   6.896  13.2260  0.00  0.00     0.000 OA
ATOM     15   S  A00 X   1      17.900   6.198  12.0130  0.00  0.00     0.000 S
ENDBRANCH 2 11
BRANCH 5 16
ATOM     16   C  A00 X   1      16.700   7.498   6.7380  0.00  0.00     0.000 C
ATOM     17   O  A00 X   1      17.014   6.350   6.4990  0.00  0.00     0.000 OA
ATOM     18   O  A00 X   1      15.525   7.806   6.7040  0.00  0.00     0.000 OA
ENDBRANCH 5 16
BRANCH 1 19
ATOM     19  O4  A00 X   2      15.702   8.648   9.6290  0.00  0.00     0.000 O
BRANCH 19 23
ATOM     20  C1  A00 X   2      12.910  11.679  10.8030  0.00  0.00     0.000 C
ATOM     21  C2  A00 X   2      13.122  11.452   9.2870  0.00  0.00     0.000 C
ATOM     22  C3  A00 X   2      13.791  10.087   9.0240  0.00  0.00     0.000 C
ATOM     23  C4  A00 X   2      15.098   9.957   9.8390  0.00  0.00     0.000 C
ATOM     24  C5  A00 X   2      14.756  10.224  11.3310  0.00  0.00     0.000 C
ATOM     25  O5  A00 X   2      14.204  11.561  11.4510  0.00  0.00     0.000 O
ATOM     26   O  A00 X   2      13.903   9.893   7.6040  0.00  0.00     0.000 O
ATOM     28  HD  A00 X   2      14.266  10.669   7.4760  0.00  0.00     0.000 HD
BRANCH 21 30
ATOM     28   N  A00 X   2      12.916  12.890   9.0860  0.00  0.00     0.000 N
ATOM     30  HD  A00 X   2      12.843  12.515   8.3090  0.00  0.00     0.000 HD
ATOM     30   O  A00 X   2      11.936  13.198   6.9880  0.00  0.00     0.000 OA
ATOM     31   S  A00 X   2      13.157  13.497   7.6470  0.00  0.00     0.000 S
ATOM     32   O  A00 X   2      13.384  14.886   7.9000  0.00  0.00     0.000 OA
ATOM     33   O  A00 X   2      14.343  12.887   7.1240  0.00  0.00     0.000 OA
ENDBRANCH 21 30
BRANCH 24 34
ATOM     34   C  A00 X   2      15.846   9.930  12.3890  0.00  0.00     0.000 C
ATOM     35   O  A00 X   2      18.659  12.132  13.0870  0.00  0.00     0.000 OA
ATOM     36   O  A00 X   2      16.998  10.775  12.2010  0.00  0.00     0.000 O
ATOM     37   O  A00 X   2      16.395  12.809  13.1850  0.00  0.00     0.000 OA
ATOM     38   S  A00 X   2      17.324  11.741  13.3980  0.00  0.00     0.000 S
ATOM     39   O  A00 X   2      17.182  10.966  14.5940  0.00  0.00     0.000 OA
ENDBRANCH 24 34
BRANCH 20 40
ATOM     40  O4  A00 X   3      12.055  10.613  11.2400  0.00  0.00     0.000 O
BRANCH 40 44
ATOM     41  C1  A00 X   3      11.852   8.404  14.1040  0.00  0.00     0.000 C
ATOM     42  C2  A00 X   3      11.017   8.251  12.8140  0.00  0.00     0.000 C
ATOM     43  C3  A00 X   3      10.319   9.585  12.4430  0.00  0.00     0.000 C
ATOM     44  C4  A00 X   3      11.241  10.797  12.4180  0.00  0.00     0.000 C
ATOM     45  C5  A00 X   3      12.040  10.885  13.7480  0.00  0.00     0.000 C
ATOM     46  O5  A00 X   3      12.674   9.603  14.0640  0.00  0.00     0.000 O
ATOM     47   O  A00 X   3       9.449   9.539  11.3140  0.00  0.00     0.000 O
ATOM     49  HD  A00 X   3       9.794  10.318  11.1590  0.00  0.00     0.000 HD
BRANCH 42 49
ATOM     49   O  A00 X   3      11.922   7.822  11.7730  0.00  0.00     0.000 O
ATOM     50   O  A00 X   3      11.776   7.373   9.4260  0.00  0.00     0.000 OA
ATOM     51   O  A00 X   3      10.029   6.638  10.8410  0.00  0.00     0.000 OA
ATOM     52   O  A00 X   3      12.146   5.605  11.0340  0.00  0.00     0.000 OA
ATOM     53   S  A00 X   3      11.454   6.800  10.6960  0.00  0.00     0.000 S
ENDBRANCH 42 49
BRANCH 45 54
ATOM     54   C  A00 X   3      11.178  11.430  14.8930  0.00  0.00     0.000 C
ATOM     55   O  A00 X   3       9.971  11.490  14.7840  0.00  0.00     0.000 OA
ATOM     56   O  A00 X   3      11.691  11.815  15.9330  0.00  0.00     0.000 OA
ENDBRANCH 45 54
BRANCH 41 57
ATOM     57  O4  A00 X   4      11.030   8.295  15.2880  0.00  0.00     0.000 O
BRANCH 57 61
ATOM     58  C1  A00 X   4      11.777   6.746  19.2470  0.00  0.00     0.000 C
ATOM     59  C2  A00 X   4      12.642   7.926  18.7380  0.00  0.00     0.000 C
ATOM     60  C3  A00 X   4      12.061   8.619  17.4880  0.00  0.00     0.000 C
ATOM     61  C4  A00 X   4      11.647   7.598  16.4070  0.00  0.00     0.000 C
ATOM     62  C5  A00 X   4      10.623   6.646  17.0750  0.00  0.00     0.000 C
ATOM     63  O5  A00 X   4      11.271   5.936  18.1620  0.00  0.00     0.000 O
BRANCH 59 66
ATOM     64   N  A00 X   4      14.053   7.804  18.3300  0.00  0.00     0.000 N
ATOM     66  HD  A00 X   4      14.286   7.087  17.9050  0.00  0.00     0.000 HD
ATOM     66   O  A00 X   4      14.598   7.529  20.6590  0.00  0.00     0.000 OA
ATOM     67   S  A00 X   4      15.183   8.003  19.4440  0.00  0.00     0.000 S
ATOM     68   O  A00 X   4      16.228   7.185  18.9020  0.00  0.00     0.000 OA
ATOM     69   O  A00 X   4      15.416   9.414  19.3190  0.00  0.00     0.000 OA
ENDBRANCH 59 66
BRANCH 62 70
ATOM     70   C  A00 X   4      10.002   5.608  16.1110  0.00  0.00     0.000 C
ATOM     71   O  A00 X   4      11.602   2.805  14.4700  0.00  0.00     0.000 OA
ATOM     72   O  A00 X   4      10.216   4.501  13.6060  0.00  0.00     0.000 OA
ATOM     73   O  A00 X   4      10.936   4.537  15.9010  0.00  0.00     0.000 O
ATOM     74   O  A00 X   4      12.534   5.007  14.1600  0.00  0.00     0.000 OA
ATOM     75   S  A00 X   4      11.372   4.222  14.4280  0.00  0.00     0.000 S
ENDBRANCH 62 70
ENDBRANCH 57 61
ENDBRANCH 41 57
ENDBRANCH 40 44
ENDBRANCH 20 40
ENDBRANCH 19 23
ENDBRANCH 1 19
TORSDOF 14
ENDMDL
MODEL 8
REMARK VINA RESULT:      -5.8      3.529      5.822
ROOT
ATOM      1  C1  A00 X   1      11.090   8.562  14.7130  0.00  0.00     0.000 C
ATOM      2  C2  A00 X   1      10.652   7.096  14.4490  0.00  0.00     0.000 C
ATOM      3  C3  A00 X   1      10.338   6.730  12.9610  0.00  0.00     0.000 C
ATOM      4  C4  A00 X   1      10.143   7.933  12.0030  0.00  0.00     0.000 C
ATOM      5  C5  A00 X   1       9.756   9.209  12.7500  0.00  0.00     0.000 C
ATOM      6  O5  A00 X   1      10.882   9.484  13.6140  0.00  0.00     0.000 O
ATOM      7   O  A00 X   1       9.125   5.980  12.9210  0.00  0.00     0.000 O
ATOM      9  HD  A00 X   1       9.105   6.535  12.2570  0.00  0.00     0.000 HD
ATOM      9   O  A00 X   1      11.312   8.169  11.2180  0.00  0.00     0.000 O
ATOM     11  HD  A00 X   1      11.291   8.724  10.5540  0.00  0.00     0.000 HD
ENDROOT
BRANCH 2 11
ATOM     11   O  A00 X   1      11.698   6.232  14.9340  0.00  0.00     0.000 O
ATOM     12   O  A00 X   1      11.410   3.854  15.0920  0.00  0.00     0.000 OA
ATOM     13   O  A00 X   1      10.031   5.314  16.4650  0.00  0.00     0.000 OA
ATOM     14   O  A00 X   1      12.366   5.123  16.8770  0.00  0.00     0.000 OA
ATOM     15   S  A00 X   1      11.322   5.049  15.8910  0.00  0.00     0.000 S
ENDBRANCH 2 11
BRANCH 5 16
ATOM     16   C  A00 X   1       8.417   9.146  13.4910  0.00  0.00     0.000 C
ATOM     17   O  A00 X   1       8.162  10.008  14.3070  0.00  0.00     0.000 OA
ATOM     18   O  A00 X   1       7.600   8.270  13.2860  0.00  0.00     0.000 OA
ENDBRANCH 5 16
BRANCH 1 19
ATOM     19  O4  A00 X   2      10.563   9.091  15.9540  0.00  0.00     0.000 O
BRANCH 19 23
ATOM     20  C1  A00 X   2      13.848  11.747  16.6740  0.00  0.00     0.000 C
ATOM     21  C2  A00 X   2      13.970  10.299  17.2060  0.00  0.00     0.000 C
ATOM     22  C3  A00 X   2      12.949   9.371  16.5150  0.00  0.00     0.000 C
ATOM     23  C4  A00 X   2      11.519   9.941  16.6500  0.00  0.00     0.000 C
ATOM     24  C5  A00 X   2      11.533  11.395  16.1020  0.00  0.00     0.000 C
ATOM     25  O5  A00 X   2      12.476  12.178  16.8810  0.00  0.00     0.000 O
ATOM     26   O  A00 X   2      13.148   8.029  16.9910  0.00  0.00     0.000 O
ATOM     28  HD  A00 X   2      13.134   8.269  17.8230  0.00  0.00     0.000 HD
BRANCH 21 30
ATOM     28   N  A00 X   2      14.893   9.162  17.1280  0.00  0.00     0.000 N
ATOM     30  HD  A00 X   2      15.211   9.703  17.7250  0.00  0.00     0.000 HD
ATOM     30   O  A00 X   2      16.256   9.202  19.0250  0.00  0.00     0.000 OA
ATOM     31   S  A00 X   2      16.383   9.360  17.6200  0.00  0.00     0.000 S
ATOM     32   O  A00 X   2      17.100   8.315  16.9570  0.00  0.00     0.000 OA
ATOM     33   O  A00 X   2      16.818  10.640  17.1470  0.00  0.00     0.000 OA
ENDBRANCH 21 30
BRANCH 24 34
ATOM     34   C  A00 X   2      10.176  12.112  15.9110  0.00  0.00     0.000 C
ATOM     35   O  A00 X   2       7.693  12.517  18.5430  0.00  0.00     0.000 OA
ATOM     36   O  A00 X   2       9.270  11.814  16.9920  0.00  0.00     0.000 O
ATOM     37   O  A00 X   2       9.938  13.241  18.7210  0.00  0.00     0.000 OA
ATOM     38   S  A00 X   2       8.818  13.052  17.8500  0.00  0.00     0.000 S
ATOM     39   O  A00 X   2       8.517  14.099  16.9210  0.00  0.00     0.000 OA
ENDBRANCH 24 34
BRANCH 20 40
ATOM     40  O4  A00 X   3      14.119  11.668  15.2670  0.00  0.00     0.000 O
BRANCH 40 44
ATOM     41  C1  A00 X   3      14.027  12.229  11.6890  0.00  0.00     0.000 C
ATOM     42  C2  A00 X   3      15.170  11.510  12.4380  0.00  0.00     0.000 C
ATOM     43  C3  A00 X   3      15.665  12.357  13.6390  0.00  0.00     0.000 C
ATOM     44  C4  A00 X   3      14.561  12.850  14.5650  0.00  0.00     0.000 C
ATOM     45  C5  A00 X   3      13.453  13.564  13.7410  0.00  0.00     0.000 C
ATOM     46  O5  A00 X   3      13.024  12.734  12.6130  0.00  0.00     0.000 O
ATOM     47   O  A00 X   3      16.781  11.831  14.3540  0.00  0.00     0.000 O
ATOM     49  HD  A00 X   3      16.341  12.130  15.0370  0.00  0.00     0.000 HD
BRANCH 42 49
ATOM     49   O  A00 X   3      14.655  10.232  12.8710  0.00  0.00     0.000 O
ATOM     50   O  A00 X   3      15.454   8.396  14.1830  0.00  0.00     0.000 OA
ATOM     51   O  A00 X   3      16.924   9.423  12.6420  0.00  0.00     0.000 OA
ATOM     52   O  A00 X   3      15.093   8.189  11.8010  0.00  0.00     0.000 OA
ATOM     53   S  A00 X   3      15.575   8.977  12.8820  0.00  0.00     0.000 S
ENDBRANCH 42 49
BRANCH 45 54
ATOM     54   C  A00 X   3      13.879  14.976  13.3220  0.00  0.00     0.000 C
ATOM     55   O  A00 X   3      13.057  15.781  12.9350  0.00  0.00     0.000 OA
ATOM     56   O  A00 X   3      15.051  15.315  13.3680  0.00  0.00     0.000 OA
ENDBRANCH 45 54
BRANCH 41 57
ATOM     57  O4  A00 X   4      14.532  13.223  10.7710  0.00  0.00     0.000 O
BRANCH 57 61
ATOM     58  C1  A00 X   4      12.954  14.874   7.1070  0.00  0.00     0.000 C
ATOM     59  C2  A00 X   4      12.675  15.619   8.4360  0.00  0.00     0.000 C
ATOM     60  C3  A00 X   4      13.570  15.152   9.6020  0.00  0.00     0.000 C
ATOM     61  C4  A00 X   4      13.612  13.613   9.7120  0.00  0.00     0.000 C
ATOM     62  C5  A00 X   4      14.116  13.091   8.3440  0.00  0.00     0.000 C
ATOM     63  O5  A00 X   4      13.164  13.458   7.3130  0.00  0.00     0.000 O
BRANCH 59 66
ATOM     64   N  A00 X   4      12.419  16.986   8.9250  0.00  0.00     0.000 N
ATOM     66  HD  A00 X   4      12.100  17.071   9.7250  0.00  0.00     0.000 HD
ATOM     66   O  A00 X   4      10.597  17.098   7.3540  0.00  0.00     0.000 OA
ATOM     67   S  A00 X   4      11.524  17.957   8.0230  0.00  0.00     0.000 S
ATOM     68   O  A00 X   4      10.962  18.804   9.0340  0.00  0.00     0.000 OA
ATOM     69   O  A00 X   4      12.546  18.583   7.2330  0.00  0.00     0.000 OA
ENDBRANCH 59 66
BRANCH 62 70
ATOM     70   C  A00 X   4      14.332  11.560   8.2920  0.00  0.00     0.000 C
ATOM     71   O  A00 X   4      11.915   8.959   7.5850  0.00  0.00     0.000 OA
ATOM     72   O  A00 X   4      13.482   9.163   9.3300  0.00  0.00     0.000 OA
ATOM     73   O  A00 X   4      13.164  10.935   7.7340  0.00  0.00     0.000 O
ATOM     74   O  A00 X   4      11.451  10.508   9.3730  0.00  0.00     0.000 OA
ATOM     75   S  A00 X   4      12.439   9.839   8.5910  0.00  0.00     0.000 S
ENDBRANCH 62 70
ENDBRANCH 57 61
ENDBRANCH 41 57
ENDBRANCH 40 44
ENDBRANCH 20 40
ENDBRANCH 19 23
ENDBRANCH 1 19
TORSDOF 14
ENDMDL
MODEL 9
REMARK VINA RESULT:      -5.8      3.213      8.077
ROOT
ATOM      1  C1  A00 X   1      12.125   8.004  13.0140  0.00  0.00     0.000 C
ATOM      2  C2  A00 X   1      10.632   7.868  13.4150  0.00  0.00     0.000 C
ATOM      3  C3  A00 X   1      10.102   6.409  13.6100  0.00  0.00     0.000 C
ATOM      4  C4  A00 X   1      11.004   5.288  13.0320  0.00  0.00     0.000 C
ATOM      5  C5  A00 X   1      11.932   5.803  11.9330  0.00  0.00     0.000 C
ATOM      6  O5  A00 X   1      12.773   6.779  12.5890  0.00  0.00     0.000 O
ATOM      7   O  A00 X   1       8.840   6.290  12.9590  0.00  0.00     0.000 O
ATOM      9  HD  A00 X   1       9.282   5.564  12.7930  0.00  0.00     0.000 HD
ATOM      9   O  A00 X   1      11.772   4.657  14.0560  0.00  0.00     0.000 O
ATOM     11  HD  A00 X   1      12.215   3.931  13.8900  0.00  0.00     0.000 HD
ENDROOT
BRANCH 2 11
ATOM     11   O  A00 X   1      10.438   8.605  14.6380  0.00  0.00     0.000 O
ATOM     12   O  A00 X   1       8.261   9.317  15.3610  0.00  0.00     0.000 OA
ATOM     13   O  A00 X   1       9.184  10.217  13.2980  0.00  0.00     0.000 OA
ATOM     14   O  A00 X   1      10.141  10.793  15.3980  0.00  0.00     0.000 OA
ATOM     15   S  A00 X   1       9.420   9.797  14.6520  0.00  0.00     0.000 S
ENDBRANCH 2 11
BRANCH 5 16
ATOM     16   C  A00 X   1      11.223   6.344  10.6870  0.00  0.00     0.000 C
ATOM     17   O  A00 X   1      10.305   7.124  10.8330  0.00  0.00     0.000 OA
ATOM     18   O  A00 X   1      11.551   6.026   9.5610  0.00  0.00     0.000 OA
ENDBRANCH 5 16
BRANCH 1 19
ATOM     19  O4  A00 X   2      12.357   9.078  12.0700  0.00  0.00     0.000 O
BRANCH 19 23
ATOM     20  C1  A00 X   2      15.982  10.347  10.1690  0.00  0.00     0.000 C
ATOM     21  C2  A00 X   2      15.086   9.346   9.4020  0.00  0.00     0.000 C
ATOM     22  C3  A00 X   2      13.659   9.324   9.9890  0.00  0.00     0.000 C
ATOM     23  C4  A00 X   2      13.701   9.049  11.5090  0.00  0.00     0.000 C
ATOM     24  C5  A00 X   2      14.641  10.102  12.1560  0.00  0.00     0.000 C
ATOM     25  O5  A00 X   2      15.963   9.970  11.5720  0.00  0.00     0.000 O
ATOM     26   O  A00 X   2      12.850   8.434   9.2020  0.00  0.00     0.000 O
ATOM     28  HD  A00 X   2      13.426   7.789   9.2460  0.00  0.00     0.000 HD
BRANCH 21 30
ATOM     28   N  A00 X   2      16.301   8.735   8.8550  0.00  0.00     0.000 N
ATOM     30  HD  A00 X   2      15.641   8.454   8.3710  0.00  0.00     0.000 HD
ATOM     30   O  A00 X   2      15.810   7.918   6.7230  0.00  0.00     0.000 OA
ATOM     31   S  A00 X   2      16.167   7.412   8.0000  0.00  0.00     0.000 S
ATOM     32   O  A00 X   2      17.470   6.827   8.0750  0.00  0.00     0.000 OA
ATOM     33   O  A00 X   2      15.208   6.577   8.6600  0.00  0.00     0.000 OA
ENDBRANCH 21 30
BRANCH 24 34
ATOM     34   C  A00 X   2      14.677  10.191  13.7000  0.00  0.00     0.000 C
ATOM     35   O  A00 X   2      14.657  13.318  15.5650  0.00  0.00     0.000 OA
ATOM     36   O  A00 X   2      15.015  11.522  14.1390  0.00  0.00     0.000 O
ATOM     37   O  A00 X   2      13.009  12.714  13.9790  0.00  0.00     0.000 OA
ATOM     38   S  A00 X   2      13.910  12.249  14.9890  0.00  0.00     0.000 S
ATOM     39   O  A00 X   2      13.416  11.282  15.9230  0.00  0.00     0.000 OA
ENDBRANCH 24 34
BRANCH 20 40
ATOM     40  O4  A00 X   3      15.358  11.629  10.0090  0.00  0.00     0.000 O
BRANCH 40 44
ATOM     41  C1  A00 X   3      14.131  15.037  10.0610  0.00  0.00     0.000 C
ATOM     42  C2  A00 X   3      14.537  14.267   8.7860  0.00  0.00     0.000 C
ATOM     43  C3  A00 X   3      15.945  13.638   8.9420  0.00  0.00     0.000 C
ATOM     44  C4  A00 X   3      16.138  12.826  10.2160  0.00  0.00     0.000 C
ATOM     45  C5  A00 X   3      15.715  13.667  11.4530  0.00  0.00     0.000 C
ATOM     46  O5  A00 X   3      14.385  14.250  11.2580  0.00  0.00     0.000 O
ATOM     47   O  A00 X   3      16.461  12.973   7.7900  0.00  0.00     0.000 O
ATOM     49  HD  A00 X   3      16.753  12.413   8.3830  0.00  0.00     0.000 HD
BRANCH 42 49
ATOM     49   O  A00 X   3      13.529  13.257   8.5620  0.00  0.00     0.000 O
ATOM     50   O  A00 X   3      13.216  11.426   7.0530  0.00  0.00     0.000 OA
ATOM     51   O  A00 X   3      14.077  13.462   6.2140  0.00  0.00     0.000 OA
ATOM     52   O  A00 X   3      11.831  13.406   6.9470  0.00  0.00     0.000 OA
ATOM     53   S  A00 X   3      13.130  12.851   7.1140  0.00  0.00     0.000 S
ENDBRANCH 42 49
BRANCH 45 54
ATOM     54   C  A00 X   3      16.780  14.705  11.8250  0.00  0.00     0.000 C
ATOM     55   O  A00 X   3      17.777  14.840  11.1450  0.00  0.00     0.000 OA
ATOM     56   O  A00 X   3      16.646  15.413  12.8110  0.00  0.00     0.000 OA
ENDBRANCH 45 54
BRANCH 41 57
ATOM     57  O4  A00 X   4      14.713  16.360  10.0940  0.00  0.00     0.000 O
BRANCH 57 61
ATOM     58  C1  A00 X   4      13.332  20.129  11.6840  0.00  0.00     0.000 C
ATOM     59  C2  A00 X   4      13.490  18.930  12.6510  0.00  0.00     0.000 C
ATOM     60  C3  A00 X   4      14.315  17.768  12.0610  0.00  0.00     0.000 C
ATOM     61  C4  A00 X   4      13.851  17.401  10.6360  0.00  0.00     0.000 C
ATOM     62  C5  A00 X   4      13.974  18.693   9.7900  0.00  0.00     0.000 C
ATOM     63  O5  A00 X   4      13.079  19.701  10.3260  0.00  0.00     0.000 O
BRANCH 59 66
ATOM     64   N  A00 X   4      12.022  18.897  12.5220  0.00  0.00     0.000 N
ATOM     66  HD  A00 X   4      11.664  19.385  11.9030  0.00  0.00     0.000 HD
ATOM     66   O  A00 X   4      11.912  20.097  14.6070  0.00  0.00     0.000 OA
ATOM     67   S  A00 X   4      11.140  19.181  13.8260  0.00  0.00     0.000 S
ATOM     68   O  A00 X   4       9.958  19.726  13.2250  0.00  0.00     0.000 OA
ATOM     69   O  A00 X   4      10.985  17.843  14.3230  0.00  0.00     0.000 OA
ENDBRANCH 59 66
BRANCH 62 70
ATOM     70   C  A00 X   4      13.654  18.499   8.2890  0.00  0.00     0.000 C
ATOM     71   O  A00 X   4      10.519  17.542   6.7510  0.00  0.00     0.000 OA
ATOM     72   O  A00 X   4      12.699  16.709   6.4380  0.00  0.00     0.000 OA
ATOM     73   O  A00 X   4      12.234  18.363   8.1200  0.00  0.00     0.000 O
ATOM     74   O  A00 X   4      11.457  16.106   8.4450  0.00  0.00     0.000 OA
ATOM     75   S  A00 X   4      11.699  17.067   7.4180  0.00  0.00     0.000 S
ENDBRANCH 62 70
ENDBRANCH 57 61
ENDBRANCH 41 57
ENDBRANCH 40 44
ENDBRANCH 20 40
ENDBRANCH 19 23
ENDBRANCH 1 19
TORSDOF 14
ENDMDL
MODEL 10
REMARK VINA RESULT:      -5.7      3.429      8.230
ROOT
ATOM      1  C1  A00 X   1      13.770   9.374  10.9720  0.00  0.00     0.000 C
ATOM      2  C2  A00 X   1      14.498   8.932   9.6750  0.00  0.00     0.000 C
ATOM      3  C3  A00 X   1      14.747  10.051   8.6110  0.00  0.00     0.000 C
ATOM      4  C4  A00 X   1      13.929  11.354   8.8070  0.00  0.00     0.000 C
ATOM      5  C5  A00 X   1      12.668  11.124   9.6410  0.00  0.00     0.000 C
ATOM      6  O5  A00 X   1      13.155  10.686  10.9290  0.00  0.00     0.000 O
ATOM      7   O  A00 X   1      14.399   9.545   7.3250  0.00  0.00     0.000 O
ATOM      9  HD  A00 X   1      14.104  10.358   7.3670  0.00  0.00     0.000 HD
ATOM      9   O  A00 X   1      14.720  12.382   9.4030  0.00  0.00     0.000 O
ATOM     11  HD  A00 X   1      14.425  13.195   9.4450  0.00  0.00     0.000 HD
ENDROOT
BRANCH 2 11
ATOM     11   O  A00 X   1      15.763   8.358  10.0570  0.00  0.00     0.000 O
ATOM     12   O  A00 X   1      17.398   7.692   8.4280  0.00  0.00     0.000 OA
ATOM     13   O  A00 X   1      15.250   6.552   8.4940  0.00  0.00     0.000 OA
ATOM     14   O  A00 X   1      16.812   6.282  10.2680  0.00  0.00     0.000 OA
ATOM     15   S  A00 X   1      16.329   7.152   9.2300  0.00  0.00     0.000 S
ENDBRANCH 2 11
BRANCH 5 16
ATOM     16   C  A00 X   1      11.644  10.171   9.0170  0.00  0.00     0.000 C
ATOM     17   O  A00 X   1      10.675   9.849   9.6730  0.00  0.00     0.000 OA
ATOM     18   O  A00 X   1      11.763   9.733   7.8900  0.00  0.00     0.000 OA
ENDBRANCH 5 16
BRANCH 1 19
ATOM     19  O4  A00 X   2      12.846   8.374  11.4660  0.00  0.00     0.000 O
BRANCH 19 23
ATOM     20  C1  A00 X   2      13.790   9.077  15.5870  0.00  0.00     0.000 C
ATOM     21  C2  A00 X   2      14.518   7.910  14.8760  0.00  0.00     0.000 C
ATOM     22  C3  A00 X   2      14.414   8.050  13.3430  0.00  0.00     0.000 C
ATOM     23  C4  A00 X   2      12.938   8.191  12.9080  0.00  0.00     0.000 C
ATOM     24  C5  A00 X   2      12.321   9.376  13.7000  0.00  0.00     0.000 C
ATOM     25  O5  A00 X   2      12.415   9.088  15.1200  0.00  0.00     0.000 O
ATOM     26   O  A00 X   2      15.160   6.985  12.7310  0.00  0.00     0.000 O
ATOM     28  HD  A00 X   2      14.779   6.374  13.2110  0.00  0.00     0.000 HD
BRANCH 21 30
ATOM     28   N  A00 X   2      14.483   7.163  16.1370  0.00  0.00     0.000 N
ATOM     30  HD  A00 X   2      15.065   6.771  15.6300  0.00  0.00     0.000 HD
ATOM     30   O  A00 X   2      16.389   5.816  16.2380  0.00  0.00     0.000 OA
ATOM     31   S  A00 X   2      14.981   5.663  16.1440  0.00  0.00     0.000 S
ATOM     32   O  A00 X   2      14.356   5.104  17.3030  0.00  0.00     0.000 OA
ATOM     33   O  A00 X   2      14.472   5.042  14.9570  0.00  0.00     0.000 OA
ENDBRANCH 21 30
BRANCH 24 34
ATOM     34   C  A00 X   2      10.916   9.874  13.2840  0.00  0.00     0.000 C
ATOM     35   O  A00 X   2       8.049   7.692  12.7630  0.00  0.00     0.000 OA
ATOM     36   O  A00 X   2      10.095   8.787  12.8140  0.00  0.00     0.000 O
ATOM     37   O  A00 X   2       9.306   7.767  14.7650  0.00  0.00     0.000 OA
ATOM     38   S  A00 X   2       8.795   8.515  13.6570  0.00  0.00     0.000 S
ATOM     39   O  A00 X   2       8.215   9.795  13.9310  0.00  0.00     0.000 OA
ENDBRANCH 24 34
BRANCH 20 40
ATOM     40  O4  A00 X   3      14.455  10.271  15.1490  0.00  0.00     0.000 O
BRANCH 40 44
ATOM     41  C1  A00 X   3      14.137  13.673  13.9460  0.00  0.00     0.000 C
ATOM     42  C2  A00 X   3      15.476  12.928  14.1350  0.00  0.00     0.000 C
ATOM     43  C3  A00 X   3      15.568  12.301  15.5500  0.00  0.00     0.000 C
ATOM     44  C4  A00 X   3      14.358  11.467  15.9520  0.00  0.00     0.000 C
ATOM     45  C5  A00 X   3      13.053  12.285  15.7390  0.00  0.00     0.000 C
ATOM     46  O5  A00 X   3      13.014  12.866  14.3960  0.00  0.00     0.000 O
ATOM     47   O  A00 X   3      16.801  11.659  15.8680  0.00  0.00     0.000 O
ATOM     49  HD  A00 X   3      16.275  11.090  16.2540  0.00  0.00     0.000 HD
BRANCH 42 49
ATOM     49   O  A00 X   3      15.548  11.918  13.1040  0.00  0.00     0.000 O
ATOM     50   O  A00 X   3      17.057  10.160  12.5030  0.00  0.00     0.000 OA
ATOM     51   O  A00 X   3      17.944  12.245  13.1780  0.00  0.00     0.000 OA
ATOM     52   O  A00 X   3      16.787  12.125  11.1210  0.00  0.00     0.000 OA
ATOM     53   S  A00 X   3      16.908  11.579  12.4280  0.00  0.00     0.000 S
ENDBRANCH 42 49
BRANCH 45 54
ATOM     54   C  A00 X   3      12.844  13.321  16.8510  0.00  0.00     0.000 C
ATOM     55   O  A00 X   3      11.829  13.984  16.8950  0.00  0.00     0.000 OA
ATOM     56   O  A00 X   3      13.695  13.497  17.7090  0.00  0.00     0.000 OA
ENDBRANCH 45 54
BRANCH 41 57
ATOM     57  O4  A00 X   4      14.177  14.998  14.5230  0.00  0.00     0.000 O
BRANCH 57 61
ATOM     58  C1  A00 X   4      11.704  18.323  13.3140  0.00  0.00     0.000 C
ATOM     59  C2  A00 X   4      11.886  18.046  14.8270  0.00  0.00     0.000 C
ATOM     60  C3  A00 X   4      13.051  17.086  15.1410  0.00  0.00     0.000 C
ATOM     61  C4  A00 X   4      13.014  15.828  14.2460  0.00  0.00     0.000 C
ATOM     62  C5  A00 X   4      13.052  16.333  12.7820  0.00  0.00     0.000 C
ATOM     63  O5  A00 X   4      11.865  17.125  12.5200  0.00  0.00     0.000 O
BRANCH 59 66
ATOM     64   N  A00 X   4      10.798  17.447  15.6210  0.00  0.00     0.000 N
ATOM     66  HD  A00 X   4      10.296  16.859  15.2310  0.00  0.00     0.000 HD
ATOM     66   O  A00 X   4       9.692  19.584  15.5330  0.00  0.00     0.000 OA
ATOM     67   S  A00 X   4       9.777  18.426  16.3670  0.00  0.00     0.000 S
ATOM     68   O  A00 X   4       8.604  17.601  16.3980  0.00  0.00     0.000 OA
ATOM     69   O  A00 X   4      10.436  18.561  17.6350  0.00  0.00     0.000 OA
ENDBRANCH 59 66
BRANCH 62 70
ATOM     70   C  A00 X   4      13.132  15.204  11.7270  0.00  0.00     0.000 C
ATOM     71   O  A00 X   4      14.392  15.365   8.3370  0.00  0.00     0.000 OA
ATOM     72   O  A00 X   4      12.379  14.486   9.1850  0.00  0.00     0.000 OA
ATOM     73   O  A00 X   4      13.924  15.650  10.6140  0.00  0.00     0.000 O
ATOM     74   O  A00 X   4      12.653  16.900   8.9930  0.00  0.00     0.000 OA
ATOM     75   S  A00 X   4      13.268  15.627   9.1900  0.00  0.00     0.000 S
ENDBRANCH 62 70
ENDBRANCH 57 61
ENDBRANCH 41 57
ENDBRANCH 40 44
ENDBRANCH 20 40
ENDBRANCH 19 23
ENDBRANCH 1 19
TORSDOF 14
ENDMDL
MODEL 11
REMARK VINA RESULT:      -5.7      3.763      6.381
ROOT
ATOM      1  C1  A00 X   1      11.879   8.482  12.2570  0.00  0.00     0.000 C
ATOM      2  C2  A00 X   1      10.461   8.224  12.8320  0.00  0.00     0.000 C
ATOM      3  C3  A00 X   1      10.209   6.800  13.4280  0.00  0.00     0.000 C
ATOM      4  C4  A00 X   1      11.257   5.721  13.0480  0.00  0.00     0.000 C
ATOM      5  C5  A00 X   1      12.010   6.076  11.7660  0.00  0.00     0.000 C
ATOM      6  O5  A00 X   1      12.705   7.305  12.0760  0.00  0.00     0.000 O
ATOM      7   O  A00 X   1       8.950   6.323  12.9600  0.00  0.00     0.000 O
ATOM      9  HD  A00 X   1       9.502   5.657  12.9290  0.00  0.00     0.000 HD
ATOM      9   O  A00 X   1      12.186   5.500  14.1080  0.00  0.00     0.000 O
ATOM     11  HD  A00 X   1      12.738   4.834  14.0780  0.00  0.00     0.000 HD
ENDROOT
BRANCH 2 11
ATOM     11   O  A00 X   1      10.216   9.210  13.8540  0.00  0.00     0.000 O
ATOM     12   O  A00 X   1       8.464   8.951  15.4750  0.00  0.00     0.000 OA
ATOM     13   O  A00 X   1       7.886   9.178  13.1240  0.00  0.00     0.000 OA
ATOM     14   O  A00 X   1       8.810  11.015  14.3200  0.00  0.00     0.000 OA
ATOM     15   S  A00 X   1       8.736   9.583  14.2090  0.00  0.00     0.000 S
ENDBRANCH 2 11
BRANCH 5 16
ATOM     16   C  A00 X   1      11.141   6.163  10.5070  0.00  0.00     0.000 C
ATOM     17   O  A00 X   1      11.623   5.828   9.4440  0.00  0.00     0.000 OA
ATOM     18   O  A00 X   1       9.989   6.548  10.5360  0.00  0.00     0.000 OA
ENDBRANCH 5 16
BRANCH 1 19
ATOM     19  O4  A00 X   2      11.859   9.302  11.0630  0.00  0.00     0.000 O
BRANCH 19 23
ATOM     20  C1  A00 X   2      15.773  10.912  11.7390  0.00  0.00     0.000 C
ATOM     21  C2  A00 X   2      14.562  11.776  12.1640  0.00  0.00     0.000 C
ATOM     22  C3  A00 X   2      13.283  10.918  12.2660  0.00  0.00     0.000 C
ATOM     23  C4  A00 X   2      13.038  10.149  10.9480  0.00  0.00     0.000 C
ATOM     24  C5  A00 X   2      14.325   9.342  10.6230  0.00  0.00     0.000 C
ATOM     25  O5  A00 X   2      15.434  10.267  10.4820  0.00  0.00     0.000 O
ATOM     26   O  A00 X   2      12.205  11.749  12.7290  0.00  0.00     0.000 O
ATOM     28  HD  A00 X   2      12.359  12.364  12.1390  0.00  0.00     0.000 HD
BRANCH 21 30
ATOM     28   N  A00 X   2      15.319  12.971  11.7810  0.00  0.00     0.000 N
ATOM     30  HD  A00 X   2      14.661  13.240  12.2760  0.00  0.00     0.000 HD
ATOM     30   O  A00 X   2      14.682  14.720  13.1940  0.00  0.00     0.000 OA
ATOM     31   S  A00 X   2      14.592  14.374  11.8200  0.00  0.00     0.000 S
ATOM     32   O  A00 X   2      15.376  15.186  10.9410  0.00  0.00     0.000 OA
ATOM     33   O  A00 X   2      13.277  14.185  11.2820  0.00  0.00     0.000 OA
ENDBRANCH 21 30
BRANCH 24 34
ATOM     34   C  A00 X   2      14.261   8.306   9.4760  0.00  0.00     0.000 C
ATOM     35   O  A00 X   2      16.684   8.113   6.7640  0.00  0.00     0.000 OA
ATOM     36   O  A00 X   2      15.120   8.685   8.3820  0.00  0.00     0.000 O
ATOM     37   O  A00 X   2      17.255   8.011   9.0570  0.00  0.00     0.000 OA
ATOM     38   S  A00 X   2      16.283   7.677   8.0610  0.00  0.00     0.000 S
ATOM     39   O  A00 X   2      15.708   6.366   8.1100  0.00  0.00     0.000 OA
ENDBRANCH 24 34
BRANCH 20 40
ATOM     40  O4  A00 X   3      15.920   9.918  12.7630  0.00  0.00     0.000 O
BRANCH 40 44
ATOM     41  C1  A00 X   3      16.708   6.547  13.8310  0.00  0.00     0.000 C
ATOM     42  C2  A00 X   3      16.307   7.699  14.7780  0.00  0.00     0.000 C
ATOM     43  C3  A00 X   3      17.166   8.961  14.5100  0.00  0.00     0.000 C
ATOM     44  C4  A00 X   3      17.231   9.385  13.0480  0.00  0.00     0.000 C
ATOM     45  C5  A00 X   3      17.644   8.176  12.1610  0.00  0.00     0.000 C
ATOM     46  O5  A00 X   3      16.815   7.006  12.4550  0.00  0.00     0.000 O
ATOM     47   O  A00 X   3      16.943  10.064  15.3860  0.00  0.00     0.000 O
ATOM     49  HD  A00 X   3      17.042  10.519  14.6560  0.00  0.00     0.000 HD
BRANCH 42 49
ATOM     49   O  A00 X   3      14.904   7.959  14.5580  0.00  0.00     0.000 O
ATOM     50   O  A00 X   3      13.291   9.543  15.3460  0.00  0.00     0.000 OA
ATOM     51   O  A00 X   3      14.828   8.617  16.8850  0.00  0.00     0.000 OA
ATOM     52   O  A00 X   3      13.175   7.206  15.9570  0.00  0.00     0.000 OA
ATOM     53   S  A00 X   3      13.982   8.358  15.7470  0.00  0.00     0.000 S
ENDBRANCH 42 49
BRANCH 45 54
ATOM     54   C  A00 X   3      19.147   7.890  12.2560  0.00  0.00     0.000 C
ATOM     55   O  A00 X   3      19.715   7.266  11.3840  0.00  0.00     0.000 OA
ATOM     56   O  A00 X   3      19.800   8.283  13.2110  0.00  0.00     0.000 OA
ENDBRANCH 45 54
BRANCH 41 57
ATOM     57  O4  A00 X   4      17.877   5.845  14.3080  0.00  0.00     0.000 O
BRANCH 57 61
ATOM     58  C1  A00 X   4      19.495   1.923  13.5100  0.00  0.00     0.000 C
ATOM     59  C2  A00 X   4      19.799   3.067  12.5110  0.00  0.00     0.000 C
ATOM     60  C3  A00 X   4      19.486   4.470  13.0700  0.00  0.00     0.000 C
ATOM     61  C4  A00 X   4      18.089   4.528  13.7250  0.00  0.00     0.000 C
ATOM     62  C5  A00 X   4      18.081   3.444  14.8310  0.00  0.00     0.000 C
ATOM     63  O5  A00 X   4      18.255   2.139  14.2210  0.00  0.00     0.000 O
BRANCH 59 66
ATOM     64   N  A00 X   4      18.800   2.593  11.5370  0.00  0.00     0.000 N
ATOM     66  HD  A00 X   4      18.193   2.044  11.8210  0.00  0.00     0.000 HD
ATOM     66   O  A00 X   4      20.562   1.322  10.4990  0.00  0.00     0.000 OA
ATOM     67   S  A00 X   4      19.322   1.951  10.1680  0.00  0.00     0.000 S
ATOM     68   O  A00 X   4      18.238   1.060   9.8710  0.00  0.00     0.000 OA
ATOM     69   O  A00 X   4      19.365   3.122   9.3400  0.00  0.00     0.000 OA
ENDBRANCH 59 66
BRANCH 62 70
ATOM     70   C  A00 X   4      16.789   3.420  15.6820  0.00  0.00     0.000 C
ATOM     71   O  A00 X   4      13.522   2.133  14.8000  0.00  0.00     0.000 OA
ATOM     72   O  A00 X   4      14.155   4.197  15.7400  0.00  0.00     0.000 OA
ATOM     73   O  A00 X   4      15.806   2.598  15.0320  0.00  0.00     0.000 O
ATOM     74   O  A00 X   4      14.534   3.789  13.3680  0.00  0.00     0.000 OA
ATOM     75   S  A00 X   4      14.422   3.246  14.6840  0.00  0.00     0.000 S
ENDBRANCH 62 70
ENDBRANCH 57 61
ENDBRANCH 41 57
ENDBRANCH 40 44
ENDBRANCH 20 40
ENDBRANCH 19 23
ENDBRANCH 1 19
TORSDOF 14
ENDMDL
MODEL 12
REMARK VINA RESULT:      -5.7      3.890     10.631
ROOT
ATOM      1  C1  A00 X   1      15.236   8.074  13.7500  0.00  0.00     0.000 C
ATOM      2  C2  A00 X   1      16.423   7.093  13.5640  0.00  0.00     0.000 C
ATOM      3  C3  A00 X   1      16.705   6.120  14.7560  0.00  0.00     0.000 C
ATOM      4  C4  A00 X   1      16.022   6.491  16.0970  0.00  0.00     0.000 C
ATOM      5  C5  A00 X   1      15.662   7.975  16.1700  0.00  0.00     0.000 C
ATOM      6  O5  A00 X   1      14.713   8.176  15.0980  0.00  0.00     0.000 O
ATOM      7   O  A00 X   1      18.108   6.100  15.0080  0.00  0.00     0.000 O
ATOM      9  HD  A00 X   1      17.711   6.114  15.7770  0.00  0.00     0.000 HD
ATOM      9   O  A00 X   1      14.857   5.700  16.3260  0.00  0.00     0.000 O
ATOM     11  HD  A00 X   1      14.459   5.714  17.0950  0.00  0.00     0.000 HD
ENDROOT
BRANCH 2 11
ATOM     11   O  A00 X   1      16.170   6.318  12.3760  0.00  0.00     0.000 O
ATOM     12   O  A00 X   1      17.792   4.788  11.4870  0.00  0.00     0.000 OA
ATOM     13   O  A00 X   1      18.304   7.165  11.5420  0.00  0.00     0.000 OA
ATOM     14   O  A00 X   1      16.620   6.328  10.0850  0.00  0.00     0.000 OA
ATOM     15   S  A00 X   1      17.320   6.140  11.3270  0.00  0.00     0.000 S
ENDBRANCH 2 11
BRANCH 5 16
ATOM     16   C  A00 X   1      16.855   8.935  16.1200  0.00  0.00     0.000 C
ATOM     17   O  A00 X   1      17.964   8.496  16.3480  0.00  0.00     0.000 OA
ATOM     18   O  A00 X   1      16.732  10.114  15.8550  0.00  0.00     0.000 OA
ENDBRANCH 5 16
BRANCH 1 19
ATOM     19  O4  A00 X   2      15.494   9.382  13.1840  0.00  0.00     0.000 O
BRANCH 19 23
ATOM     20  C1  A00 X   2      11.452   9.951  11.8770  0.00  0.00     0.000 C
ATOM     21  C2  A00 X   2      12.480   9.458  10.8290  0.00  0.00     0.000 C
ATOM     22  C3  A00 X   2      13.741   8.896  11.5180  0.00  0.00     0.000 C
ATOM     23  C4  A00 X   2      14.333   9.933  12.4980  0.00  0.00     0.000 C
ATOM     24  C5  A00 X   2      13.206  10.358  13.4790  0.00  0.00     0.000 C
ATOM     25  O5  A00 X   2      12.115  10.935  12.7150  0.00  0.00     0.000 O
ATOM     26   O  A00 X   2      14.631   8.391  10.5080  0.00  0.00     0.000 O
ATOM     28  HD  A00 X   2      14.591   9.117  10.0380  0.00  0.00     0.000 HD
BRANCH 21 30
ATOM     28   N  A00 X   2      11.748  10.229   9.8190  0.00  0.00     0.000 N
ATOM     30  HD  A00 X   2      12.269   9.685   9.3910  0.00  0.00     0.000 HD
ATOM     30   O  A00 X   2      11.961   9.128   7.7700  0.00  0.00     0.000 OA
ATOM     31   S  A00 X   2      12.362  10.352   8.3670  0.00  0.00     0.000 S
ATOM     32   O  A00 X   2      11.734  11.520   7.8320  0.00  0.00     0.000 OA
ATOM     33   O  A00 X   2      13.770  10.569   8.5200  0.00  0.00     0.000 OA
ENDBRANCH 21 30
BRANCH 24 34
ATOM     34   C  A00 X   2      13.597  11.217  14.7050  0.00  0.00     0.000 C
ATOM     35   O  A00 X   2      11.939  14.324  15.6300  0.00  0.00     0.000 OA
ATOM     36   O  A00 X   2      13.024  12.537  14.6210  0.00  0.00     0.000 O
ATOM     37   O  A00 X   2      10.817  12.262  15.3430  0.00  0.00     0.000 OA
ATOM     38   S  A00 X   2      12.020  12.907  15.7730  0.00  0.00     0.000 S
ATOM     39   O  A00 X   2      12.617  12.453  16.9930  0.00  0.00     0.000 OA
ENDBRANCH 24 34
BRANCH 20 40
ATOM     40  O4  A00 X   3      11.118   8.798  12.6640  0.00  0.00     0.000 O
BRANCH 40 44
ATOM     41  C1  A00 X   3      10.221   7.142  15.7590  0.00  0.00     0.000 C
ATOM     42  C2  A00 X   3      10.340   6.441  14.3880  0.00  0.00     0.000 C
ATOM     43  C3  A00 X   3       9.525   7.195  13.3060  0.00  0.00     0.000 C
ATOM     44  C4  A00 X   3       9.797   8.692  13.2370  0.00  0.00     0.000 C
ATOM     45  C5  A00 X   3       9.653   9.325  14.6490  0.00  0.00     0.000 C
ATOM     46  O5  A00 X   3      10.430   8.576  15.6400  0.00  0.00     0.000 O
ATOM     47   O  A00 X   3       9.492   6.588  12.0160  0.00  0.00     0.000 O
ATOM     49  HD  A00 X   3       9.554   7.411  11.7510  0.00  0.00     0.000 HD
BRANCH 42 49
ATOM     49   O  A00 X   3      11.746   6.398  14.0560  0.00  0.00     0.000 O
ATOM     50   O  A00 X   3      13.079   5.513  12.2760  0.00  0.00     0.000 OA
ATOM     51   O  A00 X   3      11.290   4.215  13.1160  0.00  0.00     0.000 OA
ATOM     52   O  A00 X   3      13.165   4.583  14.5060  0.00  0.00     0.000 OA
ATOM     53   S  A00 X   3      12.371   5.108  13.4500  0.00  0.00     0.000 S
ENDBRANCH 42 49
BRANCH 45 54
ATOM     54   C  A00 X   3       8.182   9.502  15.0450  0.00  0.00     0.000 C
ATOM     55   O  A00 X   3       7.883   9.995  16.1130  0.00  0.00     0.000 OA
ATOM     56   O  A00 X   3       7.286   9.148  14.2940  0.00  0.00     0.000 OA
ENDBRANCH 45 54
BRANCH 41 57
ATOM     57  O4  A00 X   4       8.997   6.781  16.4380  0.00  0.00     0.000 O
BRANCH 57 61
ATOM     58  C1  A00 X   4       8.077   6.030  20.5880  0.00  0.00     0.000 C
ATOM     59  C2  A00 X   4       7.880   7.462  20.0330  0.00  0.00     0.000 C
ATOM     60  C3  A00 X   4       7.889   7.531  18.4920  0.00  0.00     0.000 C
ATOM     61  C4  A00 X   4       9.081   6.756  17.8910  0.00  0.00     0.000 C
ATOM     62  C5  A00 X   4       8.961   5.301  18.4100  0.00  0.00     0.000 C
ATOM     63  O5  A00 X   4       9.086   5.298  19.8550  0.00  0.00     0.000 O
BRANCH 59 66
ATOM     64   N  A00 X   4       7.171   8.738  20.2400  0.00  0.00     0.000 N
ATOM     66  HD  A00 X   4       7.522   9.451  19.8980  0.00  0.00     0.000 HD
ATOM     66   O  A00 X   4       7.810   8.602  22.5580  0.00  0.00     0.000 OA
ATOM     67   S  A00 X   4       6.780   9.153  21.7350  0.00  0.00     0.000 S
ATOM     68   O  A00 X   4       6.784  10.582  21.6150  0.00  0.00     0.000 OA
ATOM     69   O  A00 X   4       5.470   8.574  21.8240  0.00  0.00     0.000 OA
ENDBRANCH 59 66
BRANCH 62 70
ATOM     70   C  A00 X   4      10.016   4.332  17.8230  0.00  0.00     0.000 C
ATOM     71   O  A00 X   4       9.552   1.680  15.4030  0.00  0.00     0.000 OA
ATOM     72   O  A00 X   4      10.648   1.681  17.4870  0.00  0.00     0.000 OA
ATOM     73   O  A00 X   4       9.439   3.614  16.7210  0.00  0.00     0.000 O
ATOM     74   O  A00 X   4       8.212   1.658  17.4090  0.00  0.00     0.000 OA
ATOM     75   S  A00 X   4       9.437   2.047  16.7870  0.00  0.00     0.000 S
ENDBRANCH 62 70
ENDBRANCH 57 61
ENDBRANCH 41 57
ENDBRANCH 40 44
ENDBRANCH 20 40
ENDBRANCH 19 23
ENDBRANCH 1 19
TORSDOF 14
ENDMDL
MODEL 13
REMARK VINA RESULT:      -5.7      2.866      5.310
ROOT
ATOM      1  C1  A00 X   1      11.247   8.519  11.7340  0.00  0.00     0.000 C
ATOM      2  C2  A00 X   1      11.137   7.364  12.7650  0.00  0.00     0.000 C
ATOM      3  C3  A00 X   1       9.687   6.912  13.1380  0.00  0.00     0.000 C
ATOM      4  C4  A00 X   1       8.556   7.891  12.7310  0.00  0.00     0.000 C
ATOM      5  C5  A00 X   1       9.068   9.319  12.5450  0.00  0.00     0.000 C
ATOM      6  O5  A00 X   1      10.015   9.230  11.4570  0.00  0.00     0.000 O
ATOM      7   O  A00 X   1       9.603   6.764  14.5540  0.00  0.00     0.000 O
ATOM      9  HD  A00 X   1       8.871   7.146  14.2930  0.00  0.00     0.000 HD
ATOM      9   O  A00 X   1       7.893   7.457  11.5430  0.00  0.00     0.000 O
ATOM     11  HD  A00 X   1       7.161   7.839  11.2830  0.00  0.00     0.000 HD
ENDROOT
BRANCH 2 11
ATOM     11   O  A00 X   1      11.860   6.235  12.2370  0.00  0.00     0.000 O
ATOM     12   O  A00 X   1      11.711   4.054  13.2330  0.00  0.00     0.000 OA
ATOM     13   O  A00 X   1      12.682   5.882  14.5110  0.00  0.00     0.000 OA
ATOM     14   O  A00 X   1      13.812   5.009  12.6090  0.00  0.00     0.000 OA
ATOM     15   S  A00 X   1      12.538   5.235  13.2360  0.00  0.00     0.000 S
ENDBRANCH 2 11
BRANCH 5 16
ATOM     16   C  A00 X   1       9.641   9.971  13.8070  0.00  0.00     0.000 C
ATOM     17   O  A00 X   1      10.300  10.984  13.6890  0.00  0.00     0.000 OA
ATOM     18   O  A00 X   1       9.456   9.515  14.9180  0.00  0.00     0.000 OA
ENDBRANCH 5 16
BRANCH 1 19
ATOM     19  O4  A00 X   2      12.331   9.434  12.0300  0.00  0.00     0.000 O
BRANCH 19 23
ATOM     20  C1  A00 X   2      14.895  11.718   9.4670  0.00  0.00     0.000 C
ATOM     21  C2  A00 X   2      13.450  12.234   9.6760  0.00  0.00     0.000 C
ATOM     22  C3  A00 X   2      12.810  11.584  10.9200  0.00  0.00     0.000 C
ATOM     23  C4  A00 X   2      12.890  10.044  10.8320  0.00  0.00     0.000 C
ATOM     24  C5  A00 X   2      14.378   9.658  10.6050  0.00  0.00     0.000 C
ATOM     25  O5  A00 X   2      14.836  10.270   9.3710  0.00  0.00     0.000 O
ATOM     26   O  A00 X   2      11.499  12.145  11.1100  0.00  0.00     0.000 O
ATOM     28  HD  A00 X   2      11.266  12.006  10.2880  0.00  0.00     0.000 HD
BRANCH 21 30
ATOM     28   N  A00 X   2      13.829  13.070   8.5330  0.00  0.00     0.000 N
ATOM     30  HD  A00 X   2      12.980  13.187   8.6590  0.00  0.00     0.000 HD
ATOM     30   O  A00 X   2      12.119  14.619   8.1660  0.00  0.00     0.000 OA
ATOM     31   S  A00 X   2      12.708  13.508   7.5080  0.00  0.00     0.000 S
ATOM     32   O  A00 X   2      13.439  13.826   6.3210  0.00  0.00     0.000 OA
ATOM     33   O  A00 X   2      11.870  12.367   7.2850  0.00  0.00     0.000 OA
ENDBRANCH 21 30
BRANCH 24 34
ATOM     34   C  A00 X   2      14.764   8.164  10.7100  0.00  0.00     0.000 C
ATOM     35   O  A00 X   2      15.886   6.144   7.8960  0.00  0.00     0.000 OA
ATOM     36   O  A00 X   2      14.822   7.547   9.4090  0.00  0.00     0.000 O
ATOM     37   O  A00 X   2      16.910   8.170   8.5600  0.00  0.00     0.000 OA
ATOM     38   S  A00 X   2      16.231   6.987   8.9940  0.00  0.00     0.000 S
ATOM     39   O  A00 X   2      16.751   6.306  10.1420  0.00  0.00     0.000 OA
ENDBRANCH 24 34
BRANCH 20 40
ATOM     40  O4  A00 X   3      15.615  12.092  10.6500  0.00  0.00     0.000 O
BRANCH 40 44
ATOM     41  C1  A00 X   3      18.149  10.666  12.8100  0.00  0.00     0.000 C
ATOM     42  C2  A00 X   3      17.361  11.959  13.1130  0.00  0.00     0.000 C
ATOM     43  C3  A00 X   3      17.411  12.934  11.9090  0.00  0.00     0.000 C
ATOM     44  C4  A00 X   3      17.040  12.308  10.5710  0.00  0.00     0.000 C
ATOM     45  C5  A00 X   3      17.877  11.019  10.3360  0.00  0.00     0.000 C
ATOM     46  O5  A00 X   3      17.810  10.133  11.5000  0.00  0.00     0.000 O
ATOM     47   O  A00 X   3      16.787  14.201  12.1080  0.00  0.00     0.000 O
ATOM     49  HD  A00 X   3      16.535  14.080  11.2890  0.00  0.00     0.000 HD
BRANCH 42 49
ATOM     49   O  A00 X   3      16.005  11.565  13.4180  0.00  0.00     0.000 O
ATOM     50   O  A00 X   3      13.962  12.679  13.9820  0.00  0.00     0.000 OA
ATOM     51   O  A00 X   3      15.981  13.434  14.9550  0.00  0.00     0.000 OA
ATOM     52   O  A00 X   3      15.147  11.315  15.5890  0.00  0.00     0.000 OA
ATOM     53   S  A00 X   3      15.213  12.283  14.5490  0.00  0.00     0.000 S
ENDBRANCH 42 49
BRANCH 45 54
ATOM     54   C  A00 X   3      19.313  11.345   9.9090  0.00  0.00     0.000 C
ATOM     55   O  A00 X   3      20.063  10.465   9.5390  0.00  0.00     0.000 OA
ATOM     56   O  A00 X   3      19.728  12.494   9.9330  0.00  0.00     0.000 OA
ENDBRANCH 45 54
BRANCH 41 57
ATOM     57  O4  A00 X   4      19.568  10.845  13.0220  0.00  0.00     0.000 O
BRANCH 57 61
ATOM     58  C1  A00 X   4      22.661   7.965  13.9040  0.00  0.00     0.000 C
ATOM     59  C2  A00 X   4      22.642   8.627  12.5040  0.00  0.00     0.000 C
ATOM     60  C3  A00 X   4      21.740   9.875  12.4260  0.00  0.00     0.000 C
ATOM     61  C4  A00 X   4      20.349   9.616  13.0440  0.00  0.00     0.000 C
ATOM     62  C5  A00 X   4      20.598   9.166  14.5060  0.00  0.00     0.000 C
ATOM     63  O5  A00 X   4      21.344   7.922  14.5010  0.00  0.00     0.000 O
BRANCH 59 66
ATOM     64   N  A00 X   4      22.097   7.675  11.5200  0.00  0.00     0.000 N
ATOM     66  HD  A00 X   4      21.544   7.074  11.8090  0.00  0.00     0.000 HD
ATOM     66   O  A00 X   4      24.295   6.699  11.3960  0.00  0.00     0.000 OA
ATOM     67   S  A00 X   4      23.124   6.871  10.5940  0.00  0.00     0.000 S
ATOM     68   O  A00 X   4      22.367   5.679  10.3430  0.00  0.00     0.000 OA
ATOM     69   O  A00 X   4      23.205   7.763   9.4730  0.00  0.00     0.000 OA
ENDBRANCH 59 66
BRANCH 62 70
ATOM     70   C  A00 X   4      19.307   8.962  15.3330  0.00  0.00     0.000 C
ATOM     71   O  A00 X   4      17.079   6.109  15.3810  0.00  0.00     0.000 OA
ATOM     72   O  A00 X   4      16.623   8.408  15.1560  0.00  0.00     0.000 OA
ATOM     73   O  A00 X   4      18.885   7.593  15.2250  0.00  0.00     0.000 O
ATOM     74   O  A00 X   4      17.544   7.173  13.2680  0.00  0.00     0.000 OA
ATOM     75   S  A00 X   4      17.440   7.312  14.6850  0.00  0.00     0.000 S
ENDBRANCH 62 70
ENDBRANCH 57 61
ENDBRANCH 41 57
ENDBRANCH 40 44
ENDBRANCH 20 40
ENDBRANCH 19 23
ENDBRANCH 1 19
TORSDOF 14
ENDMDL
MODEL 14
REMARK VINA RESULT:      -5.6      3.949      6.771
ROOT
ATOM      1  C1  A00 X   1      11.071   8.517  14.2370  0.00  0.00     0.000 C
ATOM      2  C2  A00 X   1      10.901   7.231  13.3850  0.00  0.00     0.000 C
ATOM      3  C3  A00 X   1      10.635   7.447  11.8590  0.00  0.00     0.000 C
ATOM      4  C4  A00 X   1      10.212   8.881  11.4510  0.00  0.00     0.000 C
ATOM      5  C5  A00 X   1       9.613   9.662  12.6200  0.00  0.00     0.000 C
ATOM      6  O5  A00 X   1      10.684   9.753  13.5870  0.00  0.00     0.000 O
ATOM      7   O  A00 X   1       9.577   6.582  11.4520  0.00  0.00     0.000 O
ATOM      9  HD  A00 X   1       9.447   7.345  11.0640  0.00  0.00     0.000 HD
ATOM      9   O  A00 X   1      11.307   9.610  10.8950  0.00  0.00     0.000 O
ATOM     11  HD  A00 X   1      11.177  10.373  10.5070  0.00  0.00     0.000 HD
ENDROOT
BRANCH 2 11
ATOM     11   O  A00 X   1      12.092   6.437  13.5470  0.00  0.00     0.000 O
ATOM     12   O  A00 X   1      12.512   4.488  12.2080  0.00  0.00     0.000 OA
ATOM     13   O  A00 X   1      10.608   4.505  13.7220  0.00  0.00     0.000 OA
ATOM     14   O  A00 X   1      12.828   4.475  14.5770  0.00  0.00     0.000 OA
ATOM     15   S  A00 X   1      11.977   4.875  13.4890  0.00  0.00     0.000 S
ENDBRANCH 2 11
BRANCH 5 16
ATOM     16   C  A00 X   1       8.318   9.077  13.1930  0.00  0.00     0.000 C
ATOM     17   O  A00 X   1       7.698   8.275  12.5270  0.00  0.00     0.000 OA
ATOM     18   O  A00 X   1       7.895   9.382  14.2910  0.00  0.00     0.000 OA
ENDBRANCH 5 16
BRANCH 1 19
ATOM     19  O4  A00 X   2      10.476   8.403  15.5520  0.00  0.00     0.000 O
BRANCH 19 23
ATOM     20  C1  A00 X   2      13.689  10.455  17.5080  0.00  0.00     0.000 C
ATOM     21  C2  A00 X   2      13.680   8.909  17.5810  0.00  0.00     0.000 C
ATOM     22  C3  A00 X   2      12.751   8.314  16.5020  0.00  0.00     0.000 C
ATOM     23  C4  A00 X   2      11.337   8.928  16.6030  0.00  0.00     0.000 C
ATOM     24  C5  A00 X   2      11.484  10.473  16.5370  0.00  0.00     0.000 C
ATOM     25  O5  A00 X   2      12.317  10.910  17.6420  0.00  0.00     0.000 O
ATOM     26   O  A00 X   2      12.829   6.879  16.5650  0.00  0.00     0.000 O
ATOM     28  HD  A00 X   2      12.692   6.860  17.4200  0.00  0.00     0.000 HD
BRANCH 21 30
ATOM     28   N  A00 X   2      14.245   9.003  18.9300  0.00  0.00     0.000 N
ATOM     30  HD  A00 X   2      14.361   8.186  18.6660  0.00  0.00     0.000 HD
ATOM     30   O  A00 X   2      15.614   7.141  19.2770  0.00  0.00     0.000 OA
ATOM     31   S  A00 X   2      14.401   7.680  19.7810  0.00  0.00     0.000 S
ATOM     32   O  A00 X   2      14.464   8.151  21.1300  0.00  0.00     0.000 OA
ATOM     33   O  A00 X   2      13.213   6.905  19.5810  0.00  0.00     0.000 OA
ENDBRANCH 21 30
BRANCH 24 34
ATOM     34   C  A00 X   2      10.198  11.319  16.3870  0.00  0.00     0.000 C
ATOM     35   O  A00 X   2       7.326  11.079  18.6130  0.00  0.00     0.000 OA
ATOM     36   O  A00 X   2       9.118  10.771  17.1690  0.00  0.00     0.000 O
ATOM     37   O  A00 X   2       9.530  11.532  19.3420  0.00  0.00     0.000 OA
ATOM     38   S  A00 X   2       8.565  11.713  18.3010  0.00  0.00     0.000 S
ATOM     39   O  A00 X   2       8.451  13.018  17.7220  0.00  0.00     0.000 OA
ENDBRANCH 24 34
BRANCH 20 40
ATOM     40  O4  A00 X   3      14.176  10.778  16.1980  0.00  0.00     0.000 O
BRANCH 40 44
ATOM     41  C1  A00 X   3      13.678  12.797  13.2310  0.00  0.00     0.000 C
ATOM     42  C2  A00 X   3      14.775  11.723  13.3900  0.00  0.00     0.000 C
ATOM     43  C3  A00 X   3      15.573  11.934  14.7030  0.00  0.00     0.000 C
ATOM     44  C4  A00 X   3      14.711  12.096  15.9490  0.00  0.00     0.000 C
ATOM     45  C5  A00 X   3      13.636  13.195  15.7130  0.00  0.00     0.000 C
ATOM     46  O5  A00 X   3      12.916  12.962  14.4590  0.00  0.00     0.000 O
ATOM     47   O  A00 X   3      16.672  11.050  14.9140  0.00  0.00     0.000 O
ATOM     49  HD  A00 X   3      16.390  11.076  15.7320  0.00  0.00     0.000 HD
BRANCH 42 49
ATOM     49   O  A00 X   3      14.115  10.438  13.3750  0.00  0.00     0.000 O
ATOM     50   O  A00 X   3      14.783   8.145  13.5430  0.00  0.00     0.000 OA
ATOM     51   O  A00 X   3      16.089   9.621  12.2370  0.00  0.00     0.000 OA
ATOM     52   O  A00 X   3      13.920   9.065  11.4800  0.00  0.00     0.000 OA
ATOM     53   S  A00 X   3      14.753   9.236  12.6200  0.00  0.00     0.000 S
ENDBRANCH 42 49
BRANCH 45 54
ATOM     54   C  A00 X   3      14.234  14.604  15.8120  0.00  0.00     0.000 C
ATOM     55   O  A00 X   3      13.566  15.580  15.5400  0.00  0.00     0.000 OA
ATOM     56   O  A00 X   3      15.392  14.769  16.1650  0.00  0.00     0.000 OA
ENDBRANCH 45 54
BRANCH 41 57
ATOM     57  O4  A00 X   4      14.211  14.031  12.7010  0.00  0.00     0.000 O
BRANCH 57 61
ATOM     58  C1  A00 X   4      12.585  16.652   9.6810  0.00  0.00     0.000 C
ATOM     59  C2  A00 X   4      12.739  17.191  11.1250  0.00  0.00     0.000 C
ATOM     60  C3  A00 X   4      13.645  16.315  12.0140  0.00  0.00     0.000 C
ATOM     61  C4  A00 X   4      13.277  14.820  11.9110  0.00  0.00     0.000 C
ATOM     62  C5  A00 X   4      13.392  14.445  10.4130  0.00  0.00     0.000 C
ATOM     63  O5  A00 X   4      12.426  15.215   9.6530  0.00  0.00     0.000 O
BRANCH 59 66
ATOM     64   N  A00 X   4      11.860  17.652  12.2140  0.00  0.00     0.000 N
ATOM     66  HD  A00 X   4      11.209  17.132  12.4500  0.00  0.00     0.000 HD
ATOM     66   O  A00 X   4      11.006  19.309  10.6890  0.00  0.00     0.000 OA
ATOM     67   S  A00 X   4      11.198  19.103  12.0900  0.00  0.00     0.000 S
ATOM     68   O  A00 X   4      10.001  18.907  12.8550  0.00  0.00     0.000 OA
ATOM     69   O  A00 X   4      12.196  19.894  12.7530  0.00  0.00     0.000 OA
ENDBRANCH 59 66
BRANCH 62 70
ATOM     70   C  A00 X   4      13.164  12.943  10.1180  0.00  0.00     0.000 C
ATOM     71   O  A00 X   4      13.422  11.195   6.9580  0.00  0.00     0.000 OA
ATOM     72   O  A00 X   4      11.722  11.177   8.5870  0.00  0.00     0.000 OA
ATOM     73   O  A00 X   4      13.615  12.647   8.7860  0.00  0.00     0.000 O
ATOM     74   O  A00 X   4      11.949  13.098   7.1050  0.00  0.00     0.000 OA
ATOM     75   S  A00 X   4      12.585  12.016   7.7860  0.00  0.00     0.000 S
ENDBRANCH 62 70
ENDBRANCH 57 61
ENDBRANCH 41 57
ENDBRANCH 40 44
ENDBRANCH 20 40
ENDBRANCH 19 23
ENDBRANCH 1 19
TORSDOF 14
ENDMDL
MODEL 15
REMARK VINA RESULT:      -5.5      3.291      9.354
ROOT
ATOM      1  C1  A00 X   1      15.247  15.197   6.6970  0.00  0.00     0.000 C
ATOM      2  C2  A00 X   1      14.270  16.289   7.2080  0.00  0.00     0.000 C
ATOM      3  C3  A00 X   1      14.144  17.570   6.3190  0.00  0.00     0.000 C
ATOM      4  C4  A00 X   1      15.256  17.758   5.2560  0.00  0.00     0.000 C
ATOM      5  C5  A00 X   1      16.531  16.993   5.6130  0.00  0.00     0.000 C
ATOM      6  O5  A00 X   1      16.134  15.603   5.6250  0.00  0.00     0.000 O
ATOM      7   O  A00 X   1      14.191  18.719   7.1620  0.00  0.00     0.000 O
ATOM      9  HD  A00 X   1      14.667  18.897   6.4610  0.00  0.00     0.000 HD
ATOM      9   O  A00 X   1      14.808  17.370   3.9580  0.00  0.00     0.000 O
ATOM     11  HD  A00 X   1      15.284  17.548   3.2560  0.00  0.00     0.000 HD
ENDROOT
BRANCH 2 11
ATOM     11   O  A00 X   1      12.970  15.684   7.3470  0.00  0.00     0.000 O
ATOM     12   O  A00 X   1      10.991  16.995   7.7080  0.00  0.00     0.000 OA
ATOM     13   O  A00 X   1      12.740  16.990   9.3980  0.00  0.00     0.000 OA
ATOM     14   O  A00 X   1      11.449  15.034   8.9950  0.00  0.00     0.000 OA
ATOM     15   S  A00 X   1      11.985  16.243   8.4310  0.00  0.00     0.000 S
ENDBRANCH 2 11
BRANCH 5 16
ATOM     16   C  A00 X   1      17.217  17.445   6.9060  0.00  0.00     0.000 C
ATOM     17   O  A00 X   1      16.882  18.500   7.4030  0.00  0.00     0.000 OA
ATOM     18   O  A00 X   1      18.078  16.785   7.4520  0.00  0.00     0.000 OA
ENDBRANCH 5 16
BRANCH 1 19
ATOM     19  O4  A00 X   2      15.975  14.549   7.7680  0.00  0.00     0.000 O
BRANCH 19 23
ATOM     20  C1  A00 X   2      17.965  10.755   7.6490  0.00  0.00     0.000 C
ATOM     21  C2  A00 X   2      18.848  12.023   7.7430  0.00  0.00     0.000 C
ATOM     22  C3  A00 X   2      18.019  13.238   8.2070  0.00  0.00     0.000 C
ATOM     23  C4  A00 X   2      16.784  13.433   7.2980  0.00  0.00     0.000 C
ATOM     24  C5  A00 X   2      15.997  12.094   7.2740  0.00  0.00     0.000 C
ATOM     25  O5  A00 X   2      16.862  11.052   6.7520  0.00  0.00     0.000 O
ATOM     26   O  A00 X   2      18.895  14.370   8.3440  0.00  0.00     0.000 O
ATOM     28  HD  A00 X   2      19.240  14.261   7.5570  0.00  0.00     0.000 HD
BRANCH 21 30
ATOM     28   N  A00 X   2      19.917  12.604   8.5600  0.00  0.00     0.000 N
ATOM     30  HD  A00 X   2      20.291  12.028   8.0320  0.00  0.00     0.000 HD
ATOM     30   O  A00 X   2      21.962  12.104   7.5460  0.00  0.00     0.000 OA
ATOM     31   S  A00 X   2      21.261  11.791   8.7410  0.00  0.00     0.000 S
ATOM     32   O  A00 X   2      21.829  12.337   9.9350  0.00  0.00     0.000 OA
ATOM     33   O  A00 X   2      20.903  10.419   8.9430  0.00  0.00     0.000 OA
ENDBRANCH 21 30
BRANCH 24 34
ATOM     34   C  A00 X   2      14.595  12.089   6.6200  0.00  0.00     0.000 C
ATOM     35   O  A00 X   2      11.668  10.491   8.0820  0.00  0.00     0.000 OA
ATOM     36   O  A00 X   2      13.738  11.102   7.2290  0.00  0.00     0.000 O
ATOM     37   O  A00 X   2      12.972  12.124   9.1880  0.00  0.00     0.000 OA
ATOM     38   S  A00 X   2      12.453  11.672   7.9340  0.00  0.00     0.000 S
ATOM     39   O  A00 X   2      11.908  12.656   7.0480  0.00  0.00     0.000 OA
ENDBRANCH 24 34
BRANCH 20 40
ATOM     40  O4  A00 X   3      17.459  10.536   8.9750  0.00  0.00     0.000 O
BRANCH 40 44
ATOM     41  C1  A00 X   3      15.237   9.590  11.6750  0.00  0.00     0.000 C
ATOM     42  C2  A00 X   3      16.736   9.919  11.8430  0.00  0.00     0.000 C
ATOM     43  C3  A00 X   3      17.598   9.112  10.8380  0.00  0.00     0.000 C
ATOM     44  C4  A00 X   3      17.127   9.195   9.3910  0.00  0.00     0.000 C
ATOM     45  C5  A00 X   3      15.614   8.846   9.3030  0.00  0.00     0.000 C
ATOM     46  O5  A00 X   3      14.842   9.623  10.2750  0.00  0.00     0.000 O
ATOM     47   O  A00 X   3      19.010   9.271  10.9600  0.00  0.00     0.000 O
ATOM     49  HD  A00 X   3      18.974   9.250  10.0950  0.00  0.00     0.000 HD
BRANCH 42 49
ATOM     49   O  A00 X   3      16.883  11.342  11.6410  0.00  0.00     0.000 O
ATOM     50   O  A00 X   3      18.694  12.905  11.5750  0.00  0.00     0.000 OA
ATOM     51   O  A00 X   3      18.705  11.215  13.2290  0.00  0.00     0.000 OA
ATOM     52   O  A00 X   3      17.073  12.920  13.3690  0.00  0.00     0.000 OA
ATOM     53   S  A00 X   3      17.896  12.157  12.4950  0.00  0.00     0.000 S
ENDBRANCH 42 49
BRANCH 45 54
ATOM     54   C  A00 X   3      15.373   7.336   9.4090  0.00  0.00     0.000 C
ATOM     55   O  A00 X   3      16.281   6.582   9.6930  0.00  0.00     0.000 OA
ATOM     56   O  A00 X   3      14.264   6.864   9.2080  0.00  0.00     0.000 OA
ENDBRANCH 45 54
BRANCH 41 57
ATOM     57  O4  A00 X   4      14.879   8.368  12.3580  0.00  0.00     0.000 O
BRANCH 57 61
ATOM     58  C1  A00 X   4      11.241   7.001  14.2380  0.00  0.00     0.000 C
ATOM     59  C2  A00 X   4      11.237   7.249  12.7090  0.00  0.00     0.000 C
ATOM     60  C3  A00 X   4      12.650   7.380  12.1040  0.00  0.00     0.000 C
ATOM     61  C4  A00 X   4      13.536   8.345  12.9200  0.00  0.00     0.000 C
ATOM     62  C5  A00 X   4      13.569   7.789  14.3650  0.00  0.00     0.000 C
ATOM     63  O5  A00 X   4      12.227   7.812  14.9160  0.00  0.00     0.000 O
BRANCH 59 66
ATOM     64   N  A00 X   4      10.531   8.518  12.9600  0.00  0.00     0.000 N
ATOM     66  HD  A00 X   4      10.526   8.819  13.7720  0.00  0.00     0.000 HD
ATOM     66   O  A00 X   4       8.471   7.334  12.5690  0.00  0.00     0.000 OA
ATOM     67   S  A00 X   4       9.015   8.652  12.4680  0.00  0.00     0.000 S
ATOM     68   O  A00 X   4       8.516   9.600  13.4220  0.00  0.00     0.000 OA
ATOM     69   O  A00 X   4       9.221   9.192  11.1550  0.00  0.00     0.000 OA
ENDBRANCH 59 66
BRANCH 62 70
ATOM     70   C  A00 X   4      14.505   8.568  15.3200  0.00  0.00     0.000 C
ATOM     71   O  A00 X   4      14.139  11.934  16.6000  0.00  0.00     0.000 OA
ATOM     72   O  A00 X   4      15.981  10.868  15.5930  0.00  0.00     0.000 OA
ATOM     73   O  A00 X   4      13.848   9.769  15.7560  0.00  0.00     0.000 O
ATOM     74   O  A00 X   4      14.111  11.600  14.2120  0.00  0.00     0.000 OA
ATOM     75   S  A00 X   4      14.564  11.137  15.4840  0.00  0.00     0.000 S
ENDBRANCH 62 70
ENDBRANCH 57 61
ENDBRANCH 41 57
ENDBRANCH 40 44
ENDBRANCH 20 40
ENDBRANCH 19 23
ENDBRANCH 1 19
TORSDOF 14
ENDMDL
MODEL 16
REMARK VINA RESULT:      -5.4      4.595     11.216
ROOT
ATOM      1  C1  A00 X   1      12.496   7.797  12.9820  0.00  0.00     0.000 C
ATOM      2  C2  A00 X   1      12.192   7.662  11.4660  0.00  0.00     0.000 C
ATOM      3  C3  A00 X   1      10.835   6.978  11.0950  0.00  0.00     0.000 C
ATOM      4  C4  A00 X   1      10.143   6.200  12.2440  0.00  0.00     0.000 C
ATOM      5  C5  A00 X   1      11.129   5.784  13.3350  0.00  0.00     0.000 C
ATOM      6  O5  A00 X   1      11.640   7.029  13.8630  0.00  0.00     0.000 O
ATOM      7   O  A00 X   1      11.068   6.036  10.0510  0.00  0.00     0.000 O
ATOM      9  HD  A00 X   1      10.518   5.667  10.6090  0.00  0.00     0.000 HD
ATOM      9   O  A00 X   1       9.078   6.957  12.8190  0.00  0.00     0.000 O
ATOM     11  HD  A00 X   1       8.528   6.588  13.3770  0.00  0.00     0.000 HD
ENDROOT
BRANCH 2 11
ATOM     11   O  A00 X   1      12.223   8.984  10.8930  0.00  0.00     0.000 O
ATOM     12   O  A00 X   1      11.836   9.364   8.5540  0.00  0.00     0.000 OA
ATOM     13   O  A00 X   1      13.781   8.076   9.2450  0.00  0.00     0.000 OA
ATOM     14   O  A00 X   1      13.650  10.405   9.7110  0.00  0.00     0.000 OA
ATOM     15   S  A00 X   1      12.910   9.190   9.4990  0.00  0.00     0.000 S
ENDBRANCH 2 11
BRANCH 5 16
ATOM     16   C  A00 X   1      12.226   4.814  12.8820  0.00  0.00     0.000 C
ATOM     17   O  A00 X   1      13.141   4.575  13.6430  0.00  0.00     0.000 OA
ATOM     18   O  A00 X   1      12.209   4.273  11.7950  0.00  0.00     0.000 OA
ENDBRANCH 5 16
BRANCH 1 19
ATOM     19  O4  A00 X   2      13.896   7.592  13.2940  0.00  0.00     0.000 O
BRANCH 19 23
ATOM     20  C1  A00 X   2      13.901  10.270  16.6400  0.00  0.00     0.000 C
ATOM     21  C2  A00 X   2      14.292  10.851  15.2590  0.00  0.00     0.000 C
ATOM     22  C3  A00 X   2      13.833   9.916  14.1200  0.00  0.00     0.000 C
ATOM     23  C4  A00 X   2      14.371   8.484  14.3430  0.00  0.00     0.000 C
ATOM     24  C5  A00 X   2      13.930   8.027  15.7600  0.00  0.00     0.000 C
ATOM     25  O5  A00 X   2      14.484   8.944  16.7400  0.00  0.00     0.000 O
ATOM     26   O  A00 X   2      14.156  10.530  12.8610  0.00  0.00     0.000 O
ATOM     28  HD  A00 X   2      14.977  10.686  13.0910  0.00  0.00     0.000 HD
BRANCH 21 30
ATOM     28   N  A00 X   2      15.233  11.741  15.9450  0.00  0.00     0.000 N
ATOM     30  HD  A00 X   2      15.130  12.055  15.1450  0.00  0.00     0.000 HD
ATOM     30   O  A00 X   2      15.381  13.726  14.7220  0.00  0.00     0.000 OA
ATOM     31   S  A00 X   2      16.210  12.628  15.0750  0.00  0.00     0.000 S
ATOM     32   O  A00 X   2      17.276  12.942  15.9760  0.00  0.00     0.000 OA
ATOM     33   O  A00 X   2      16.689  11.805  14.0050  0.00  0.00     0.000 OA
ENDBRANCH 21 30
BRANCH 24 34
ATOM     34   C  A00 X   2      14.144   6.544  16.1430  0.00  0.00     0.000 C
ATOM     35   O  A00 X   2      16.283   5.427  18.8710  0.00  0.00     0.000 OA
ATOM     36   O  A00 X   2      15.290   6.386  17.0040  0.00  0.00     0.000 O
ATOM     37   O  A00 X   2      14.504   6.965  19.1300  0.00  0.00     0.000 OA
ATOM     38   S  A00 X   2      14.980   5.808  18.4340  0.00  0.00     0.000 S
ATOM     39   O  A00 X   2      14.063   4.725  18.2430  0.00  0.00     0.000 OA
ENDBRANCH 24 34
BRANCH 20 40
ATOM     40  O4  A00 X   3      12.470  10.166  16.6260  0.00  0.00     0.000 O
BRANCH 40 44
ATOM     41  C1  A00 X   3       9.478   8.267  17.3750  0.00  0.00     0.000 C
ATOM     42  C2  A00 X   3       9.492   9.663  16.7160  0.00  0.00     0.000 C
ATOM     43  C3  A00 X   3      10.359  10.654  17.5340  0.00  0.00     0.000 C
ATOM     44  C4  A00 X   3      11.752  10.142  17.8780  0.00  0.00     0.000 C
ATOM     45  C5  A00 X   3      11.654   8.739  18.5410  0.00  0.00     0.000 C
ATOM     46  O5  A00 X   3      10.819   7.840  17.7410  0.00  0.00     0.000 O
ATOM     47   O  A00 X   3      10.375  12.001  17.0650  0.00  0.00     0.000 O
ATOM     49  HD  A00 X   3      11.211  11.950  17.2880  0.00  0.00     0.000 HD
BRANCH 42 49
ATOM     49   O  A00 X   3      10.005   9.493  15.3770  0.00  0.00     0.000 O
ATOM     50   O  A00 X   3      10.698  10.930  13.5920  0.00  0.00     0.000 OA
ATOM     51   O  A00 X   3       8.758  11.491  14.8200  0.00  0.00     0.000 OA
ATOM     52   O  A00 X   3       8.698   9.582  13.4280  0.00  0.00     0.000 OA
ATOM     53   S  A00 X   3       9.522  10.423  14.2260  0.00  0.00     0.000 S
ENDBRANCH 42 49
BRANCH 45 54
ATOM     54   C  A00 X   3      11.209   8.832  20.0050  0.00  0.00     0.000 C
ATOM     55   O  A00 X   3      11.276   7.865  20.7350  0.00  0.00     0.000 OA
ATOM     56   O  A00 X   3      10.779   9.880  20.4620  0.00  0.00     0.000 OA
ENDBRANCH 45 54
BRANCH 41 57
ATOM     57  O4  A00 X   4       8.524   8.198  18.4590  0.00  0.00     0.000 O
BRANCH 57 61
ATOM     58  C1  A00 X   4       6.053   5.006  19.9910  0.00  0.00     0.000 C
ATOM     59  C2  A00 X   4       7.590   4.818  19.9900  0.00  0.00     0.000 C
ATOM     60  C3  A00 X   4       8.370   6.130  19.7670  0.00  0.00     0.000 C
ATOM     61  C4  A00 X   4       7.810   6.934  18.5740  0.00  0.00     0.000 C
ATOM     62  C5  A00 X   4       6.314   7.190  18.8850  0.00  0.00     0.000 C
ATOM     63  O5  A00 X   4       5.618   5.920  18.9580  0.00  0.00     0.000 O
BRANCH 59 66
ATOM     64   N  A00 X   4       7.057   3.990  18.8930  0.00  0.00     0.000 N
ATOM     66  HD  A00 X   4       6.211   4.053  18.7190  0.00  0.00     0.000 HD
ATOM     66   O  A00 X   4       7.412   2.071  20.3030  0.00  0.00     0.000 OA
ATOM     67   S  A00 X   4       7.353   2.419  18.9180  0.00  0.00     0.000 S
ATOM     68   O  A00 X   4       6.208   1.929  18.2070  0.00  0.00     0.000 OA
ATOM     69   O  A00 X   4       8.574   2.379  18.1640  0.00  0.00     0.000 OA
ENDBRANCH 59 66
BRANCH 62 70
ATOM     70   C  A00 X   4       5.597   8.085  17.8470  0.00  0.00     0.000 C
ATOM     71   O  A00 X   4       2.431   9.814  18.1540  0.00  0.00     0.000 OA
ATOM     72   O  A00 X   4       3.258   8.421  16.4460  0.00  0.00     0.000 OA
ATOM     73   O  A00 X   4       4.497   8.759  18.4800  0.00  0.00     0.000 O
ATOM     74   O  A00 X   4       2.486   7.434  18.5350  0.00  0.00     0.000 OA
ATOM     75   S  A00 X   4       3.065   8.557  17.8720  0.00  0.00     0.000 S
ENDBRANCH 62 70
ENDBRANCH 57 61
ENDBRANCH 41 57
ENDBRANCH 40 44
ENDBRANCH 20 40
ENDBRANCH 19 23
ENDBRANCH 1 19
TORSDOF 14
ENDMDL
MODEL 17
REMARK VINA RESULT:      -5.3      4.345      9.246
ROOT
ATOM      1  C1  A00 X   1      10.498   9.302  11.9530  0.00  0.00     0.000 C
ATOM      2  C2  A00 X   1      11.642   8.420  12.5200  0.00  0.00     0.000 C
ATOM      3  C3  A00 X   1      11.200   7.129  13.2860  0.00  0.00     0.000 C
ATOM      4  C4  A00 X   1       9.708   7.078  13.7030  0.00  0.00     0.000 C
ATOM      5  C5  A00 X   1       9.083   8.470  13.7840  0.00  0.00     0.000 C
ATOM      6  O5  A00 X   1       9.169   8.991  12.4390  0.00  0.00     0.000 O
ATOM      7   O  A00 X   1      11.960   7.028  14.4880  0.00  0.00     0.000 O
ATOM      9  HD  A00 X   1      11.145   6.809  14.6820  0.00  0.00     0.000 HD
ATOM      9   O  A00 X   1       8.946   6.259  12.8160  0.00  0.00     0.000 O
ATOM     11  HD  A00 X   1       8.131   6.039  13.0090  0.00  0.00     0.000 HD
ENDROOT
BRANCH 2 11
ATOM     11   O  A00 X   1      12.492   8.044  11.4190  0.00  0.00     0.000 O
ATOM     12   O  A00 X   1      11.836   8.383   9.1340  0.00  0.00     0.000 OA
ATOM     13   O  A00 X   1      10.559   6.848  10.5240  0.00  0.00     0.000 OA
ATOM     14   O  A00 X   1      12.785   6.318   9.8740  0.00  0.00     0.000 OA
ATOM     15   S  A00 X   1      11.847   7.370  10.1590  0.00  0.00     0.000 S
ENDBRANCH 2 11
BRANCH 5 16
ATOM     16   C  A00 X   1       9.697   9.395  14.8400  0.00  0.00     0.000 C
ATOM     17   O  A00 X   1       9.341  10.555  14.8750  0.00  0.00     0.000 OA
ATOM     18   O  A00 X   1      10.521   9.009  15.6450  0.00  0.00     0.000 OA
ENDBRANCH 5 16
BRANCH 1 19
ATOM     19  O4  A00 X   2      10.779  10.719  12.0560  0.00  0.00     0.000 O
BRANCH 19 23
ATOM     20  C1  A00 X   2      14.384  12.949  11.4240  0.00  0.00     0.000 C
ATOM     21  C2  A00 X   2      13.823  12.144  10.2270  0.00  0.00     0.000 C
ATOM     22  C3  A00 X   2      12.345  11.767  10.4630  0.00  0.00     0.000 C
ATOM     23  C4  A00 X   2      12.181  11.030  11.8110  0.00  0.00     0.000 C
ATOM     24  C5  A00 X   2      12.796  11.927  12.9200  0.00  0.00     0.000 C
ATOM     25  O5  A00 X   2      14.199  12.146  12.6200  0.00  0.00     0.000 O
ATOM     26   O  A00 X   2      11.852  11.084   9.2980  0.00  0.00     0.000 O
ATOM     28  HD  A00 X   2      12.519  10.532   9.2770  0.00  0.00     0.000 HD
BRANCH 21 30
ATOM     28   N  A00 X   2      15.210  11.946   9.7970  0.00  0.00     0.000 N
ATOM     30  HD  A00 X   2      14.706  11.715   9.1320  0.00  0.00     0.000 HD
ATOM     30   O  A00 X   2      15.228  11.740   7.4700  0.00  0.00     0.000 OA
ATOM     31   S  A00 X   2      15.501  10.941   8.6120  0.00  0.00     0.000 S
ATOM     32   O  A00 X   2      16.877  10.595   8.7920  0.00  0.00     0.000 OA
ATOM     33   O  A00 X   2      14.668   9.794   8.8160  0.00  0.00     0.000 OA
ENDBRANCH 21 30
BRANCH 24 34
ATOM     34   C  A00 X   2      12.557  11.524  14.3950  0.00  0.00     0.000 C
ATOM     35   O  A00 X   2      13.353  13.645  17.2450  0.00  0.00     0.000 OA
ATOM     36   O  A00 X   2      13.279  12.387  15.2960  0.00  0.00     0.000 O
ATOM     37   O  A00 X   2      11.948  14.303  15.4600  0.00  0.00     0.000 OA
ATOM     38   S  A00 X   2      12.387  13.220  16.2860  0.00  0.00     0.000 S
ATOM     39   O  A00 X   2      11.390  12.322  16.7870  0.00  0.00     0.000 OA
ENDBRANCH 24 34
BRANCH 20 40
ATOM     40  O4  A00 X   3      13.576  14.131  11.5100  0.00  0.00     0.000 O
BRANCH 40 44
ATOM     41  C1  A00 X   3      12.302  17.504  11.1520  0.00  0.00     0.000 C
ATOM     42  C2  A00 X   3      13.247  16.808  10.1480  0.00  0.00     0.000 C
ATOM     43  C3  A00 X   3      14.478  16.204  10.8710  0.00  0.00     0.000 C
ATOM     44  C4  A00 X   3      14.141  15.334  12.0750  0.00  0.00     0.000 C
ATOM     45  C5  A00 X   3      13.193  16.102  13.0390  0.00  0.00     0.000 C
ATOM     46  O5  A00 X   3      12.052  16.664  12.3130  0.00  0.00     0.000 O
ATOM     47   O  A00 X   3      15.465  15.611  10.0300  0.00  0.00     0.000 O
ATOM     49  HD  A00 X   3      15.498  15.028  10.6700  0.00  0.00     0.000 HD
BRANCH 42 49
ATOM     49   O  A00 X   3      12.475  15.788   9.4770  0.00  0.00     0.000 O
ATOM     50   O  A00 X   3      12.860  14.184   7.7430  0.00  0.00     0.000 OA
ATOM     51   O  A00 X   3      13.738  16.365   7.4950  0.00  0.00     0.000 OA
ATOM     52   O  A00 X   3      11.393  16.078   7.4130  0.00  0.00     0.000 OA
ATOM     53   S  A00 X   3      12.615  15.578   7.9420  0.00  0.00     0.000 S
ENDBRANCH 42 49
BRANCH 45 54
ATOM     54   C  A00 X   3      13.952  17.145  13.8690  0.00  0.00     0.000 C
ATOM     55   O  A00 X   3      15.107  17.418  13.6130  0.00  0.00     0.000 OA
ATOM     56   O  A00 X   3      13.410  17.717  14.8020  0.00  0.00     0.000 OA
ENDBRANCH 45 54
BRANCH 41 57
ATOM     57  O4  A00 X   4      12.757  18.836  11.4780  0.00  0.00     0.000 O
BRANCH 57 61
ATOM     58  C1  A00 X   4      10.653  22.487  12.4200  0.00  0.00     0.000 C
ATOM     59  C2  A00 X   4      11.095  21.565  13.5830  0.00  0.00     0.000 C
ATOM     60  C3  A00 X   4      12.131  20.501  13.1660  0.00  0.00     0.000 C
ATOM     61  C4  A00 X   4      11.710  19.767  11.8750  0.00  0.00     0.000 C
ATOM     62  C5  A00 X   4      11.526  20.860  10.7920  0.00  0.00     0.000 C
ATOM     63  O5  A00 X   4      10.453  21.751  11.1910  0.00  0.00     0.000 O
BRANCH 59 66
ATOM     64   N  A00 X   4      10.330  20.727  14.5240  0.00  0.00     0.000 N
ATOM     66  HD  A00 X   4       9.695  20.237  14.1980  0.00  0.00     0.000 HD
ATOM     66   O  A00 X   4       9.368  22.756  15.3930  0.00  0.00     0.000 OA
ATOM     67   S  A00 X   4       9.686  21.427  15.8100  0.00  0.00     0.000 S
ATOM     68   O  A00 X   4       8.562  20.566  16.0380  0.00  0.00     0.000 OA
ATOM     69   O  A00 X   4      10.756  21.258  16.7520  0.00  0.00     0.000 OA
ENDBRANCH 59 66
BRANCH 62 70
ATOM     70   C  A00 X   4      11.206  20.306   9.3830  0.00  0.00     0.000 C
ATOM     71   O  A00 X   4       8.155  20.636   7.4630  0.00  0.00     0.000 OA
ATOM     72   O  A00 X   4       9.456  18.738   7.9600  0.00  0.00     0.000 OA
ATOM     73   O  A00 X   4       9.977  20.884   8.9130  0.00  0.00     0.000 O
ATOM     74   O  A00 X   4       8.024  19.701   9.6810  0.00  0.00     0.000 OA
ATOM     75   S  A00 X   4       8.815  19.911   8.5120  0.00  0.00     0.000 S
ENDBRANCH 62 70
ENDBRANCH 57 61
ENDBRANCH 41 57
ENDBRANCH 40 44
ENDBRANCH 20 40
ENDBRANCH 19 23
ENDBRANCH 1 19
TORSDOF 14
ENDMDL
MODEL 18
REMARK VINA RESULT:      -5.3      4.191      9.991
ROOT
ATOM      1  C1  A00 X   1      15.919  16.455   3.6290  0.00  0.00     0.000 C
ATOM      2  C2  A00 X   1      16.717  17.766   3.3970  0.00  0.00     0.000 C
ATOM      3  C3  A00 X   1      17.179  18.038   1.9270  0.00  0.00     0.000 C
ATOM      4  C4  A00 X   1      17.113  16.820   0.9690  0.00  0.00     0.000 C
ATOM      5  C5  A00 X   1      17.138  15.491   1.7240  0.00  0.00     0.000 C
ATOM      6  O5  A00 X   1      15.942  15.506   2.5340  0.00  0.00     0.000 O
ATOM      7   O  A00 X   1      18.539  18.464   1.9470  0.00  0.00     0.000 O
ATOM      9  HD  A00 X   1      18.452  17.919   1.2790  0.00  0.00     0.000 HD
ATOM      9   O  A00 X   1      15.959  16.877   0.1310  0.00  0.00     0.000 O
ATOM     11  HD  A00 X   1      15.871  16.332  -0.5360  0.00  0.00     0.000 HD
ENDROOT
BRANCH 2 11
ATOM     11   O  A00 X   1      15.896  18.863   3.8410  0.00  0.00     0.000 O
ATOM     12   O  A00 X   1      16.513  21.151   3.4490  0.00  0.00     0.000 OA
ATOM     13   O  A00 X   1      17.917  19.767   4.8740  0.00  0.00     0.000 OA
ATOM     14   O  A00 X   1      15.739  20.408   5.5850  0.00  0.00     0.000 OA
ATOM     15   S  A00 X   1      16.589  20.126   4.4600  0.00  0.00     0.000 S
ENDBRANCH 2 11
BRANCH 5 16
ATOM     16   C  A00 X   1      18.417  15.224   2.5230  0.00  0.00     0.000 C
ATOM     17   O  A00 X   1      18.441  14.277   3.2830  0.00  0.00     0.000 OA
ATOM     18   O  A00 X   1      19.408  15.919   2.4190  0.00  0.00     0.000 OA
ENDBRANCH 5 16
BRANCH 1 19
ATOM     19  O4  A00 X   2      16.243  15.817   4.8890  0.00  0.00     0.000 O
BRANCH 19 23
ATOM     20  C1  A00 X   2      14.941  17.004   8.7950  0.00  0.00     0.000 C
ATOM     21  C2  A00 X   2      14.069  17.433   7.5900  0.00  0.00     0.000 C
ATOM     22  C3  A00 X   2      14.406  16.592   6.3410  0.00  0.00     0.000 C
ATOM     23  C4  A00 X   2      15.920  16.651   6.0380  0.00  0.00     0.000 C
ATOM     24  C5  A00 X   2      16.679  16.219   7.3220  0.00  0.00     0.000 C
ATOM     25  O5  A00 X   2      16.333  17.129   8.3980  0.00  0.00     0.000 O
ATOM     26   O  A00 X   2      13.525  16.980   5.2730  0.00  0.00     0.000 O
ATOM     28  HD  A00 X   2      13.690  17.824   5.3760  0.00  0.00     0.000 HD
BRANCH 21 30
ATOM     28   N  A00 X   2      12.709  17.394   7.0440  0.00  0.00     0.000 N
ATOM     30  HD  A00 X   2      12.715  18.004   7.6590  0.00  0.00     0.000 HD
ATOM     30   O  A00 X   2      11.606  19.346   7.7000  0.00  0.00     0.000 OA
ATOM     31   S  A00 X   2      11.521  17.947   7.9280  0.00  0.00     0.000 S
ATOM     32   O  A00 X   2      10.364  17.314   7.3750  0.00  0.00     0.000 OA
ATOM     33   O  A00 X   2      11.743  17.494   9.2690  0.00  0.00     0.000 OA
ENDBRANCH 21 30
BRANCH 24 34
ATOM     34   C  A00 X   2      18.202  15.972   7.2160  0.00  0.00     0.000 C
ATOM     35   O  A00 X   2      19.807  12.783   7.9350  0.00  0.00     0.000 OA
ATOM     36   O  A00 X   2      18.582  14.754   7.8880  0.00  0.00     0.000 O
ATOM     37   O  A00 X   2      18.061  13.060   6.3630  0.00  0.00     0.000 OA
ATOM     38   S  A00 X   2      19.217  13.649   6.9670  0.00  0.00     0.000 S
ATOM     39   O  A00 X   2      20.145  14.321   6.1090  0.00  0.00     0.000 OA
ENDBRANCH 24 34
BRANCH 20 40
ATOM     40  O4  A00 X   3      14.630  15.623   9.0260  0.00  0.00     0.000 O
BRANCH 40 44
ATOM     41  C1  A00 X   3      14.886  12.135   9.9720  0.00  0.00     0.000 C
ATOM     42  C2  A00 X   3      13.560  12.879   9.7020  0.00  0.00     0.000 C
ATOM     43  C3  A00 X   3      13.491  14.201  10.5090  0.00  0.00     0.000 C
ATOM     44  C4  A00 X   3      14.717  15.094  10.3670  0.00  0.00     0.000 C
ATOM     45  C5  A00 X   3      16.007  14.277  10.6580  0.00  0.00     0.000 C
ATOM     46  O5  A00 X   3      16.025  13.034   9.8830  0.00  0.00     0.000 O
ATOM     47   O  A00 X   3      12.271  14.931  10.4050  0.00  0.00     0.000 O
ATOM     49  HD  A00 X   3      12.809  15.610  10.4000  0.00  0.00     0.000 HD
BRANCH 42 49
ATOM     49   O  A00 X   3      13.494  13.124   8.2800  0.00  0.00     0.000 O
ATOM     50   O  A00 X   3      11.795  13.092   6.5930  0.00  0.00     0.000 OA
ATOM     51   O  A00 X   3      11.820  11.377   8.2210  0.00  0.00     0.000 OA
ATOM     52   O  A00 X   3      13.571  11.451   6.6350  0.00  0.00     0.000 OA
ATOM     53   S  A00 X   3      12.621  12.217   7.3650  0.00  0.00     0.000 S
ENDBRANCH 42 49
BRANCH 45 54
ATOM     54   C  A00 X   3      16.211  14.054  12.1610  0.00  0.00     0.000 C
ATOM     55   O  A00 X   3      17.252  13.592  12.5820  0.00  0.00     0.000 OA
ATOM     56   O  A00 X   3      15.332  14.336  12.9600  0.00  0.00     0.000 OA
ENDBRANCH 45 54
BRANCH 41 57
ATOM     57  O4  A00 X   4      14.831  11.375  11.2000  0.00  0.00     0.000 O
BRANCH 57 61
ATOM     58  C1  A00 X   4      16.492   7.574  12.3970  0.00  0.00     0.000 C
ATOM     59  C2  A00 X   4      17.407   8.825  12.4250  0.00  0.00     0.000 C
ATOM     60  C3  A00 X   4      16.632  10.155  12.3310  0.00  0.00     0.000 C
ATOM     61  C4  A00 X   4      15.590  10.132  11.1920  0.00  0.00     0.000 C
ATOM     62  C5  A00 X   4      14.655   8.931  11.4800  0.00  0.00     0.000 C
ATOM     63  O5  A00 X   4      15.426   7.704  11.4290  0.00  0.00     0.000 O
BRANCH 59 66
ATOM     64   N  A00 X   4      18.684   9.470  12.7780  0.00  0.00     0.000 N
ATOM     66  HD  A00 X   4      19.027  10.019  12.2030  0.00  0.00     0.000 HD
ATOM     66   O  A00 X   4      19.731   7.318  12.5100  0.00  0.00     0.000 OA
ATOM     67   S  A00 X   4      19.903   8.540  13.2320  0.00  0.00     0.000 S
ATOM     68   O  A00 X   4      21.013   9.349  12.8210  0.00  0.00     0.000 OA
ATOM     69   O  A00 X   4      19.687   8.514  14.6510  0.00  0.00     0.000 OA
ENDBRANCH 59 66
BRANCH 62 70
ATOM     70   C  A00 X   4      13.467   8.806  10.4970  0.00  0.00     0.000 C
ATOM     71   O  A00 X   4      10.278   7.168  11.0020  0.00  0.00     0.000 OA
ATOM     72   O  A00 X   4      11.818   7.014   9.2270  0.00  0.00     0.000 OA
ATOM     73   O  A00 X   4      12.322   8.296  11.1990  0.00  0.00     0.000 O
ATOM     74   O  A00 X   4      12.296   5.890  11.3350  0.00  0.00     0.000 OA
ATOM     75   S  A00 X   4      11.661   6.978  10.6640  0.00  0.00     0.000 S
ENDBRANCH 62 70
ENDBRANCH 57 61
ENDBRANCH 41 57
ENDBRANCH 40 44
ENDBRANCH 20 40
ENDBRANCH 19 23
ENDBRANCH 1 19
TORSDOF 14
ENDMDL
MODEL 19
REMARK VINA RESULT:      -5.1      3.032      7.502
ROOT
ATOM      1  C1  A00 X   1      17.054   9.697  11.7860  0.00  0.00     0.000 C
ATOM      2  C2  A00 X   1      17.634   9.726  13.2250  0.00  0.00     0.000 C
ATOM      3  C3  A00 X   1      18.677  10.853  13.5220  0.00  0.00     0.000 C
ATOM      4  C4  A00 X   1      19.274  11.558  12.2770  0.00  0.00     0.000 C
ATOM      5  C5  A00 X   1      19.166  10.696  11.0190  0.00  0.00     0.000 C
ATOM      6  O5  A00 X   1      17.746  10.520  10.8150  0.00  0.00     0.000 O
ATOM      7   O  A00 X   1      19.776  10.284  14.2300  0.00  0.00     0.000 O
ATOM      9  HD  A00 X   1      20.105  10.836  13.6490  0.00  0.00     0.000 HD
ATOM      9   O  A00 X   1      18.655  12.824  12.0480  0.00  0.00     0.000 O
ATOM     11  HD  A00 X   1      18.984  13.376  11.4670  0.00  0.00     0.000 HD
ENDROOT
BRANCH 2 11
ATOM     11   O  A00 X   1      16.529   9.856  14.1400  0.00  0.00     0.000 O
ATOM     12   O  A00 X   1      16.863  10.228  16.4890  0.00  0.00     0.000 OA
ATOM     13   O  A00 X   1      17.637   8.149  15.4920  0.00  0.00     0.000 OA
ATOM     14   O  A00 X   1      15.309   8.600  15.6850  0.00  0.00     0.000 OA
ATOM     15   S  A00 X   1      16.624   9.166  15.5450  0.00  0.00     0.000 S
ENDBRANCH 2 11
BRANCH 5 16
ATOM     16   C  A00 X   1      19.946   9.378  11.0680  0.00  0.00     0.000 C
ATOM     17   O  A00 X   1      20.800   9.240  11.9200  0.00  0.00     0.000 OA
ATOM     18   O  A00 X   1      19.736   8.467  10.2930  0.00  0.00     0.000 OA
ENDBRANCH 5 16
BRANCH 1 19
ATOM     19  O4  A00 X   2      16.852   8.351  11.2890  0.00  0.00     0.000 O
BRANCH 19 23
ATOM     20  C1  A00 X   2      13.062   9.264   9.5100  0.00  0.00     0.000 C
ATOM     21  C2  A00 X   2      13.054   8.531  10.8740  0.00  0.00     0.000 C
ATOM     22  C3  A00 X   2      14.422   8.660  11.5750  0.00  0.00     0.000 C
ATOM     23  C4  A00 X   2      15.558   8.181  10.6440  0.00  0.00     0.000 C
ATOM     24  C5  A00 X   2      15.446   8.973   9.3130  0.00  0.00     0.000 C
ATOM     25  O5  A00 X   2      14.148   8.710   8.7200  0.00  0.00     0.000 O
ATOM     26   O  A00 X   2      14.342   8.025  12.8630  0.00  0.00     0.000 O
ATOM     28  HD  A00 X   2      14.004   7.297  12.5380  0.00  0.00     0.000 HD
BRANCH 21 30
ATOM     28   N  A00 X   2      11.778   7.963  10.4260  0.00  0.00     0.000 N
ATOM     30  HD  A00 X   2      11.872   7.743  11.2590  0.00  0.00     0.000 HD
ATOM     30   O  A00 X   2      10.539   7.378  12.3180  0.00  0.00     0.000 OA
ATOM     31   S  A00 X   2      11.174   6.738  11.2210  0.00  0.00     0.000 S
ATOM     32   O  A00 X   2      10.285   6.129  10.2810  0.00  0.00     0.000 OA
ATOM     33   O  A00 X   2      12.259   5.853  11.5250  0.00  0.00     0.000 OA
ENDBRANCH 21 30
BRANCH 24 34
ATOM     34   C  A00 X   2      16.604   8.848   8.2940  0.00  0.00     0.000 C
ATOM     35   O  A00 X   2      18.372   5.745   7.5870  0.00  0.00     0.000 OA
ATOM     36   O  A00 X   2      17.332   7.618   8.4800  0.00  0.00     0.000 O
ATOM     37   O  A00 X   2      16.028   6.001   7.4050  0.00  0.00     0.000 OA
ATOM     38   S  A00 X   2      17.305   6.631   7.2560  0.00  0.00     0.000 S
ATOM     39   O  A00 X   2      17.519   7.429   6.0870  0.00  0.00     0.000 OA
ENDBRANCH 24 34
BRANCH 20 40
ATOM     40  O4  A00 X   3      13.340  10.639   9.8100  0.00  0.00     0.000 O
BRANCH 40 44
ATOM     41  C1  A00 X   3      15.065  13.688   8.8840  0.00  0.00     0.000 C
ATOM     42  C2  A00 X   3      14.185  13.522  10.1420  0.00  0.00     0.000 C
ATOM     43  C3  A00 X   3      12.801  12.926   9.7770  0.00  0.00     0.000 C
ATOM     44  C4  A00 X   3      12.859  11.668   8.9190  0.00  0.00     0.000 C
ATOM     45  C5  A00 X   3      13.756  11.915   7.6730  0.00  0.00     0.000 C
ATOM     46  O5  A00 X   3      15.047  12.487   8.0630  0.00  0.00     0.000 O
ATOM     47   O  A00 X   3      11.871  12.808  10.8520  0.00  0.00     0.000 O
ATOM     49  HD  A00 X   3      11.678  12.063  10.4540  0.00  0.00     0.000 HD
BRANCH 42 49
ATOM     49   O  A00 X   3      14.906  12.663  11.0520  0.00  0.00     0.000 O
ATOM     50   O  A00 X   3      14.504  11.690  13.2020  0.00  0.00     0.000 OA
ATOM     51   O  A00 X   3      13.855  13.932  12.8250  0.00  0.00     0.000 OA
ATOM     52   O  A00 X   3      16.162  13.422  12.8860  0.00  0.00     0.000 OA
ATOM     53   S  A00 X   3      14.862  12.928  12.5850  0.00  0.00     0.000 S
ENDBRANCH 42 49
BRANCH 45 54
ATOM     54   C  A00 X   3      13.029  12.740   6.6050  0.00  0.00     0.000 C
ATOM     55   O  A00 X   3      13.615  13.121   5.6120  0.00  0.00     0.000 OA
ATOM     56   O  A00 X   3      11.849  13.029   6.7340  0.00  0.00     0.000 OA
ENDBRANCH 45 54
BRANCH 41 57
ATOM     57  O4  A00 X   4      14.741  14.897   8.1620  0.00  0.00     0.000 O
BRANCH 57 61
ATOM     58  C1  A00 X   4      17.499  17.187   5.7560  0.00  0.00     0.000 C
ATOM     59  C2  A00 X   4      16.090  16.888   5.1860  0.00  0.00     0.000 C
ATOM     60  C3  A00 X   4      15.089  16.391   6.2500  0.00  0.00     0.000 C
ATOM     61  C4  A00 X   4      15.691  15.271   7.1240  0.00  0.00     0.000 C
ATOM     62  C5  A00 X   4      16.976  15.857   7.7600  0.00  0.00     0.000 C
ATOM     63  O5  A00 X   4      17.921  16.185   6.7100  0.00  0.00     0.000 O
BRANCH 59 66
ATOM     64   N  A00 X   4      16.661  15.831   4.3320  0.00  0.00     0.000 N
ATOM     66  HD  A00 X   4      17.456  15.546   4.5260  0.00  0.00     0.000 HD
ATOM     66   O  A00 X   4      16.842  17.480   2.5860  0.00  0.00     0.000 OA
ATOM     67   S  A00 X   4      16.689  16.068   2.7500  0.00  0.00     0.000 S
ATOM     68   O  A00 X   4      17.829  15.277   2.3900  0.00  0.00     0.000 OA
ATOM     69   O  A00 X   4      15.429  15.484   2.3850  0.00  0.00     0.000 OA
ENDBRANCH 59 66
BRANCH 62 70
ATOM     70   C  A00 X   4      17.671  14.910   8.7680  0.00  0.00     0.000 C
ATOM     71   O  A00 X   4      19.678  15.763  11.6580  0.00  0.00     0.000 OA
ATOM     72   O  A00 X   4      20.090  14.258   9.8940  0.00  0.00     0.000 OA
ATOM     73   O  A00 X   4      18.145  15.674   9.8880  0.00  0.00     0.000 O
ATOM     74   O  A00 X   4      20.314  16.654   9.5100  0.00  0.00     0.000 OA
ATOM     75   S  A00 X   4      19.674  15.602  10.2310  0.00  0.00     0.000 S
ENDBRANCH 62 70
ENDBRANCH 57 61
ENDBRANCH 41 57
ENDBRANCH 40 44
ENDBRANCH 20 40
ENDBRANCH 19 23
ENDBRANCH 1 19
TORSDOF 14
ENDMDL
MODEL 20
REMARK VINA RESULT:      -5.1      3.232      5.042
ROOT
ATOM      1  C1  A00 X   1      13.755  12.407  10.2700  0.00  0.00     0.000 C
ATOM      2  C2  A00 X   1      13.281  11.030  10.8060  0.00  0.00     0.000 C
ATOM      3  C3  A00 X   1      13.769   9.777  10.0070  0.00  0.00     0.000 C
ATOM      4  C4  A00 X   1      14.344  10.065   8.5960  0.00  0.00     0.000 C
ATOM      5  C5  A00 X   1      13.845  11.395   8.0310  0.00  0.00     0.000 C
ATOM      6  O5  A00 X   1      14.345  12.394   8.9470  0.00  0.00     0.000 O
ATOM      7   O  A00 X   1      12.665   8.894   9.8220  0.00  0.00     0.000 O
ATOM      9  HD  A00 X   1      13.108   8.909   9.0780  0.00  0.00     0.000 HD
ATOM      9   O  A00 X   1      15.771  10.048   8.6010  0.00  0.00     0.000 O
ATOM     11  HD  A00 X   1      16.214  10.063   7.8570  0.00  0.00     0.000 HD
ENDROOT
BRANCH 2 11
ATOM     11   O  A00 X   1      13.723  10.916  12.1730  0.00  0.00     0.000 O
ATOM     12   O  A00 X   1      13.000   9.122  13.5960  0.00  0.00     0.000 OA
ATOM     13   O  A00 X   1      11.362  10.717  12.7670  0.00  0.00     0.000 OA
ATOM     14   O  A00 X   1      13.009  11.391  14.3450  0.00  0.00     0.000 OA
ATOM     15   S  A00 X   1      12.688  10.490  13.2710  0.00  0.00     0.000 S
ENDBRANCH 2 11
BRANCH 5 16
ATOM     16   C  A00 X   1      12.332  11.475   7.8040  0.00  0.00     0.000 C
ATOM     17   O  A00 X   1      11.667  10.470   7.9540  0.00  0.00     0.000 OA
ATOM     18   O  A00 X   1      11.774  12.507   7.4860  0.00  0.00     0.000 OA
ENDBRANCH 5 16
BRANCH 1 19
ATOM     19  O4  A00 X   2      12.740  13.434  10.3860  0.00  0.00     0.000 O
BRANCH 19 23
ATOM     20  C1  A00 X   2      15.554  16.570  11.1710  0.00  0.00     0.000 C
ATOM     21  C2  A00 X   2      14.867  15.905  12.3880  0.00  0.00     0.000 C
ATOM     22  C3  A00 X   2      14.242  14.551  11.9940  0.00  0.00     0.000 C
ATOM     23  C4  A00 X   2      13.291  14.721  10.7880  0.00  0.00     0.000 C
ATOM     24  C5  A00 X   2      14.089  15.411   9.6480  0.00  0.00     0.000 C
ATOM     25  O5  A00 X   2      14.558  16.701  10.1210  0.00  0.00     0.000 O
ATOM     26   O  A00 X   2      13.679  13.943  13.1690  0.00  0.00     0.000 O
ATOM     28  HD  A00 X   2      13.243  14.658  13.3910  0.00  0.00     0.000 HD
BRANCH 21 30
ATOM     28   N  A00 X   2      14.871  17.206  13.0640  0.00  0.00     0.000 N
ATOM     30  HD  A00 X   2      14.726  16.607  13.6730  0.00  0.00     0.000 HD
ATOM     30   O  A00 X   2      15.104  16.833  15.3590  0.00  0.00     0.000 OA
ATOM     31   S  A00 X   2      14.133  17.340  14.4550  0.00  0.00     0.000 S
ATOM     32   O  A00 X   2      13.877  18.742  14.5690  0.00  0.00     0.000 OA
ATOM     33   O  A00 X   2      12.901  16.616  14.3530  0.00  0.00     0.000 OA
ENDBRANCH 21 30
BRANCH 24 34
ATOM     34   C  A00 X   2      13.434  15.491   8.2490  0.00  0.00     0.000 C
ATOM     35   O  A00 X   2      10.279  17.176   7.5650  0.00  0.00     0.000 OA
ATOM     36   O  A00 X   2      12.053  15.895   8.3400  0.00  0.00     0.000 O
ATOM     37   O  A00 X   2      12.142  18.220   8.5830  0.00  0.00     0.000 OA
ATOM     38   S  A00 X   2      11.702  17.251   7.6260  0.00  0.00     0.000 S
ATOM     39   O  A00 X   2      12.366  17.223   6.3570  0.00  0.00     0.000 OA
ENDBRANCH 24 34
BRANCH 20 40
ATOM     40  O4  A00 X   3      16.575  15.652  10.7520  0.00  0.00     0.000 O
BRANCH 40 44
ATOM     41  C1  A00 X   3      17.925  13.867   7.9040  0.00  0.00     0.000 C
ATOM     42  C2  A00 X   3      18.415  13.702   9.3590  0.00  0.00     0.000 C
ATOM     43  C3  A00 X   3      18.725  15.080   9.9990  0.00  0.00     0.000 C
ATOM     44  C4  A00 X   3      17.611  16.109   9.8570  0.00  0.00     0.000 C
ATOM     45  C5  A00 X   3      17.177  16.221   8.3690  0.00  0.00     0.000 C
ATOM     46  O5  A00 X   3      16.905  14.899   7.8020  0.00  0.00     0.000 O
ATOM     47   O  A00 X   3      19.269  15.046  11.3170  0.00  0.00     0.000 O
ATOM     49  HD  A00 X   3      18.753  15.732  11.4270  0.00  0.00     0.000 HD
BRANCH 42 49
ATOM     49   O  A00 X   3      17.375  13.007  10.0800  0.00  0.00     0.000 O
ATOM     50   O  A00 X   3      16.976  12.358  12.3490  0.00  0.00     0.000 OA
ATOM     51   O  A00 X   3      19.152  12.113  11.4580  0.00  0.00     0.000 OA
ATOM     52   O  A00 X   3      17.430  10.724  10.6250  0.00  0.00     0.000 OA
ATOM     53   S  A00 X   3      17.739  11.988  11.1990  0.00  0.00     0.000 S
ENDBRANCH 42 49
BRANCH 45 54
ATOM     54   C  A00 X   3      18.181  17.036   7.5440  0.00  0.00     0.000 C
ATOM     55   O  A00 X   3      17.934  17.343   6.3960  0.00  0.00     0.000 OA
ATOM     56   O  A00 X   3      19.247  17.387   8.0260  0.00  0.00     0.000 OA
ENDBRANCH 45 54
BRANCH 41 57
ATOM     57  O4  A00 X   4      19.028  14.039   6.9850  0.00  0.00     0.000 O
BRANCH 57 61
ATOM     58  C1  A00 X   4      19.700  12.799   2.9050  0.00  0.00     0.000 C
ATOM     59  C2  A00 X   4      18.746  13.991   3.1700  0.00  0.00     0.000 C
ATOM     60  C3  A00 X   4      18.862  14.566   4.5960  0.00  0.00     0.000 C
ATOM     61  C4  A00 X   4      18.831  13.454   5.6670  0.00  0.00     0.000 C
ATOM     62  C5  A00 X   4      19.996  12.491   5.3290  0.00  0.00     0.000 C
ATOM     63  O5  A00 X   4      19.759  11.892   4.0290  0.00  0.00     0.000 O
BRANCH 59 66
ATOM     64   N  A00 X   4      17.784  15.022   2.7410  0.00  0.00     0.000 N
ATOM     66  HD  A00 X   4      17.008  15.029   3.1250  0.00  0.00     0.000 HD
ATOM     66   O  A00 X   4      17.596  13.834   0.6540  0.00  0.00     0.000 OA
ATOM     67   S  A00 X   4      17.466  15.158   1.1790  0.00  0.00     0.000 S
ATOM     68   O  A00 X   4      16.129  15.672   1.2310  0.00  0.00     0.000 OA
ATOM     69   O  A00 X   4      18.455  16.127   0.8030  0.00  0.00     0.000 OA
ENDBRANCH 59 66
BRANCH 62 70
ATOM     70   C  A00 X   4      20.200  11.357   6.3630  0.00  0.00     0.000 C
ATOM     71   O  A00 X   4      18.941   7.964   6.2750  0.00  0.00     0.000 OA
ATOM     72   O  A00 X   4      18.886   9.577   7.9900  0.00  0.00     0.000 OA
ATOM     73   O  A00 X   4      19.735  10.117   5.8050  0.00  0.00     0.000 O
ATOM     74   O  A00 X   4      17.367   9.782   6.0950  0.00  0.00     0.000 OA
ATOM     75   S  A00 X   4      18.628   9.330   6.5880  0.00  0.00     0.000 S
ENDBRANCH 62 70
ENDBRANCH 57 61
ENDBRANCH 41 57
ENDBRANCH 40 44
ENDBRANCH 20 40
ENDBRANCH 19 23
ENDBRANCH 1 19
TORSDOF 14
ENDMDL
MODEL 21
REMARK VINA RESULT:      -5.1      2.165      9.308
ROOT
ATOM      1  C1  A00 X   1      18.649   9.662   7.9890  0.00  0.00     0.000 C
ATOM      2  C2  A00 X   1      18.267   8.504   7.0290  0.00  0.00     0.000 C
ATOM      3  C3  A00 X   1      19.384   8.033   6.0400  0.00  0.00     0.000 C
ATOM      4  C4  A00 X   1      20.587   8.999   5.8820  0.00  0.00     0.000 C
ATOM      5  C5  A00 X   1      20.230  10.434   6.2700  0.00  0.00     0.000 C
ATOM      6  O5  A00 X   1      19.880  10.359   7.6700  0.00  0.00     0.000 O
ATOM      7   O  A00 X   1      18.813   7.882   4.7430  0.00  0.00     0.000 O
ATOM      9  HD  A00 X   1      19.587   8.256   4.6390  0.00  0.00     0.000 HD
ATOM      9   O  A00 X   1      21.712   8.559   6.6410  0.00  0.00     0.000 O
ATOM     11  HD  A00 X   1      22.487   8.933   6.5380  0.00  0.00     0.000 HD
ENDROOT
BRANCH 2 11
ATOM     11   O  A00 X   1      17.852   7.385   7.8350  0.00  0.00     0.000 O
ATOM     12   O  A00 X   1      16.601   5.552   6.9170  0.00  0.00     0.000 OA
ATOM     13   O  A00 X   1      15.605   7.771   6.9570  0.00  0.00     0.000 OA
ATOM     14   O  A00 X   1      15.983   6.583   8.9820  0.00  0.00     0.000 OA
ATOM     15   S  A00 X   1      16.416   6.792   7.6270  0.00  0.00     0.000 S
ENDBRANCH 2 11
BRANCH 5 16
ATOM     16   C  A00 X   1      19.152  11.091   5.4030  0.00  0.00     0.000 C
ATOM     17   O  A00 X   1      18.925  10.624   4.3050  0.00  0.00     0.000 OA
ATOM     18   O  A00 X   1      18.513  12.055   5.7760  0.00  0.00     0.000 OA
ENDBRANCH 5 16
BRANCH 1 19
ATOM     19  O4  A00 X   2      17.559  10.590   8.2110  0.00  0.00     0.000 O
BRANCH 19 23
ATOM     20  C1  A00 X   2      16.684  13.134  11.5470  0.00  0.00     0.000 C
ATOM     21  C2  A00 X   2      17.627  13.690  10.4530  0.00  0.00     0.000 C
ATOM     22  C3  A00 X   2      17.502  12.870   9.1520  0.00  0.00     0.000 C
ATOM     23  C4  A00 X   2      17.728  11.367   9.4320  0.00  0.00     0.000 C
ATOM     24  C5  A00 X   2      16.741  10.940  10.5520  0.00  0.00     0.000 C
ATOM     25  O5  A00 X   2      17.011  11.731  11.7390  0.00  0.00     0.000 O
ATOM     26   O  A00 X   2      18.343  13.466   8.1490  0.00  0.00     0.000 O
ATOM     28  HD  A00 X   2      19.034  13.488   8.6700  0.00  0.00     0.000 HD
BRANCH 21 30
ATOM     28   N  A00 X   2      17.725  14.780  11.4290  0.00  0.00     0.000 N
ATOM     30  HD  A00 X   2      18.396  14.867  10.8880  0.00  0.00     0.000 HD
ATOM     30   O  A00 X   2      19.204  16.380  10.5860  0.00  0.00     0.000 OA
ATOM     31   S  A00 X   2      19.131  15.461  11.6660  0.00  0.00     0.000 S
ATOM     32   O  A00 X   2      19.003  16.059  12.9600  0.00  0.00     0.000 OA
ATOM     33   O  A00 X   2      20.109  14.415  11.6970  0.00  0.00     0.000 OA
ENDBRANCH 21 30
BRANCH 24 34
ATOM     34   C  A00 X   2      16.603   9.430  10.8610  0.00  0.00     0.000 C
ATOM     35   O  A00 X   2      17.898   7.834  13.8670  0.00  0.00     0.000 OA
ATOM     36   O  A00 X   2      17.499   9.028  11.9160  0.00  0.00     0.000 O
ATOM     37   O  A00 X   2      16.407   9.670  13.8820  0.00  0.00     0.000 OA
ATOM     38   S  A00 X   2      16.802   8.470  13.2110  0.00  0.00     0.000 S
ATOM     39   O  A00 X   2      15.767   7.587  12.7650  0.00  0.00     0.000 OA
ENDBRANCH 24 34
BRANCH 20 40
ATOM     40  O4  A00 X   3      15.358  13.249  11.0120  0.00  0.00     0.000 O
BRANCH 40 44
ATOM     41  C1  A00 X   3      12.593  11.011  11.6960  0.00  0.00     0.000 C
ATOM     42  C2  A00 X   3      12.644  12.013  10.5230  0.00  0.00     0.000 C
ATOM     43  C3  A00 X   3      13.016  13.433  11.0210  0.00  0.00     0.000 C
ATOM     44  C4  A00 X   3      14.253  13.489  11.9090  0.00  0.00     0.000 C
ATOM     45  C5  A00 X   3      14.124  12.459  13.0660  0.00  0.00     0.000 C
ATOM     46  O5  A00 X   3      13.762  11.137  12.5520  0.00  0.00     0.000 O
ATOM     47   O  A00 X   3      13.009  14.462  10.0330  0.00  0.00     0.000 O
ATOM     49  HD  A00 X   3      13.709  14.728  10.4670  0.00  0.00     0.000 HD
BRANCH 42 49
ATOM     49   O  A00 X   3      13.619  11.512   9.5810  0.00  0.00     0.000 O
ATOM     50   O  A00 X   3      14.456  12.172   7.4380  0.00  0.00     0.000 OA
ATOM     51   O  A00 X   3      12.135  12.335   7.8560  0.00  0.00     0.000 OA
ATOM     52   O  A00 X   3      13.105  10.185   7.7130  0.00  0.00     0.000 OA
ATOM     53   S  A00 X   3      13.327  11.548   8.0530  0.00  0.00     0.000 S
ENDBRANCH 42 49
BRANCH 45 54
ATOM     54   C  A00 X   3      13.179  12.958  14.1670  0.00  0.00     0.000 C
ATOM     55   O  A00 X   3      12.894  14.135  14.2520  0.00  0.00     0.000 OA
ATOM     56   O  A00 X   3      12.698  12.180  14.9770  0.00  0.00     0.000 OA
ENDBRANCH 45 54
BRANCH 41 57
ATOM     57  O4  A00 X   4      11.336  11.084  12.4060  0.00  0.00     0.000 O
BRANCH 57 61
ATOM     58  C1  A00 X   4       8.848   7.873  13.8680  0.00  0.00     0.000 C
ATOM     59  C2  A00 X   4       9.442   8.875  14.8900  0.00  0.00     0.000 C
ATOM     60  C3  A00 X   4       9.999  10.158  14.2400  0.00  0.00     0.000 C
ATOM     61  C4  A00 X   4      10.906   9.842  13.0320  0.00  0.00     0.000 C
ATOM     62  C5  A00 X   4      10.045   9.015  12.0450  0.00  0.00     0.000 C
ATOM     63  O5  A00 X   4       9.661   7.767  12.6770  0.00  0.00     0.000 O
BRANCH 59 66
ATOM     64   N  A00 X   4       9.946   9.243  16.2250  0.00  0.00     0.000 N
ATOM     66  HD  A00 X   4      10.802   9.217  16.3510  0.00  0.00     0.000 HD
ATOM     66   O  A00 X   4       8.987   7.191  17.0430  0.00  0.00     0.000 OA
ATOM     67   S  A00 X   4       9.324   8.503  17.5000  0.00  0.00     0.000 S
ATOM     68   O  A00 X   4      10.433   8.574  18.4060  0.00  0.00     0.000 OA
ATOM     69   O  A00 X   4       8.249   9.400  17.8140  0.00  0.00     0.000 OA
ENDBRANCH 59 66
BRANCH 62 70
ATOM     70   C  A00 X   4      10.752   8.691  10.7070  0.00  0.00     0.000 C
ATOM     71   O  A00 X   4      11.832   5.476   9.4410  0.00  0.00     0.000 OA
ATOM     72   O  A00 X   4      12.980   7.526   9.6010  0.00  0.00     0.000 OA
ATOM     73   O  A00 X   4      10.768   7.268  10.5110  0.00  0.00     0.000 O
ATOM     74   O  A00 X   4      12.623   6.187  11.6050  0.00  0.00     0.000 OA
ATOM     75   S  A00 X   4      12.159   6.571  10.3110  0.00  0.00     0.000 S
ENDBRANCH 62 70
ENDBRANCH 57 61
ENDBRANCH 41 57
ENDBRANCH 40 44
ENDBRANCH 20 40
ENDBRANCH 19 23
ENDBRANCH 1 19
TORSDOF 14
ENDMDL
MODEL 22
REMARK VINA RESULT:      -5.1      3.621      9.380
ROOT
ATOM      1  C1  A00 X   1      17.756  15.533   4.9080  0.00  0.00     0.000 C
ATOM      2  C2  A00 X   1      18.638  14.749   3.9010  0.00  0.00     0.000 C
ATOM      3  C3  A00 X   1      19.111  15.542   2.6380  0.00  0.00     0.000 C
ATOM      4  C4  A00 X   1      18.357  16.868   2.3600  0.00  0.00     0.000 C
ATOM      5  C5  A00 X   1      16.975  16.894   3.0140  0.00  0.00     0.000 C
ATOM      6  O5  A00 X   1      17.238  16.800   4.4320  0.00  0.00     0.000 O
ATOM      7   O  A00 X   1      18.926  14.722   1.4870  0.00  0.00     0.000 O
ATOM      9  HD  A00 X   1      18.680  15.524   1.2710  0.00  0.00     0.000 HD
ATOM      9   O  A00 X   1      19.114  17.999   2.7890  0.00  0.00     0.000 O
ATOM     11  HD  A00 X   1      18.869  18.801   2.5740  0.00  0.00     0.000 HD
ENDROOT
BRANCH 2 11
ATOM     11   O  A00 X   1      19.795  14.268   4.6130  0.00  0.00     0.000 O
ATOM     12   O  A00 X   1      21.716  13.389   3.4710  0.00  0.00     0.000 OA
ATOM     13   O  A00 X   1      19.586  12.229   3.2840  0.00  0.00     0.000 OA
ATOM     14   O  A00 X   1      20.756  12.273   5.3540  0.00  0.00     0.000 OA
ATOM     15   S  A00 X   1      20.501  12.960   4.1170  0.00  0.00     0.000 S
ENDBRANCH 2 11
BRANCH 5 16
ATOM     16   C  A00 X   1      15.996  15.833   2.5010  0.00  0.00     0.000 C
ATOM     17   O  A00 X   1      15.000  15.597   3.1540  0.00  0.00     0.000 OA
ATOM     18   O  A00 X   1      16.177  15.226   1.4640  0.00  0.00     0.000 OA
ENDBRANCH 5 16
BRANCH 1 19
ATOM     19  O4  A00 X   2      16.708  14.719   5.4890  0.00  0.00     0.000 O
BRANCH 19 23
ATOM     20  C1  A00 X   2      14.544  15.478   9.1090  0.00  0.00     0.000 C
ATOM     21  C2  A00 X   2      13.761  15.568   7.7770  0.00  0.00     0.000 C
ATOM     22  C3  A00 X   2      14.530  14.864   6.6390  0.00  0.00     0.000 C
ATOM     23  C4  A00 X   2      15.968  15.420   6.5290  0.00  0.00     0.000 C
ATOM     24  C5  A00 X   2      16.635  15.290   7.9260  0.00  0.00     0.000 C
ATOM     25  O5  A00 X   2      15.859  16.053   8.8870  0.00  0.00     0.000 O
ATOM     26   O  A00 X   2      13.733  14.915   5.4440  0.00  0.00     0.000 O
ATOM     28  HD  A00 X   2      13.596  15.767   5.5120  0.00  0.00     0.000 HD
BRANCH 21 30
ATOM     28   N  A00 X   2      12.956  16.633   8.3810  0.00  0.00     0.000 N
ATOM     30  HD  A00 X   2      12.536  16.375   7.6690  0.00  0.00     0.000 HD
ATOM     30   O  A00 X   2      10.818  16.550   7.4440  0.00  0.00     0.000 OA
ATOM     31   S  A00 X   2      11.936  17.424   7.4680  0.00  0.00     0.000 S
ATOM     32   O  A00 X   2      11.729  18.650   8.1750  0.00  0.00     0.000 OA
ATOM     33   O  A00 X   2      12.592  17.675   6.2200  0.00  0.00     0.000 OA
ENDBRANCH 21 30
BRANCH 24 34
ATOM     34   C  A00 X   2      18.154  15.564   8.0330  0.00  0.00     0.000 C
ATOM     35   O  A00 X   2      20.435  13.628  10.1080  0.00  0.00     0.000 OA
ATOM     36   O  A00 X   2      18.727  14.891   9.1710  0.00  0.00     0.000 O
ATOM     37   O  A00 X   2      19.035  12.687   8.4500  0.00  0.00     0.000 OA
ATOM     38   S  A00 X   2      19.825  13.817   8.8330  0.00  0.00     0.000 S
ATOM     39   O  A00 X   2      20.671  14.403   7.8370  0.00  0.00     0.000 OA
ENDBRANCH 24 34
BRANCH 20 40
ATOM     40  O4  A00 X   3      14.674  14.076   9.3890  0.00  0.00     0.000 O
BRANCH 40 44
ATOM     41  C1  A00 X   3      15.347  10.698  10.5100  0.00  0.00     0.000 C
ATOM     42  C2  A00 X   3      13.937  11.289  10.2950  0.00  0.00     0.000 C
ATOM     43  C3  A00 X   3      13.786  12.647  11.0280  0.00  0.00     0.000 C
ATOM     44  C4  A00 X   3      14.902  13.645  10.7480  0.00  0.00     0.000 C
ATOM     45  C5  A00 X   3      16.286  12.979  10.9910  0.00  0.00     0.000 C
ATOM     46  O5  A00 X   3      16.380  11.697  10.2890  0.00  0.00     0.000 O
ATOM     47   O  A00 X   3      12.493  13.246  10.9710  0.00  0.00     0.000 O
ATOM     49  HD  A00 X   3      12.958  13.973  10.8880  0.00  0.00     0.000 HD
BRANCH 42 49
ATOM     49   O  A00 X   3      13.753  11.436   8.8690  0.00  0.00     0.000 O
ATOM     50   O  A00 X   3      11.967  12.079   7.4100  0.00  0.00     0.000 OA
ATOM     51   O  A00 X   3      11.488  10.670   9.2480  0.00  0.00     0.000 OA
ATOM     52   O  A00 X   3      12.794   9.807   7.4760  0.00  0.00     0.000 OA
ATOM     53   S  A00 X   3      12.426  10.977   8.1970  0.00  0.00     0.000 S
ENDBRANCH 42 49
BRANCH 45 54
ATOM     54   C  A00 X   3      16.610  12.873  12.4860  0.00  0.00     0.000 C
ATOM     55   O  A00 X   3      15.767  13.129  13.3210  0.00  0.00     0.000 OA
ATOM     56   O  A00 X   3      17.721  12.532  12.8620  0.00  0.00     0.000 OA
ENDBRANCH 45 54
BRANCH 41 57
ATOM     57  O4  A00 X   4      15.451  10.016  11.7800  0.00  0.00     0.000 O
BRANCH 57 61
ATOM     58  C1  A00 X   4      17.072   6.151  12.8180  0.00  0.00     0.000 C
ATOM     59  C2  A00 X   4      17.901   7.417  13.1510  0.00  0.00     0.000 C
ATOM     60  C3  A00 X   4      17.087   8.724  13.0710  0.00  0.00     0.000 C
ATOM     61  C4  A00 X   4      16.263   8.807  11.7680  0.00  0.00     0.000 C
ATOM     62  C5  A00 X   4      15.355   7.552  11.7460  0.00  0.00     0.000 C
ATOM     63  O5  A00 X   4      16.185   6.364  11.6960  0.00  0.00     0.000 O
BRANCH 59 66
ATOM     64   N  A00 X   4      18.736   7.103  11.9770  0.00  0.00     0.000 N
ATOM     66  HD  A00 X   4      18.429   6.523  11.4110  0.00  0.00     0.000 HD
ATOM     66   O  A00 X   4      20.250   5.983  13.4790  0.00  0.00     0.000 OA
ATOM     67   S  A00 X   4      20.255   6.667  12.2240  0.00  0.00     0.000 S
ATOM     68   O  A00 X   4      20.477   5.841  11.0730  0.00  0.00     0.000 OA
ATOM     69   O  A00 X   4      20.900   7.948  12.1610  0.00  0.00     0.000 OA
ENDBRANCH 59 66
BRANCH 62 70
ATOM     70   C  A00 X   4      14.364   7.510  10.5580  0.00  0.00     0.000 C
ATOM     71   O  A00 X   4      10.747   7.665  10.6250  0.00  0.00     0.000 OA
ATOM     72   O  A00 X   4      12.199   6.175   9.5220  0.00  0.00     0.000 OA
ATOM     73   O  A00 X   4      13.048   7.849  11.0260  0.00  0.00     0.000 O
ATOM     74   O  A00 X   4      11.852   5.961  11.9240  0.00  0.00     0.000 OA
ATOM     75   S  A00 X   4      11.894   6.815  10.7820  0.00  0.00     0.000 S
ENDBRANCH 62 70
ENDBRANCH 57 61
ENDBRANCH 41 57
ENDBRANCH 40 44
ENDBRANCH 20 40
ENDBRANCH 19 23
ENDBRANCH 1 19
TORSDOF 14
ENDMDL
MODEL 23
REMARK VINA RESULT:      -5.1     12.960     17.485
ROOT
ATOM      1  C1  A00 X   1       4.618  22.223   5.3200  0.00  0.00     0.000 C
ATOM      2  C2  A00 X   1       3.227  22.439   4.6660  0.00  0.00     0.000 C
ATOM      3  C3  A00 X   1       2.055  22.786   5.6420  0.00  0.00     0.000 C
ATOM      4  C4  A00 X   1       2.331  22.512   7.1420  0.00  0.00     0.000 C
ATOM      5  C5  A00 X   1       3.439  21.479   7.3460  0.00  0.00     0.000 C
ATOM      6  O5  A00 X   1       4.616  22.082   6.7630  0.00  0.00     0.000 O
ATOM      7   O  A00 X   1       0.919  21.999   5.2890  0.00  0.00     0.000 O
ATOM      9  HD  A00 X   1       0.966  22.007   6.1540  0.00  0.00     0.000 HD
ATOM      9   O  A00 X   1       2.658  23.714   7.8400  0.00  0.00     0.000 O
ATOM     11  HD  A00 X   1       2.704  23.722   8.7050  0.00  0.00     0.000 HD
ENDROOT
BRANCH 2 11
ATOM     11   O  A00 X   1       3.359  23.497   3.6960  0.00  0.00     0.000 O
ATOM     12   O  A00 X   1       1.455  24.431   2.5690  0.00  0.00     0.000 OA
ATOM     13   O  A00 X   1       2.029  22.096   2.2010  0.00  0.00     0.000 OA
ATOM     14   O  A00 X   1       3.442  23.827   1.3860  0.00  0.00     0.000 OA
ATOM     15   S  A00 X   1       2.490  23.444   2.3930  0.00  0.00     0.000 S
ENDBRANCH 2 11
BRANCH 5 16
ATOM     16   C  A00 X   1       3.131  20.082   6.7990  0.00  0.00     0.000 C
ATOM     17   O  A00 X   1       4.055  19.325   6.5840  0.00  0.00     0.000 OA
ATOM     18   O  A00 X   1       1.997  19.703   6.5790  0.00  0.00     0.000 OA
ENDBRANCH 5 16
BRANCH 1 19
ATOM     19  O4  A00 X   2       5.377  21.164   4.6870  0.00  0.00     0.000 O
BRANCH 19 23
ATOM     20  C1  A00 X   2       9.129  23.199   5.0720  0.00  0.00     0.000 C
ATOM     21  C2  A00 X   2       8.387  23.318   3.7190  0.00  0.00     0.000 C
ATOM     22  C3  A00 X   2       6.904  22.921   3.8690  0.00  0.00     0.000 C
ATOM     23  C4  A00 X   2       6.778  21.516   4.5000  0.00  0.00     0.000 C
ATOM     24  C5  A00 X   2       7.575  21.522   5.8340  0.00  0.00     0.000 C
ATOM     25  O5  A00 X   2       8.963  21.836   5.5470  0.00  0.00     0.000 O
ATOM     26   O  A00 X   2       6.245  23.113   2.6050  0.00  0.00     0.000 O
ATOM     28  HD  A00 X   2       6.847  22.671   2.1670  0.00  0.00     0.000 HD
BRANCH 21 30
ATOM     28   N  A00 X   2       7.858  24.275   2.7420  0.00  0.00     0.000 N
ATOM     30  HD  A00 X   2       8.716  24.248   2.6270  0.00  0.00     0.000 HD
ATOM     30   O  A00 X   2       9.504  24.650   1.1270  0.00  0.00     0.000 OA
ATOM     31   S  A00 X   2       8.832  25.370   2.1490  0.00  0.00     0.000 S
ATOM     32   O  A00 X   2       7.948  26.394   1.6860  0.00  0.00     0.000 OA
ATOM     33   O  A00 X   2       9.632  25.857   3.2340  0.00  0.00     0.000 OA
ENDBRANCH 21 30
BRANCH 24 34
ATOM     34   C  A00 X   2       7.421  20.306   6.7770  0.00  0.00     0.000 C
ATOM     35   O  A00 X   2      10.035  17.844   7.3760  0.00  0.00     0.000 OA
ATOM     36   O  A00 X   2       8.458  19.332   6.5470  0.00  0.00     0.000 O
ATOM     37   O  A00 X   2      10.310  20.170   7.7050  0.00  0.00     0.000 OA
ATOM     38   S  A00 X   2       9.407  19.061   7.7720  0.00  0.00     0.000 S
ATOM     39   O  A00 X   2       8.563  18.962   8.9240  0.00  0.00     0.000 OA
ENDBRANCH 24 34
BRANCH 20 40
ATOM     40  O4  A00 X   3       8.459  24.103   5.9620  0.00  0.00     0.000 O
BRANCH 40 44
ATOM     41  C1  A00 X   3       7.051  24.605   9.2620  0.00  0.00     0.000 C
ATOM     42  C2  A00 X   3       7.008  25.643   8.1200  0.00  0.00     0.000 C
ATOM     43  C3  A00 X   3       8.420  25.863   7.5170  0.00  0.00     0.000 C
ATOM     44  C4  A00 X   3       9.152  24.583   7.1340  0.00  0.00     0.000 C
ATOM     45  C5  A00 X   3       9.157  23.594   8.3330  0.00  0.00     0.000 C
ATOM     46  O5  A00 X   3       7.807  23.424   8.8760  0.00  0.00     0.000 O
ATOM     47   O  A00 X   3       8.517  26.868   6.5090  0.00  0.00     0.000 O
ATOM     49  HD  A00 X   3       9.059  26.296   6.1500  0.00  0.00     0.000 HD
BRANCH 42 49
ATOM     49   O  A00 X   3       6.083  25.144   7.1290  0.00  0.00     0.000 O
ATOM     50   O  A00 X   3       5.358  25.808   4.9460  0.00  0.00     0.000 OA
ATOM     51   O  A00 X   3       5.644  27.466   6.6070  0.00  0.00     0.000 OA
ATOM     52   O  A00 X   3       3.881  25.912   6.8580  0.00  0.00     0.000 OA
ATOM     53   S  A00 X   3       5.183  26.129   6.3280  0.00  0.00     0.000 S
ENDBRANCH 42 49
BRANCH 45 54
ATOM     54   C  A00 X   3      10.188  23.994   9.3950  0.00  0.00     0.000 C
ATOM     55   O  A00 X   3      10.641  23.167  10.1600  0.00  0.00     0.000 OA
ATOM     56   O  A00 X   3      10.572  25.149   9.4900  0.00  0.00     0.000 OA
ENDBRANCH 45 54
BRANCH 41 57
ATOM     57  O4  A00 X   4       7.483  25.198  10.5070  0.00  0.00     0.000 O
BRANCH 57 61
ATOM     58  C1  A00 X   4       7.072  24.025  14.6410  0.00  0.00     0.000 C
ATOM     59  C2  A00 X   4       8.147  23.322  13.7750  0.00  0.00     0.000 C
ATOM     60  C3  A00 X   4       8.445  24.055  12.4510  0.00  0.00     0.000 C
ATOM     61  C4  A00 X   4       7.150  24.438  11.7030  0.00  0.00     0.000 C
ATOM     62  C5  A00 X   4       6.323  25.310  12.6800  0.00  0.00     0.000 C
ATOM     63  O5  A00 X   4       5.972  24.520  13.8450  0.00  0.00     0.000 O
BRANCH 59 66
ATOM     64   N  A00 X   4       9.156  22.279  13.5180  0.00  0.00     0.000 N
ATOM     66  HD  A00 X   4       9.015  21.741  12.8540  0.00  0.00     0.000 HD
ATOM     66   O  A00 X   4       8.417  21.207  15.5440  0.00  0.00     0.000 OA
ATOM     67   S  A00 X   4       9.586  21.327  14.7290  0.00  0.00     0.000 S
ATOM     68   O  A00 X   4       9.959  20.145  14.0090  0.00  0.00     0.000 OA
ATOM     69   O  A00 X   4      10.695  22.071  15.2540  0.00  0.00     0.000 OA
ENDBRANCH 59 66
BRANCH 62 70
ATOM     70   C  A00 X   4       5.025  25.888  12.0680  0.00  0.00     0.000 C
ATOM     71   O  A00 X   4       1.836  24.249  11.5680  0.00  0.00     0.000 OA
ATOM     72   O  A00 X   4       3.152  25.527  10.0920  0.00  0.00     0.000 OA
ATOM     73   O  A00 X   4       3.944  24.969  12.2940  0.00  0.00     0.000 O
ATOM     74   O  A00 X   4       3.811  23.241  10.6200  0.00  0.00     0.000 OA
ATOM     75   S  A00 X   4       3.159  24.438  11.0440  0.00  0.00     0.000 S
ENDBRANCH 62 70
ENDBRANCH 57 61
ENDBRANCH 41 57
ENDBRANCH 40 44
ENDBRANCH 20 40
ENDBRANCH 19 23
ENDBRANCH 1 19
TORSDOF 14
ENDMDL
MODEL 24
REMARK VINA RESULT:      -5.0      3.936     10.790
ROOT
ATOM      1  C1  A00 X   1      13.912   9.568  11.3470  0.00  0.00     0.000 C
ATOM      2  C2  A00 X   1      12.966   8.873  10.3320  0.00  0.00     0.000 C
ATOM      3  C3  A00 X   1      13.207   9.212   8.8240  0.00  0.00     0.000 C
ATOM      4  C4  A00 X   1      14.093  10.455   8.5510  0.00  0.00     0.000 C
ATOM      5  C5  A00 X   1      14.118  11.417   9.7390  0.00  0.00     0.000 C
ATOM      6  O5  A00 X   1      14.709  10.656  10.8160  0.00  0.00     0.000 O
ATOM      7   O  A00 X   1      11.948   9.469   8.2060  0.00  0.00     0.000 O
ATOM      9  HD  A00 X   1      12.507  10.057   7.9020  0.00  0.00     0.000 HD
ATOM      9   O  A00 X   1      15.427  10.079   8.2070  0.00  0.00     0.000 O
ATOM     11  HD  A00 X   1      15.985  10.667   7.9030  0.00  0.00     0.000 HD
ENDROOT
BRANCH 2 11
ATOM     11   O  A00 X   1      13.091   7.450  10.5180  0.00  0.00     0.000 O
ATOM     12   O  A00 X   1      11.832   5.880   9.2080  0.00  0.00     0.000 OA
ATOM     13   O  A00 X   1      10.656   7.404  10.6960  0.00  0.00     0.000 OA
ATOM     14   O  A00 X   1      12.020   5.668  11.5810  0.00  0.00     0.000 OA
ATOM     15   S  A00 X   1      11.800   6.563  10.4770  0.00  0.00     0.000 S
ENDBRANCH 2 11
BRANCH 5 16
ATOM     16   C  A00 X   1      12.764  12.039  10.0970  0.00  0.00     0.000 C
ATOM     17   O  A00 X   1      11.856  11.955   9.2960  0.00  0.00     0.000 OA
ATOM     18   O  A00 X   1      12.566  12.603  11.1540  0.00  0.00     0.000 OA
ENDBRANCH 5 16
BRANCH 1 19
ATOM     19  O4  A00 X   2      13.237   9.955  12.5690  0.00  0.00     0.000 O
BRANCH 19 23
ATOM     20  C1  A00 X   2      14.510   9.859  16.6600  0.00  0.00     0.000 C
ATOM     21  C2  A00 X   2      15.354  10.696  15.6680  0.00  0.00     0.000 C
ATOM     22  C3  A00 X   2      14.558  10.987  14.3790  0.00  0.00     0.000 C
ATOM     23  C4  A00 X   2      14.030   9.674  13.7580  0.00  0.00     0.000 C
ATOM     24  C5  A00 X   2      13.222   8.923  14.8510  0.00  0.00     0.000 C
ATOM     25  O5  A00 X   2      14.099   8.646  15.9730  0.00  0.00     0.000 O
ATOM     26   O  A00 X   2      15.357  11.822  13.5220  0.00  0.00     0.000 O
ATOM     28  HD  A00 X   2      16.051  11.308  13.5850  0.00  0.00     0.000 HD
BRANCH 21 30
ATOM     28   N  A00 X   2      15.876  12.058  15.5190  0.00  0.00     0.000 N
ATOM     30  HD  A00 X   2      16.410  11.643  16.0600  0.00  0.00     0.000 HD
ATOM     30   O  A00 X   2      18.079  12.083  16.2970  0.00  0.00     0.000 OA
ATOM     31   S  A00 X   2      16.819  12.637  16.6470  0.00  0.00     0.000 S
ATOM     32   O  A00 X   2      16.716  14.054  16.4810  0.00  0.00     0.000 OA
ATOM     33   O  A00 X   2      16.264  12.242  17.9070  0.00  0.00     0.000 OA
ENDBRANCH 21 30
BRANCH 24 34
ATOM     34   C  A00 X   2      12.394   7.689  14.4220  0.00  0.00     0.000 C
ATOM     35   O  A00 X   2       9.323   6.622  16.0620  0.00  0.00     0.000 OA
ATOM     36   O  A00 X   2      11.453   7.310  15.4460  0.00  0.00     0.000 O
ATOM     37   O  A00 X   2       9.659   8.784  15.1640  0.00  0.00     0.000 OA
ATOM     38   S  A00 X   2       9.939   7.387  15.0280  0.00  0.00     0.000 S
ATOM     39   O  A00 X   2       9.851   6.817  13.7180  0.00  0.00     0.000 OA
ENDBRANCH 24 34
BRANCH 20 40
ATOM     40  O4  A00 X   3      13.356  10.657  16.9560  0.00  0.00     0.000 O
BRANCH 40 44
ATOM     41  C1  A00 X   3      10.080  11.911  17.8640  0.00  0.00     0.000 C
ATOM     42  C2  A00 X   3      11.394  12.713  17.9850  0.00  0.00     0.000 C
ATOM     43  C3  A00 X   3      12.473  11.899  18.7440  0.00  0.00     0.000 C
ATOM     44  C4  A00 X   3      12.684  10.484  18.2220  0.00  0.00     0.000 C
ATOM     45  C5  A00 X   3      11.321   9.741  18.1340  0.00  0.00     0.000 C
ATOM     46  O5  A00 X   3      10.330  10.549  17.4190  0.00  0.00     0.000 O
ATOM     47   O  A00 X   3      13.704  12.576  18.9920  0.00  0.00     0.000 O
ATOM     49  HD  A00 X   3      14.038  11.798  18.8100  0.00  0.00     0.000 HD
BRANCH 42 49
ATOM     49   O  A00 X   3      11.821  13.031  16.6420  0.00  0.00     0.000 O
ATOM     50   O  A00 X   3      13.682  14.149  15.6340  0.00  0.00     0.000 OA
ATOM     51   O  A00 X   3      12.714  15.073  17.5840  0.00  0.00     0.000 OA
ATOM     52   O  A00 X   3      11.457  15.095  15.5830  0.00  0.00     0.000 OA
ATOM     53   S  A00 X   3      12.460  14.414  16.3270  0.00  0.00     0.000 S
ENDBRANCH 42 49
BRANCH 45 54
ATOM     54   C  A00 X   3      10.837   9.276  19.5130  0.00  0.00     0.000 C
ATOM     55   O  A00 X   3       9.887   8.528  19.6160  0.00  0.00     0.000 OA
ATOM     56   O  A00 X   3      11.398   9.651  20.5310  0.00  0.00     0.000 OA
ENDBRANCH 45 54
BRANCH 41 57
ATOM     57  O4  A00 X   4       9.289  11.998  19.0700  0.00  0.00     0.000 O
BRANCH 57 61
ATOM     58  C1  A00 X   4       5.032  11.870  19.7820  0.00  0.00     0.000 C
ATOM     59  C2  A00 X   4       5.695  10.687  19.0340  0.00  0.00     0.000 C
ATOM     60  C3  A00 X   4       7.232  10.666  19.1550  0.00  0.00     0.000 C
ATOM     61  C4  A00 X   4       7.849  12.051  18.8620  0.00  0.00     0.000 C
ATOM     62  C5  A00 X   4       7.198  13.038  19.8620  0.00  0.00     0.000 C
ATOM     63  O5  A00 X   4       5.771  13.101  19.6100  0.00  0.00     0.000 O
BRANCH 59 66
ATOM     64   N  A00 X   4       5.669   9.916  17.7780  0.00  0.00     0.000 N
ATOM     66  HD  A00 X   4       5.839  10.342  17.0430  0.00  0.00     0.000 HD
ATOM     66   O  A00 X   4       3.280   9.758  18.0410  0.00  0.00     0.000 OA
ATOM     67   S  A00 X   4       4.369   9.043  17.4510  0.00  0.00     0.000 S
ATOM     68   O  A00 X   4       4.407   9.049  16.0180  0.00  0.00     0.000 OA
ATOM     69   O  A00 X   4       4.749   7.792  18.0450  0.00  0.00     0.000 OA
ENDBRANCH 59 66
BRANCH 62 70
ATOM     70   C  A00 X   4       7.773  14.473  19.7980  0.00  0.00     0.000 C
ATOM     71   O  A00 X   4       7.519  16.894  17.1180  0.00  0.00     0.000 OA
ATOM     72   O  A00 X   4       9.387  16.154  18.3450  0.00  0.00     0.000 OA
ATOM     73   O  A00 X   4       7.222  15.155  18.6600  0.00  0.00     0.000 O
ATOM     74   O  A00 X   4       8.433  14.718  16.6230  0.00  0.00     0.000 OA
ATOM     75   S  A00 X   4       8.220  15.737  17.6000  0.00  0.00     0.000 S
ENDBRANCH 62 70
ENDBRANCH 57 61
ENDBRANCH 41 57
ENDBRANCH 40 44
ENDBRANCH 20 40
ENDBRANCH 19 23
ENDBRANCH 1 19
TORSDOF 14
ENDMDL
MODEL 25
REMARK VINA RESULT:      -5.0      2.701      9.138
ROOT
ATOM      1  C1  A00 X   1      14.981  13.307   9.0170  0.00  0.00     0.000 C
ATOM      2  C2  A00 X   1      14.613  14.551   8.1650  0.00  0.00     0.000 C
ATOM      3  C3  A00 X   1      13.218  15.196   8.4560  0.00  0.00     0.000 C
ATOM      4  C4  A00 X   1      12.235  14.320   9.2740  0.00  0.00     0.000 C
ATOM      5  C5  A00 X   1      12.573  12.832   9.1820  0.00  0.00     0.000 C
ATOM      6  O5  A00 X   1      13.890  12.719   9.7680  0.00  0.00     0.000 O
ATOM      7   O  A00 X   1      12.575  15.473   7.2140  0.00  0.00     0.000 O
ATOM      9  HD  A00 X   1      11.972  15.156   7.7480  0.00  0.00     0.000 HD
ATOM      9   O  A00 X   1      12.193  14.722  10.6430  0.00  0.00     0.000 O
ATOM     11  HD  A00 X   1      11.590  14.404  11.1770  0.00  0.00     0.000 HD
ENDROOT
BRANCH 2 11
ATOM     11   O  A00 X   1      15.640  15.542   8.3710  0.00  0.00     0.000 O
ATOM     12   O  A00 X   1      15.484  17.746   7.4310  0.00  0.00     0.000 OA
ATOM     13   O  A00 X   1      15.648  15.827   5.9450  0.00  0.00     0.000 OA
ATOM     14   O  A00 X   1      17.497  16.464   7.2990  0.00  0.00     0.000 OA
ATOM     15   S  A00 X   1      16.065  16.454   7.1690  0.00  0.00     0.000 S
ENDBRANCH 2 11
BRANCH 5 16
ATOM     16   C  A00 X   1      12.474  12.230   7.7770  0.00  0.00     0.000 C
ATOM     17   O  A00 X   1      11.835  12.826   6.9340  0.00  0.00     0.000 OA
ATOM     18   O  A00 X   1      13.015  11.185   7.4760  0.00  0.00     0.000 OA
ENDBRANCH 5 16
BRANCH 1 19
ATOM     19  O4  A00 X   2      15.704  12.304   8.2630  0.00  0.00     0.000 O
BRANCH 19 23
ATOM     20  C1  A00 X   2      18.002  10.920  11.6040  0.00  0.00     0.000 C
ATOM     21  C2  A00 X   2      18.599  12.067  10.7530  0.00  0.00     0.000 C
ATOM     22  C3  A00 X   2      17.508  12.734   9.8890  0.00  0.00     0.000 C
ATOM     23  C4  A00 X   2      16.766  11.679   9.0390  0.00  0.00     0.000 C
ATOM     24  C5  A00 X   2      16.235  10.582  10.0010  0.00  0.00     0.000 C
ATOM     25  O5  A00 X   2      17.361   9.985  10.6960  0.00  0.00     0.000 O
ATOM     26   O  A00 X   2      18.096  13.833   9.1720  0.00  0.00     0.000 O
ATOM     28  HD  A00 X   2      18.754  13.354   8.8770  0.00  0.00     0.000 HD
BRANCH 21 30
ATOM     28   N  A00 X   2      19.142  13.427  10.8220  0.00  0.00     0.000 N
ATOM     30  HD  A00 X   2      19.763  12.894  11.1070  0.00  0.00     0.000 HD
ATOM     30   O  A00 X   2      21.462  13.272  11.0500  0.00  0.00     0.000 OA
ATOM     31   S  A00 X   2      20.345  13.713  11.8070  0.00  0.00     0.000 S
ATOM     32   O  A00 X   2      20.280  15.126  12.0190  0.00  0.00     0.000 OA
ATOM     33   O  A00 X   2      20.070  13.014  13.0260  0.00  0.00     0.000 OA
ENDBRANCH 21 30
BRANCH 24 34
ATOM     34   C  A00 X   2      15.258   9.526   9.4310  0.00  0.00     0.000 C
ATOM     35   O  A00 X   2      16.031   7.336   6.6260  0.00  0.00     0.000 OA
ATOM     36   O  A00 X   2      15.684   9.069   8.1320  0.00  0.00     0.000 O
ATOM     37   O  A00 X   2      17.345   7.487   8.5870  0.00  0.00     0.000 OA
ATOM     38   S  A00 X   2      16.025   7.537   8.0380  0.00  0.00     0.000 S
ATOM     39   O  A00 X   2      14.987   6.847   8.7440  0.00  0.00     0.000 OA
ENDBRANCH 24 34
BRANCH 20 40
ATOM     40  O4  A00 X   3      17.011  11.533  12.4410  0.00  0.00     0.000 O
BRANCH 40 44
ATOM     41  C1  A00 X   3      13.775  11.725  14.0580  0.00  0.00     0.000 C
ATOM     42  C2  A00 X   3      14.922  12.738  14.2610  0.00  0.00     0.000 C
ATOM     43  C3  A00 X   3      16.247  12.014  14.6100  0.00  0.00     0.000 C
ATOM     44  C4  A00 X   3      16.615  10.877  13.6650  0.00  0.00     0.000 C
ATOM     45  C5  A00 X   3      15.416   9.899  13.5150  0.00  0.00     0.000 C
ATOM     46  O5  A00 X   3      14.185  10.626  13.1970  0.00  0.00     0.000 O
ATOM     47   O  A00 X   3      17.359  12.857  14.9050  0.00  0.00     0.000 O
ATOM     49  HD  A00 X   3      17.791  12.253  14.4600  0.00  0.00     0.000 HD
BRANCH 42 49
ATOM     49   O  A00 X   3      15.040  13.495  13.0370  0.00  0.00     0.000 O
ATOM     50   O  A00 X   3      16.430  15.265  12.2210  0.00  0.00     0.000 OA
ATOM     51   O  A00 X   3      15.635  15.371  14.4450  0.00  0.00     0.000 OA
ATOM     52   O  A00 X   3      14.081  15.609  12.6810  0.00  0.00     0.000 OA
ATOM     53   S  A00 X   3      15.315  15.026  13.0830  0.00  0.00     0.000 S
ENDBRANCH 42 49
BRANCH 45 54
ATOM     54   C  A00 X   3      15.276   8.982  14.7360  0.00  0.00     0.000 C
ATOM     55   O  A00 X   3      14.480   8.065  14.7340  0.00  0.00     0.000 OA
ATOM     56   O  A00 X   3      15.961   9.158  15.7320  0.00  0.00     0.000 OA
ENDBRANCH 45 54
BRANCH 41 57
ATOM     57  O4  A00 X   4      13.206  11.302  15.3180  0.00  0.00     0.000 O
BRANCH 57 61
ATOM     58  C1  A00 X   4       9.260   9.772  16.1720  0.00  0.00     0.000 C
ATOM     59  C2  A00 X   4       9.900   9.446  14.7990  0.00  0.00     0.000 C
ATOM     60  C3  A00 X   4      11.416   9.727  14.7450  0.00  0.00     0.000 C
ATOM     61  C4  A00 X   4      11.761  11.121  15.3130  0.00  0.00     0.000 C
ATOM     62  C5  A00 X   4      11.213  11.149  16.7620  0.00  0.00     0.000 C
ATOM     63  O5  A00 X   4       9.770  11.004  16.7290  0.00  0.00     0.000 O
BRANCH 59 66
ATOM     64   N  A00 X   4       9.832   9.137  13.3590  0.00  0.00     0.000 N
ATOM     66  HD  A00 X   4       9.929   9.794  12.8040  0.00  0.00     0.000 HD
ATOM     66   O  A00 X   4       7.478   8.728  13.6620  0.00  0.00     0.000 OA
ATOM     67   S  A00 X   4       8.561   8.330  12.8180  0.00  0.00     0.000 S
ATOM     68   O  A00 X   4       8.503   8.814  11.4700  0.00  0.00     0.000 OA
ATOM     69   O  A00 X   4       9.045   6.984  12.9390  0.00  0.00     0.000 OA
ENDBRANCH 59 66
BRANCH 62 70
ATOM     70   C  A00 X   4      11.561  12.438  17.5440  0.00  0.00     0.000 C
ATOM     71   O  A00 X   4      10.827  15.876  16.6780  0.00  0.00     0.000 OA
ATOM     72   O  A00 X   4      12.838  14.863  17.3690  0.00  0.00     0.000 OA
ATOM     73   O  A00 X   4      10.864  13.550  16.9590  0.00  0.00     0.000 O
ATOM     74   O  A00 X   4      12.038  14.521  15.0920  0.00  0.00     0.000 OA
ATOM     75   S  A00 X   4      11.716  14.769  16.4610  0.00  0.00     0.000 S
ENDBRANCH 62 70
ENDBRANCH 57 61
ENDBRANCH 41 57
ENDBRANCH 40 44
ENDBRANCH 20 40
ENDBRANCH 19 23
ENDBRANCH 1 19
TORSDOF 14
ENDMDL
MODEL 26
REMARK VINA RESULT:      -5.0      5.618     10.292
ROOT
ATOM      1  C1  A00 X   1      10.692   7.818  14.1370  0.00  0.00     0.000 C
ATOM      2  C2  A00 X   1      10.491   8.168  12.6390  0.00  0.00     0.000 C
ATOM      3  C3  A00 X   1      10.290   9.684  12.3090  0.00  0.00     0.000 C
ATOM      4  C4  A00 X   1       9.950  10.592  13.5190  0.00  0.00     0.000 C
ATOM      5  C5  A00 X   1       9.347   9.803  14.6820  0.00  0.00     0.000 C
ATOM      6  O5  A00 X   1      10.387   8.879  15.0750  0.00  0.00     0.000 O
ATOM      7   O  A00 X   1       9.207   9.812  11.3900  0.00  0.00     0.000 O
ATOM      9  HD  A00 X   1       9.126  10.450  11.9700  0.00  0.00     0.000 HD
ATOM      9   O  A00 X   1      11.096  11.314  13.9680  0.00  0.00     0.000 O
ATOM     11  HD  A00 X   1      11.016  11.952  14.5490  0.00  0.00     0.000 HD
ENDROOT
BRANCH 2 11
ATOM     11   O  A00 X   1      11.638   7.680  11.9160  0.00  0.00     0.000 O
ATOM     12   O  A00 X   1      11.832   7.912   9.5340  0.00  0.00     0.000 OA
ATOM     13   O  A00 X   1      10.049   6.537  10.4550  0.00  0.00     0.000 OA
ATOM     14   O  A00 X   1      12.318   5.848  10.6380  0.00  0.00     0.000 OA
ATOM     15   S  A00 X   1      11.418   6.965  10.5390  0.00  0.00     0.000 S
ENDBRANCH 2 11
BRANCH 5 16
ATOM     16   C  A00 X   1       8.007   9.126  14.3790  0.00  0.00     0.000 C
ATOM     17   O  A00 X   1       7.469   8.484  15.2580  0.00  0.00     0.000 OA
ATOM     18   O  A00 X   1       7.462   9.213  13.2970  0.00  0.00     0.000 OA
ENDBRANCH 5 16
BRANCH 1 19
ATOM     19  O4  A00 X   2      10.047   6.577  14.5150  0.00  0.00     0.000 O
BRANCH 19 23
ATOM     20  C1  A00 X   2      13.267   5.330  17.0530  0.00  0.00     0.000 C
ATOM     21  C2  A00 X   2      13.197   4.716  15.6340  0.00  0.00     0.000 C
ATOM     22  C3  A00 X   2      12.284   5.556  14.7160  0.00  0.00     0.000 C
ATOM     23  C4  A00 X   2      10.891   5.742  15.3590  0.00  0.00     0.000 C
ATOM     24  C5  A00 X   2      11.098   6.343  16.7760  0.00  0.00     0.000 C
ATOM     25  O5  A00 X   2      11.908   5.427  17.5580  0.00  0.00     0.000 O
ATOM     26   O  A00 X   2      12.307   4.987  13.3960  0.00  0.00     0.000 O
ATOM     28  HD  A00 X   2      12.140   4.187  13.6840  0.00  0.00     0.000 HD
BRANCH 21 30
ATOM     28   N  A00 X   2      13.699   3.451  16.1780  0.00  0.00     0.000 N
ATOM     30  HD  A00 X   2      13.808   3.415  15.3200  0.00  0.00     0.000 HD
ATOM     30   O  A00 X   2      15.005   2.420  14.5390  0.00  0.00     0.000 OA
ATOM     31   S  A00 X   2      13.782   2.194  15.2240  0.00  0.00     0.000 S
ATOM     32   O  A00 X   2      13.792   1.084  16.1260  0.00  0.00     0.000 OA
ATOM     33   O  A00 X   2      12.588   2.183  14.4330  0.00  0.00     0.000 OA
ENDBRANCH 21 30
BRANCH 24 34
ATOM     34   C  A00 X   2       9.850   6.840  17.5430  0.00  0.00     0.000 C
ATOM     35   O  A00 X   2       7.143   4.674  18.6570  0.00  0.00     0.000 OA
ATOM     36   O  A00 X   2       8.804   5.848  17.5380  0.00  0.00     0.000 O
ATOM     37   O  A00 X   2       9.416   4.349  19.2270  0.00  0.00     0.000 OA
ATOM     38   S  A00 X   2       8.387   5.306  18.9540  0.00  0.00     0.000 S
ATOM     39   O  A00 X   2       8.298   6.447  19.8140  0.00  0.00     0.000 OA
ENDBRANCH 24 34
BRANCH 20 40
ATOM     40  O4  A00 X   3      13.810   6.647  16.8800  0.00  0.00     0.000 O
BRANCH 40 44
ATOM     41  C1  A00 X   3      13.366  10.143  17.7210  0.00  0.00     0.000 C
ATOM     42  C2  A00 X   3      14.449   9.598  16.7650  0.00  0.00     0.000 C
ATOM     43  C3  A00 X   3      15.235   8.434  17.4220  0.00  0.00     0.000 C
ATOM     44  C4  A00 X   3      14.362   7.339  18.0210  0.00  0.00     0.000 C
ATOM     45  C5  A00 X   3      13.302   7.963  18.9720  0.00  0.00     0.000 C
ATOM     46  O5  A00 X   3      12.593   9.063  18.3150  0.00  0.00     0.000 O
ATOM     47   O  A00 X   3      16.321   7.909  16.6620  0.00  0.00     0.000 O
ATOM     49  HD  A00 X   3      16.031   7.156  16.9780  0.00  0.00     0.000 HD
BRANCH 42 49
ATOM     49   O  A00 X   3      13.775   9.167  15.5630  0.00  0.00     0.000 O
ATOM     50   O  A00 X   3      14.404   8.117  13.5050  0.00  0.00     0.000 OA
ATOM     51   O  A00 X   3      15.796   9.809  14.3950  0.00  0.00     0.000 OA
ATOM     52   O  A00 X   3      13.663  10.418  13.5790  0.00  0.00     0.000 OA
ATOM     53   S  A00 X   3      14.437   9.382  14.1700  0.00  0.00     0.000 S
ENDBRANCH 42 49
BRANCH 45 54
ATOM     54   C  A00 X   3      13.915   8.360  20.3210  0.00  0.00     0.000 C
ATOM     55   O  A00 X   3      13.207   8.706  21.2440  0.00  0.00     0.000 OA
ATOM     56   O  A00 X   3      15.124   8.338  20.4890  0.00  0.00     0.000 OA
ENDBRANCH 45 54
BRANCH 41 57
ATOM     57  O4  A00 X   4      13.919  11.067  18.6840  0.00  0.00     0.000 O
BRANCH 57 61
ATOM     58  C1  A00 X   4      12.349  14.570  20.6600  0.00  0.00     0.000 C
ATOM     59  C2  A00 X   4      11.926  13.173  21.1800  0.00  0.00     0.000 C
ATOM     60  C3  A00 X   4      12.810  12.026  20.6490  0.00  0.00     0.000 C
ATOM     61  C4  A00 X   4      13.014  12.120  19.1210  0.00  0.00     0.000 C
ATOM     62  C5  A00 X   4      13.637  13.511  18.8490  0.00  0.00     0.000 C
ATOM     63  O5  A00 X   4      12.702  14.542  19.2580  0.00  0.00     0.000 O
BRANCH 59 66
ATOM     64   N  A00 X   4      10.607  13.247  20.5270  0.00  0.00     0.000 N
ATOM     66  HD  A00 X   4      10.506  13.831  19.8960  0.00  0.00     0.000 HD
ATOM     66   O  A00 X   4       9.754  14.176  22.5780  0.00  0.00     0.000 OA
ATOM     67   S  A00 X   4       9.313  13.416  21.4510  0.00  0.00     0.000 S
ATOM     68   O  A00 X   4       8.438  14.105  20.5470  0.00  0.00     0.000 OA
ATOM     69   O  A00 X   4       8.972  12.038  21.6640  0.00  0.00     0.000 OA
ENDBRANCH 59 66
BRANCH 62 70
ATOM     70   C  A00 X   4      14.021  13.754  17.3700  0.00  0.00     0.000 C
ATOM     71   O  A00 X   4      12.171  15.535  14.8170  0.00  0.00     0.000 OA
ATOM     72   O  A00 X   4      13.184  13.410  14.7770  0.00  0.00     0.000 OA
ATOM     73   O  A00 X   4      13.118  14.713  16.7970  0.00  0.00     0.000 O
ATOM     74   O  A00 X   4      11.084  13.719  15.9730  0.00  0.00     0.000 OA
ATOM     75   S  A00 X   4      12.311  14.290  15.5200  0.00  0.00     0.000 S
ENDBRANCH 62 70
ENDBRANCH 57 61
ENDBRANCH 41 57
ENDBRANCH 40 44
ENDBRANCH 20 40
ENDBRANCH 19 23
ENDBRANCH 1 19
TORSDOF 14
ENDMDL
MODEL 27
REMARK VINA RESULT:      -4.8      4.805     11.232
ROOT
ATOM      1  C1  A00 X   1      11.956   8.154  12.6640  0.00  0.00     0.000 C
ATOM      2  C2  A00 X   1      11.378   9.039  11.5270  0.00  0.00     0.000 C
ATOM      3  C3  A00 X   1      10.293  10.082  11.9530  0.00  0.00     0.000 C
ATOM      4  C4  A00 X   1       9.668   9.862  13.3540  0.00  0.00     0.000 C
ATOM      5  C5  A00 X   1       9.806   8.415  13.8280  0.00  0.00     0.000 C
ATOM      6  O5  A00 X   1      11.231   8.193  13.9180  0.00  0.00     0.000 O
ATOM      7   O  A00 X   1       9.218  10.031  11.0180  0.00  0.00     0.000 O
ATOM      9  HD  A00 X   1       8.867  10.104  11.8060  0.00  0.00     0.000 HD
ATOM      9   O  A00 X   1      10.236  10.743  14.3230  0.00  0.00     0.000 O
ATOM     11  HD  A00 X   1       9.885  10.816  15.1120  0.00  0.00     0.000 HD
ENDROOT
BRANCH 2 11
ATOM     11   O  A00 X   1      12.479   9.733  10.9080  0.00  0.00     0.000 O
ATOM     12   O  A00 X   1      12.220  10.950   8.8540  0.00  0.00     0.000 OA
ATOM     13   O  A00 X   1      11.891   8.540   8.8600  0.00  0.00     0.000 OA
ATOM     14   O  A00 X   1      14.056   9.461   9.2080  0.00  0.00     0.000 OA
ATOM     15   S  A00 X   1      12.639   9.664   9.3510  0.00  0.00     0.000 S
ENDBRANCH 2 11
BRANCH 5 16
ATOM     16   C  A00 X   1       9.077   7.379  12.9650  0.00  0.00     0.000 C
ATOM     17   O  A00 X   1       8.195   7.758  12.2230  0.00  0.00     0.000 OA
ATOM     18   O  A00 X   1       9.355   6.197  12.9930  0.00  0.00     0.000 OA
ENDBRANCH 5 16
BRANCH 1 19
ATOM     19  O4  A00 X   2      12.208   6.792  12.2410  0.00  0.00     0.000 O
BRANCH 19 23
ATOM     20  C1  A00 X   2      14.852   5.660  15.4190  0.00  0.00     0.000 C
ATOM     21  C2  A00 X   2      15.400   6.630  14.3450  0.00  0.00     0.000 C
ATOM     22  C3  A00 X   2      14.248   7.272  13.5440  0.00  0.00     0.000 C
ATOM     23  C4  A00 X   2      13.323   6.183  12.9540  0.00  0.00     0.000 C
ATOM     24  C5  A00 X   2      12.859   5.271  14.1220  0.00  0.00     0.000 C
ATOM     25  O5  A00 X   2      14.027   4.674  14.7420  0.00  0.00     0.000 O
ATOM     26   O  A00 X   2      14.803   8.213  12.6100  0.00  0.00     0.000 O
ATOM     28  HD  A00 X   2      15.379   7.644  12.3020  0.00  0.00     0.000 HD
BRANCH 21 30
ATOM     28   N  A00 X   2      16.041   7.939  14.1870  0.00  0.00     0.000 N
ATOM     30  HD  A00 X   2      16.659   7.386  14.4370  0.00  0.00     0.000 HD
ATOM     30   O  A00 X   2      18.353   7.610  14.0970  0.00  0.00     0.000 OA
ATOM     31   S  A00 X   2      17.396   8.217  14.9520  0.00  0.00     0.000 S
ATOM     32   O  A00 X   2      17.462   9.645  15.0160  0.00  0.00     0.000 OA
ATOM     33   O  A00 X   2      17.259   7.667  16.2680  0.00  0.00     0.000 OA
ENDBRANCH 21 30
BRANCH 24 34
ATOM     34   C  A00 X   2      11.742   4.239  13.8360  0.00  0.00     0.000 C
ATOM     35   O  A00 X   2      11.976   0.699  14.6550  0.00  0.00     0.000 OA
ATOM     36   O  A00 X   2      12.240   2.890  13.9340  0.00  0.00     0.000 O
ATOM     37   O  A00 X   2      12.257   2.441  16.2290  0.00  0.00     0.000 OA
ATOM     38   S  A00 X   2      11.571   2.007  15.0510  0.00  0.00     0.000 S
ATOM     39   O  A00 X   2      10.163   2.256  14.9740  0.00  0.00     0.000 OA
ENDBRANCH 24 34
BRANCH 20 40
ATOM     40  O4  A00 X   3      14.031   6.460  16.2820  0.00  0.00     0.000 O
BRANCH 40 44
ATOM     41  C1  A00 X   3      11.347   7.484  18.4890  0.00  0.00     0.000 C
ATOM     42  C2  A00 X   3      12.663   8.265  18.2830  0.00  0.00     0.000 C
ATOM     43  C3  A00 X   3      13.892   7.336  18.4570  0.00  0.00     0.000 C
ATOM     44  C4  A00 X   3      13.831   6.046  17.6500  0.00  0.00     0.000 C
ATOM     45  C5  A00 X   3      12.483   5.317  17.9140  0.00  0.00     0.000 C
ATOM     46  O5  A00 X   3      11.352   6.232  17.7480  0.00  0.00     0.000 O
ATOM     47   O  A00 X   3      15.167   7.969  18.3750  0.00  0.00     0.000 O
ATOM     49  HD  A00 X   3      15.375   7.243  17.9510  0.00  0.00     0.000 HD
BRANCH 42 49
ATOM     49   O  A00 X   3      12.614   8.833  16.9560  0.00  0.00     0.000 O
ATOM     50   O  A00 X   3      14.097  10.081  15.5500  0.00  0.00     0.000 OA
ATOM     51   O  A00 X   3      13.977  10.622  17.8480  0.00  0.00     0.000 OA
ATOM     52   O  A00 X   3      12.101  11.075  16.4850  0.00  0.00     0.000 OA
ATOM     53   S  A00 X   3      13.231  10.234  16.6770  0.00  0.00     0.000 S
ENDBRANCH 42 49
BRANCH 45 54
ATOM     54   C  A00 X   3      12.483   4.597  19.2680  0.00  0.00     0.000 C
ATOM     55   O  A00 X   3      13.291   4.890  20.1250  0.00  0.00     0.000 OA
ATOM     56   O  A00 X   3      11.672   3.715  19.5070  0.00  0.00     0.000 OA
ENDBRANCH 45 54
BRANCH 41 57
ATOM     57  O4  A00 X   4      11.028   7.336  19.8910  0.00  0.00     0.000 O
BRANCH 57 61
ATOM     58  C1  A00 X   4       7.298   6.517  21.9050  0.00  0.00     0.000 C
ATOM     59  C2  A00 X   4       8.320   5.364  21.7400  0.00  0.00     0.000 C
ATOM     60  C3  A00 X   4       9.730   5.845  21.3420  0.00  0.00     0.000 C
ATOM     61  C4  A00 X   4       9.684   6.850  20.1710  0.00  0.00     0.000 C
ATOM     62  C5  A00 X   4       8.778   8.018  20.6340  0.00  0.00     0.000 C
ATOM     63  O5  A00 X   4       7.437   7.517  20.8700  0.00  0.00     0.000 O
BRANCH 59 66
ATOM     64   N  A00 X   4       7.781   4.560  20.6280  0.00  0.00     0.000 N
ATOM     66  HD  A00 X   4       7.256   4.957  20.0650  0.00  0.00     0.000 HD
ATOM     66   O  A00 X   4       6.430   3.404  22.2530  0.00  0.00     0.000 OA
ATOM     67   S  A00 X   4       7.039   3.187  20.9780  0.00  0.00     0.000 S
ATOM     68   O  A00 X   4       6.134   3.093  19.8700  0.00  0.00     0.000 OA
ATOM     69   O  A00 X   4       8.147   2.277  20.9110  0.00  0.00     0.000 OA
ENDBRANCH 59 66
BRANCH 62 70
ATOM     70   C  A00 X   4       8.695   9.191  19.6280  0.00  0.00     0.000 C
ATOM     71   O  A00 X   4       6.830   9.385  16.5310  0.00  0.00     0.000 OA
ATOM     72   O  A00 X   4       9.081   9.892  17.0010  0.00  0.00     0.000 OA
ATOM     73   O  A00 X   4       7.651   8.927  18.6770  0.00  0.00     0.000 O
ATOM     74   O  A00 X   4       8.382   7.563  16.8300  0.00  0.00     0.000 OA
ATOM     75   S  A00 X   4       8.032   8.908  17.1560  0.00  0.00     0.000 S
ENDBRANCH 62 70
ENDBRANCH 57 61
ENDBRANCH 41 57
ENDBRANCH 40 44
ENDBRANCH 20 40
ENDBRANCH 19 23
ENDBRANCH 1 19
TORSDOF 14
ENDMDL
MODEL 28
REMARK VINA RESULT:      -4.8      3.614      7.465
ROOT
ATOM      1  C1  A00 X   1      10.356   9.382  17.1590  0.00  0.00     0.000 C
ATOM      2  C2  A00 X   1       9.065  10.234  17.2810  0.00  0.00     0.000 C
ATOM      3  C3  A00 X   1       9.015  11.534  16.4120  0.00  0.00     0.000 C
ATOM      4  C4  A00 X   1      10.374  12.003  15.8310  0.00  0.00     0.000 C
ATOM      5  C5  A00 X   1      11.560  11.459  16.6280  0.00  0.00     0.000 C
ATOM      6  O5  A00 X   1      11.469  10.023  16.4880  0.00  0.00     0.000 O
ATOM      7   O  A00 X   1       8.528  12.605  17.2180  0.00  0.00     0.000 O
ATOM      9  HD  A00 X   1       9.178  12.920  16.7400  0.00  0.00     0.000 HD
ATOM      9   O  A00 X   1      10.508  11.639  14.4570  0.00  0.00     0.000 O
ATOM     11  HD  A00 X   1      11.158  11.954  13.9800  0.00  0.00     0.000 HD
ENDROOT
BRANCH 2 11
ATOM     11   O  A00 X   1       7.949   9.393  16.9310  0.00  0.00     0.000 O
ATOM     12   O  A00 X   1       5.705   9.910  17.6130  0.00  0.00     0.000 OA
ATOM     13   O  A00 X   1       7.378   9.410  19.3060  0.00  0.00     0.000 OA
ATOM     14   O  A00 X   1       6.607   7.708  17.8330  0.00  0.00     0.000 OA
ATOM     15   S  A00 X   1       6.842   9.116  18.0060  0.00  0.00     0.000 S
ENDBRANCH 2 11
BRANCH 5 16
ATOM     16   C  A00 X   1      11.633  11.930  18.0840  0.00  0.00     0.000 C
ATOM     17   O  A00 X   1      11.076  12.965  18.3880  0.00  0.00     0.000 OA
ATOM     18   O  A00 X   1      12.221  11.303  18.9420  0.00  0.00     0.000 OA
ENDBRANCH 5 16
BRANCH 1 19
ATOM     19  O4  A00 X   2      10.765   8.799  18.4200  0.00  0.00     0.000 O
BRANCH 19 23
ATOM     20  C1  A00 X   2      12.738   5.389  16.7330  0.00  0.00     0.000 C
ATOM     21  C2  A00 X   2      11.200   5.318  16.8920  0.00  0.00     0.000 C
ATOM     22  C3  A00 X   2      10.602   6.727  17.0910  0.00  0.00     0.000 C
ATOM     23  C4  A00 X   2      11.295   7.451  18.2670  0.00  0.00     0.000 C
ATOM     24  C5  A00 X   2      12.825   7.439  17.9970  0.00  0.00     0.000 C
ATOM     25  O5  A00 X   2      13.272   6.061  17.9050  0.00  0.00     0.000 O
ATOM     26   O  A00 X   2       9.171   6.615  17.1650  0.00  0.00     0.000 O
ATOM     28  HD  A00 X   2       9.201   5.987  17.7610  0.00  0.00     0.000 HD
BRANCH 21 30
ATOM     28   N  A00 X   2      10.388   4.841  15.7690  0.00  0.00     0.000 N
ATOM     30  HD  A00 X   2      10.504   4.166  16.2990  0.00  0.00     0.000 HD
ATOM     30   O  A00 X   2       9.419   2.806  16.3850  0.00  0.00     0.000 OA
ATOM     31   S  A00 X   2      10.370   3.293  15.4500  0.00  0.00     0.000 S
ATOM     32   O  A00 X   2       9.957   3.233  14.0820  0.00  0.00     0.000 OA
ATOM     33   O  A00 X   2      11.715   2.817  15.5850  0.00  0.00     0.000 OA
ENDBRANCH 21 30
BRANCH 24 34
ATOM     34   C  A00 X   2      13.729   8.300  18.9100  0.00  0.00     0.000 C
ATOM     35   O  A00 X   2      16.923   9.708  17.8740  0.00  0.00     0.000 OA
ATOM     36   O  A00 X   2      15.060   8.414  18.3680  0.00  0.00     0.000 O
ATOM     37   O  A00 X   2      14.883  10.082  16.7380  0.00  0.00     0.000 OA
ATOM     38   S  A00 X   2      15.513   9.876  18.0060  0.00  0.00     0.000 S
ATOM     39   O  A00 X   2      15.101  10.709  19.0950  0.00  0.00     0.000 OA
ENDBRANCH 24 34
BRANCH 20 40
ATOM     40  O4  A00 X   3      12.970   6.197  15.5700  0.00  0.00     0.000 O
BRANCH 40 44
ATOM     41  C1  A00 X   3      14.107   8.168  12.7500  0.00  0.00     0.000 C
ATOM     42  C2  A00 X   3      13.088   7.011  12.6620  0.00  0.00     0.000 C
ATOM     43  C3  A00 X   3      13.630   5.738  13.3620  0.00  0.00     0.000 C
ATOM     44  C4  A00 X   3      14.153   5.967  14.7750  0.00  0.00     0.000 C
ATOM     45  C5  A00 X   3      15.174   7.140  14.7810  0.00  0.00     0.000 C
ATOM     46  O5  A00 X   3      14.625   8.315  14.1020  0.00  0.00     0.000 O
ATOM     47   O  A00 X   3      12.808   4.577  13.2680  0.00  0.00     0.000 O
ATOM     49  HD  A00 X   3      13.066   4.466  14.0870  0.00  0.00     0.000 HD
BRANCH 42 49
ATOM     49   O  A00 X   3      11.867   7.474  13.2800  0.00  0.00     0.000 O
ATOM     50   O  A00 X   3       9.674   6.592  13.6590  0.00  0.00     0.000 OA
ATOM     51   O  A00 X   3      10.713   6.208  11.5710  0.00  0.00     0.000 OA
ATOM     52   O  A00 X   3      10.058   8.412  12.1140  0.00  0.00     0.000 OA
ATOM     53   S  A00 X   3      10.488   7.159  12.6300  0.00  0.00     0.000 S
ENDBRANCH 42 49
BRANCH 45 54
ATOM     54   C  A00 X   3      16.538   6.707  14.2310  0.00  0.00     0.000 C
ATOM     55   O  A00 X   3      17.510   7.426  14.3500  0.00  0.00     0.000 OA
ATOM     56   O  A00 X   3      16.672   5.635  13.6620  0.00  0.00     0.000 OA
ENDBRANCH 45 54
BRANCH 41 57
ATOM     57  O4  A00 X   4      15.132   8.055  11.7380  0.00  0.00     0.000 O
BRANCH 57 61
ATOM     58  C1  A00 X   4      17.407  10.992   9.5380  0.00  0.00     0.000 C
ATOM     59  C2  A00 X   4      17.477  11.006  11.0860  0.00  0.00     0.000 C
ATOM     60  C3  A00 X   4      16.932   9.720  11.7380  0.00  0.00     0.000 C
ATOM     61  C4  A00 X   4      15.562   9.315  11.1510  0.00  0.00     0.000 C
ATOM     62  C5  A00 X   4      15.774   9.152   9.6250  0.00  0.00     0.000 C
ATOM     63  O5  A00 X   4      16.165  10.428   9.0580  0.00  0.00     0.000 O
BRANCH 59 66
ATOM     64   N  A00 X   4      17.571  11.712  12.3760  0.00  0.00     0.000 N
ATOM     66  HD  A00 X   4      16.831  11.961  12.7510  0.00  0.00     0.000 HD
ATOM     66   O  A00 X   4      18.493  13.583  11.1730  0.00  0.00     0.000 OA
ATOM     67   S  A00 X   4      18.528  12.990  12.4730  0.00  0.00     0.000 S
ATOM     68   O  A00 X   4      17.867  13.731  13.5070  0.00  0.00     0.000 OA
ATOM     69   O  A00 X   4      19.750  12.361  12.8890  0.00  0.00     0.000 OA
ENDBRANCH 59 66
BRANCH 62 70
ATOM     70   C  A00 X   4      14.527   8.637   8.8660  0.00  0.00     0.000 C
ATOM     71   O  A00 X   4      11.384  10.332   8.2680  0.00  0.00     0.000 OA
ATOM     72   O  A00 X   4      11.830   8.170   9.0890  0.00  0.00     0.000 OA
ATOM     73   O  A00 X   4      13.613   9.727   8.6610  0.00  0.00     0.000 O
ATOM     74   O  A00 X   4      12.155  10.100  10.5410  0.00  0.00     0.000 OA
ATOM     75   S  A00 X   4      12.154   9.574   9.2140  0.00  0.00     0.000 S
ENDBRANCH 62 70
ENDBRANCH 57 61
ENDBRANCH 41 57
ENDBRANCH 40 44
ENDBRANCH 20 40
ENDBRANCH 19 23
ENDBRANCH 1 19
TORSDOF 14
ENDMDL
MODEL 29
REMARK VINA RESULT:      -4.7      4.431      9.133
ROOT
ATOM      1  C1  A00 X   1      14.786  19.181  12.7450  0.00  0.00     0.000 C
ATOM      2  C2  A00 X   1      13.727  18.844  13.8280  0.00  0.00     0.000 C
ATOM      3  C3  A00 X   1      14.062  19.304  15.2850  0.00  0.00     0.000 C
ATOM      4  C4  A00 X   1      15.540  19.699  15.5370  0.00  0.00     0.000 C
ATOM      5  C5  A00 X   1      16.488  19.069  14.5170  0.00  0.00     0.000 C
ATOM      6  O5  A00 X   1      16.075  19.617  13.2450  0.00  0.00     0.000 O
ATOM      7   O  A00 X   1      13.771  18.234  16.1810  0.00  0.00     0.000 O
ATOM      9  HD  A00 X   1      14.517  18.588  16.4410  0.00  0.00     0.000 HD
ATOM      9   O  A00 X   1      15.708  21.116  15.5410  0.00  0.00     0.000 O
ATOM     11  HD  A00 X   1      16.455  21.471  15.8010  0.00  0.00     0.000 HD
ENDROOT
BRANCH 2 11
ATOM     11   O  A00 X   1      12.480  19.443  13.4230  0.00  0.00     0.000 O
ATOM     12   O  A00 X   1      10.676  19.791  14.9690  0.00  0.00     0.000 OA
ATOM     13   O  A00 X   1      11.386  17.521  14.4600  0.00  0.00     0.000 OA
ATOM     14   O  A00 X   1      10.309  18.846  12.8040  0.00  0.00     0.000 OA
ATOM     15   S  A00 X   1      11.139  18.852  13.9790  0.00  0.00     0.000 S
ENDBRANCH 2 11
BRANCH 5 16
ATOM     16   C  A00 X   1      16.539  17.538  14.5380  0.00  0.00     0.000 C
ATOM     17   O  A00 X   1      17.161  16.965  13.6670  0.00  0.00     0.000 OA
ATOM     18   O  A00 X   1      15.985  16.880  15.3960  0.00  0.00     0.000 OA
ENDBRANCH 5 16
BRANCH 1 19
ATOM     19  O4  A00 X   2      14.931  18.132  11.7560  0.00  0.00     0.000 O
BRANCH 19 23
ATOM     20  C1  A00 X   2      13.031  17.537   7.9610  0.00  0.00     0.000 C
ATOM     21  C2  A00 X   2      13.824  18.851   8.1650  0.00  0.00     0.000 C
ATOM     22  C3  A00 X   2      14.783  18.732   9.3680  0.00  0.00     0.000 C
ATOM     23  C4  A00 X   2      14.016  18.292  10.6350  0.00  0.00     0.000 C
ATOM     24  C5  A00 X   2      13.252  16.982  10.2960  0.00  0.00     0.000 C
ATOM     25  O5  A00 X   2      12.335  17.246   9.2030  0.00  0.00     0.000 O
ATOM     26   O  A00 X   2      15.543  19.948   9.4730  0.00  0.00     0.000 O
ATOM     28  HD  A00 X   2      14.839  20.451   9.4330  0.00  0.00     0.000 HD
BRANCH 21 30
ATOM     28   N  A00 X   2      14.874  19.765   7.7070  0.00  0.00     0.000 N
ATOM     30  HD  A00 X   2      14.216  19.839   7.1490  0.00  0.00     0.000 HD
ATOM     30   O  A00 X   2      13.924  21.258   6.1820  0.00  0.00     0.000 OA
ATOM     31   S  A00 X   2      14.883  20.211   6.1900  0.00  0.00     0.000 S
ATOM     32   O  A00 X   2      16.233  20.627   5.9670  0.00  0.00     0.000 OA
ATOM     33   O  A00 X   2      14.584  19.050   5.4060  0.00  0.00     0.000 OA
ENDBRANCH 21 30
BRANCH 24 34
ATOM     34   C  A00 X   2      12.588  16.208  11.4590  0.00  0.00     0.000 C
ATOM     35   O  A00 X   2      13.636  12.903  12.5700  0.00  0.00     0.000 OA
ATOM     36   O  A00 X   2      12.964  14.816  11.4410  0.00  0.00     0.000 O
ATOM     37   O  A00 X   2      15.080  14.771  12.4370  0.00  0.00     0.000 OA
ATOM     38   S  A00 X   2      13.750  14.317  12.7080  0.00  0.00     0.000 S
ATOM     39   O  A00 X   2      13.079  14.872  13.8450  0.00  0.00     0.000 OA
ENDBRANCH 24 34
BRANCH 20 40
ATOM     40  O4  A00 X   3      14.016  16.524   7.7150  0.00  0.00     0.000 O
BRANCH 40 44
ATOM     41  C1  A00 X   3      15.714  13.324   7.7530  0.00  0.00     0.000 C
ATOM     42  C2  A00 X   3      16.085  14.506   6.8320  0.00  0.00     0.000 C
ATOM     43  C3  A00 X   3      14.836  15.042   6.0860  0.00  0.00     0.000 C
ATOM     44  C4  A00 X   3      13.641  15.337   6.9840  0.00  0.00     0.000 C
ATOM     45  C5  A00 X   3      13.327  14.102   7.8750  0.00  0.00     0.000 C
ATOM     46  O5  A00 X   3      14.535  13.624   8.5500  0.00  0.00     0.000 O
ATOM     47   O  A00 X   3      15.074  16.081   5.1390  0.00  0.00     0.000 O
ATOM     49  HD  A00 X   3      14.330  16.389   5.4590  0.00  0.00     0.000 HD
BRANCH 42 49
ATOM     49   O  A00 X   3      16.678  15.524   7.6670  0.00  0.00     0.000 O
ATOM     50   O  A00 X   3      17.480  17.760   7.3690  0.00  0.00     0.000 OA
ATOM     51   O  A00 X   3      17.970  16.142   5.7160  0.00  0.00     0.000 OA
ATOM     52   O  A00 X   3      18.985  15.926   7.8400  0.00  0.00     0.000 OA
ATOM     53   S  A00 X   3      17.848  16.399   7.1290  0.00  0.00     0.000 S
ENDBRANCH 42 49
BRANCH 45 54
ATOM     54   C  A00 X   3      12.601  13.004   7.0880  0.00  0.00     0.000 C
ATOM     55   O  A00 X   3      11.859  12.226   7.6510  0.00  0.00     0.000 OA
ATOM     56   O  A00 X   3      12.759  12.891   5.8820  0.00  0.00     0.000 OA
ENDBRANCH 45 54
BRANCH 41 57
ATOM     57  O4  A00 X   4      15.627  12.082   7.0190  0.00  0.00     0.000 O
BRANCH 57 61
ATOM     58  C1  A00 X   4      15.913   7.935   8.1860  0.00  0.00     0.000 C
ATOM     59  C2  A00 X   4      14.689   8.756   8.6620  0.00  0.00     0.000 C
ATOM     60  C3  A00 X   4      14.509  10.087   7.9030  0.00  0.00     0.000 C
ATOM     61  C4  A00 X   4      15.831  10.879   7.8140  0.00  0.00     0.000 C
ATOM     62  C5  A00 X   4      16.852   9.945   7.1190  0.00  0.00     0.000 C
ATOM     63  O5  A00 X   4      17.067   8.773   7.9460  0.00  0.00     0.000 O
BRANCH 59 66
ATOM     64   N  A00 X   4      13.549   9.025   9.5570  0.00  0.00     0.000 N
ATOM     66  HD  A00 X   4      13.637   9.664  10.1350  0.00  0.00     0.000 HD
ATOM     66   O  A00 X   4      14.037   6.933  10.6440  0.00  0.00     0.000 OA
ATOM     67   S  A00 X   4      12.934   7.805  10.3880  0.00  0.00     0.000 S
ATOM     68   O  A00 X   4      12.421   8.503  11.5310  0.00  0.00     0.000 OA
ATOM     69   O  A00 X   4      11.924   7.357   9.4710  0.00  0.00     0.000 OA
ENDBRANCH 59 66
BRANCH 62 70
ATOM     70   C  A00 X   4      18.223  10.605   6.8360  0.00  0.00     0.000 C
ATOM     71   O  A00 X   4      19.769  11.331   3.6440  0.00  0.00     0.000 OA
ATOM     72   O  A00 X   4      20.629  10.262   5.5580  0.00  0.00     0.000 OA
ATOM     73   O  A00 X   4      18.319  10.921   5.4380  0.00  0.00     0.000 O
ATOM     74   O  A00 X   4      19.083   9.065   4.1040  0.00  0.00     0.000 OA
ATOM     75   S  A00 X   4      19.521  10.318   4.6310  0.00  0.00     0.000 S
ENDBRANCH 62 70
ENDBRANCH 57 61
ENDBRANCH 41 57
ENDBRANCH 40 44
ENDBRANCH 20 40
ENDBRANCH 19 23
ENDBRANCH 1 19
TORSDOF 14
ENDMDL
MODEL 30
REMARK VINA RESULT:      -4.7      2.850      6.406
ROOT
ATOM      1  C1  A00 X   1      13.602   9.120  12.4680  0.00  0.00     0.000 C
ATOM      2  C2  A00 X   1      12.186   8.549  12.1930  0.00  0.00     0.000 C
ATOM      3  C3  A00 X   1      11.186   9.510  11.4690  0.00  0.00     0.000 C
ATOM      4  C4  A00 X   1      11.594  11.005  11.4460  0.00  0.00     0.000 C
ATOM      5  C5  A00 X   1      12.576  11.353  12.5650  0.00  0.00     0.000 C
ATOM      6  O5  A00 X   1      13.746  10.551  12.2880  0.00  0.00     0.000 O
ATOM      7   O  A00 X   1       9.926   9.444  12.1330  0.00  0.00     0.000 O
ATOM      9  HD  A00 X   1      10.071  10.276  11.9430  0.00  0.00     0.000 HD
ATOM      9   O  A00 X   1      12.149  11.375  10.1840  0.00  0.00     0.000 O
ATOM     11  HD  A00 X   1      12.294  12.208   9.9940  0.00  0.00     0.000 HD
ENDROOT
BRANCH 2 11
ATOM     11   O  A00 X   1      12.341   7.353  11.4050  0.00  0.00     0.000 O
ATOM     12   O  A00 X   1      10.470   6.268  10.3610  0.00  0.00     0.000 OA
ATOM     13   O  A00 X   1      10.574   6.387  12.7880  0.00  0.00     0.000 OA
ATOM     14   O  A00 X   1      12.115   5.035  11.5810  0.00  0.00     0.000 OA
ATOM     15   S  A00 X   1      11.281   6.207  11.5500  0.00  0.00     0.000 S
ENDBRANCH 2 11
BRANCH 5 16
ATOM     16   C  A00 X   1      12.030  11.173  13.9850  0.00  0.00     0.000 C
ATOM     17   O  A00 X   1      10.832  11.050  14.1360  0.00  0.00     0.000 OA
ATOM     18   O  A00 X   1      12.753  11.140  14.9610  0.00  0.00     0.000 OA
ENDBRANCH 5 16
BRANCH 1 19
ATOM     19  O4  A00 X   2      14.142   8.692  13.7420  0.00  0.00     0.000 O
BRANCH 19 23
ATOM     20  C1  A00 X   2      18.029   7.853  12.1430  0.00  0.00     0.000 C
ATOM     21  C2  A00 X   2      17.075   6.655  12.3690  0.00  0.00     0.000 C
ATOM     22  C3  A00 X   2      15.617   7.135  12.5220  0.00  0.00     0.000 C
ATOM     23  C4  A00 X   2      15.510   8.204  13.6330  0.00  0.00     0.000 C
ATOM     24  C5  A00 X   2      16.523   9.334  13.3030  0.00  0.00     0.000 C
ATOM     25  O5  A00 X   2      17.858   8.768  13.2590  0.00  0.00     0.000 O
ATOM     26   O  A00 X   2      14.765   5.985  12.6600  0.00  0.00     0.000 O
ATOM     28  HD  A00 X   2      15.253   5.635  13.2840  0.00  0.00     0.000 HD
BRANCH 21 30
ATOM     28   N  A00 X   2      18.242   5.839  12.7190  0.00  0.00     0.000 N
ATOM     30  HD  A00 X   2      17.590   5.290  12.5630  0.00  0.00     0.000 HD
ATOM     30   O  A00 X   2      17.816   3.639  12.0560  0.00  0.00     0.000 OA
ATOM     31   S  A00 X   2      18.006   4.371  13.2580  0.00  0.00     0.000 S
ATOM     32   O  A00 X   2      19.214   4.071  13.9630  0.00  0.00     0.000 OA
ATOM     33   O  A00 X   2      16.900   4.426  14.1670  0.00  0.00     0.000 OA
ENDBRANCH 21 30
BRANCH 24 34
ATOM     34   C  A00 X   2      16.454  10.636  14.1350  0.00  0.00     0.000 C
ATOM     35   O  A00 X   2      16.753  10.758  17.7620  0.00  0.00     0.000 OA
ATOM     36   O  A00 X   2      16.247  10.352  15.5330  0.00  0.00     0.000 O
ATOM     37   O  A00 X   2      18.371   9.790  16.3340  0.00  0.00     0.000 OA
ATOM     38   S  A00 X   2      17.399  10.828  16.4920  0.00  0.00     0.000 S
ATOM     39   O  A00 X   2      17.761  12.147  16.0670  0.00  0.00     0.000 OA
ENDBRANCH 24 34
BRANCH 20 40
ATOM     40  O4  A00 X   3      17.582   8.483  10.9340  0.00  0.00     0.000 O
BRANCH 40 44
ATOM     41  C1  A00 X   3      16.684  11.631   9.3810  0.00  0.00     0.000 C
ATOM     42  C2  A00 X   3      16.578  10.250   8.6980  0.00  0.00     0.000 C
ATOM     43  C3  A00 X   3      17.908   9.464   8.8250  0.00  0.00     0.000 C
ATOM     44  C4  A00 X   3      18.467   9.388  10.2400  0.00  0.00     0.000 C
ATOM     45  C5  A00 X   3      18.547  10.813  10.8570  0.00  0.00     0.000 C
ATOM     46  O5  A00 X   3      17.275  11.521  10.7060  0.00  0.00     0.000 O
ATOM     47   O  A00 X   3      17.955   8.207   8.1530  0.00  0.00     0.000 O
ATOM     49  HD  A00 X   3      18.391   7.971   8.8630  0.00  0.00     0.000 HD
BRANCH 42 49
ATOM     49   O  A00 X   3      15.487   9.547   9.3310  0.00  0.00     0.000 O
ATOM     50   O  A00 X   3      14.542   7.351   9.2150  0.00  0.00     0.000 OA
ATOM     51   O  A00 X   3      15.198   8.417   7.2100  0.00  0.00     0.000 OA
ATOM     52   O  A00 X   3      13.349   9.288   8.3960  0.00  0.00     0.000 OA
ATOM     53   S  A00 X   3      14.582   8.589   8.5030  0.00  0.00     0.000 S
ENDBRANCH 42 49
BRANCH 45 54
ATOM     54   C  A00 X   3      19.745  11.601  10.3120  0.00  0.00     0.000 C
ATOM     55   O  A00 X   3      19.986  12.719  10.7170  0.00  0.00     0.000 OA
ATOM     56   O  A00 X   3      20.476  11.118   9.4610  0.00  0.00     0.000 OA
ENDBRANCH 45 54
BRANCH 41 57
ATOM     57  O4  A00 X   4      17.332  12.601   8.5280  0.00  0.00     0.000 O
BRANCH 57 61
ATOM     58  C1  A00 X   4      16.921  16.897   8.6280  0.00  0.00     0.000 C
ATOM     59  C2  A00 X   4      18.340  16.285   8.7370  0.00  0.00     0.000 C
ATOM     60  C3  A00 X   4      18.401  14.798   8.3330  0.00  0.00     0.000 C
ATOM     61  C4  A00 X   4      17.281  13.975   9.0060  0.00  0.00     0.000 C
ATOM     62  C5  A00 X   4      15.944  14.638   8.5920  0.00  0.00     0.000 C
ATOM     63  O5  A00 X   4      15.902  15.992   9.1100  0.00  0.00     0.000 O
BRANCH 59 66
ATOM     64   N  A00 X   4      18.049  16.696  10.1220  0.00  0.00     0.000 N
ATOM     66  HD  A00 X   4      17.245  16.967  10.2990  0.00  0.00     0.000 HD
ATOM     66   O  A00 X   4      19.442  18.622   9.7380  0.00  0.00     0.000 OA
ATOM     67   S  A00 X   4      19.004  17.780  10.8070  0.00  0.00     0.000 S
ATOM     68   O  A00 X   4      18.089  18.383  11.7320  0.00  0.00     0.000 OA
ATOM     69   O  A00 X   4      19.973  16.915  11.4180  0.00  0.00     0.000 OA
ENDBRANCH 59 66
BRANCH 62 70
ATOM     70   C  A00 X   4      14.686  13.883   9.0840  0.00  0.00     0.000 C
ATOM     71   O  A00 X   4      11.946  12.543   7.1330  0.00  0.00     0.000 OA
ATOM     72   O  A00 X   4      11.939  13.898   9.0590  0.00  0.00     0.000 OA
ATOM     73   O  A00 X   4      13.997  13.322   7.9540  0.00  0.00     0.000 O
ATOM     74   O  A00 X   4      12.492  14.880   6.8990  0.00  0.00     0.000 OA
ATOM     75   S  A00 X   4      12.497  13.724   7.7360  0.00  0.00     0.000 S
ENDBRANCH 62 70
ENDBRANCH 57 61
ENDBRANCH 41 57
ENDBRANCH 40 44
ENDBRANCH 20 40
ENDBRANCH 19 23
ENDBRANCH 1 19
TORSDOF 14
ENDMDL
MODEL 31
REMARK VINA RESULT:      -4.7      3.212      7.643
ROOT
ATOM      1  C1  A00 X   1      14.327  11.956  10.8250  0.00  0.00     0.000 C
ATOM      2  C2  A00 X   1      14.416  12.744   9.4910  0.00  0.00     0.000 C
ATOM      3  C3  A00 X   1      15.846  13.212   9.0630  0.00  0.00     0.000 C
ATOM      4  C4  A00 X   1      16.926  13.162  10.1740  0.00  0.00     0.000 C
ATOM      5  C5  A00 X   1      16.315  13.194  11.5750  0.00  0.00     0.000 C
ATOM      6  O5  A00 X   1      15.515  11.993  11.6550  0.00  0.00     0.000 O
ATOM      7   O  A00 X   1      15.773  14.568   8.6310  0.00  0.00     0.000 O
ATOM      9  HD  A00 X   1      16.494  14.490   9.1040  0.00  0.00     0.000 HD
ATOM      9   O  A00 X   1      17.761  12.012  10.0390  0.00  0.00     0.000 O
ATOM     11  HD  A00 X   1      18.482  11.933  10.5120  0.00  0.00     0.000 HD
ENDROOT
BRANCH 2 11
ATOM     11   O  A00 X   1      13.864  11.911   8.4530  0.00  0.00     0.000 O
ATOM     12   O  A00 X   1      13.195  12.807   6.3270  0.00  0.00     0.000 OA
ATOM     13   O  A00 X   1      12.028  13.518   8.3400  0.00  0.00     0.000 OA
ATOM     14   O  A00 X   1      11.806  11.288   7.5420  0.00  0.00     0.000 OA
ATOM     15   S  A00 X   1      12.654  12.448   7.6130  0.00  0.00     0.000 S
ENDBRANCH 2 11
BRANCH 5 16
ATOM     16   C  A00 X   1      15.539  14.471  11.9140  0.00  0.00     0.000 C
ATOM     17   O  A00 X   1      14.893  14.503  12.9410  0.00  0.00     0.000 OA
ATOM     18   O  A00 X   1      15.553  15.452  11.1970  0.00  0.00     0.000 OA
ENDBRANCH 5 16
BRANCH 1 19
ATOM     19  O4  A00 X   2      13.139  12.278  11.5890  0.00  0.00     0.000 O
BRANCH 19 23
ATOM     20  C1  A00 X   2      12.856   8.436  13.4670  0.00  0.00     0.000 C
ATOM     21  C2  A00 X   2      12.115   8.631  12.1220  0.00  0.00     0.000 C
ATOM     22  C3  A00 X   2      12.650   9.870  11.3740  0.00  0.00     0.000 C
ATOM     23  C4  A00 X   2      12.587  11.120  12.2800  0.00  0.00     0.000 C
ATOM     24  C5  A00 X   2      13.346  10.792  13.5950  0.00  0.00     0.000 C
ATOM     25  O5  A00 X   2      12.703   9.660  14.2350  0.00  0.00     0.000 O
ATOM     26   O  A00 X   2      11.980   9.967  10.1050  0.00  0.00     0.000 O
ATOM     28  HD  A00 X   2      11.193   9.888  10.4580  0.00  0.00     0.000 HD
BRANCH 21 30
ATOM     28   N  A00 X   2      11.999   8.042  10.7840  0.00  0.00     0.000 N
ATOM     30  HD  A00 X   2      11.522   7.553  11.3150  0.00  0.00     0.000 HD
ATOM     30   O  A00 X   2      10.174   6.583  10.7860  0.00  0.00     0.000 OA
ATOM     31   S  A00 X   2      11.587   6.521  10.6570  0.00  0.00     0.000 S
ATOM     32   O  A00 X   2      12.059   6.149   9.3600  0.00  0.00     0.000 OA
ATOM     33   O  A00 X   2      12.301   5.803  11.6710  0.00  0.00     0.000 OA
ENDBRANCH 21 30
BRANCH 24 34
ATOM     34   C  A00 X   2      13.629  11.952  14.5780  0.00  0.00     0.000 C
ATOM     35   O  A00 X   2      11.048  14.065  16.0390  0.00  0.00     0.000 OA
ATOM     36   O  A00 X   2      12.484  12.819  14.7070  0.00  0.00     0.000 O
ATOM     37   O  A00 X   2      11.078  11.706  16.2090  0.00  0.00     0.000 OA
ATOM     38   S  A00 X   2      11.864  12.900  16.1500  0.00  0.00     0.000 S
ATOM     39   O  A00 X   2      12.965  13.016  17.0580  0.00  0.00     0.000 OA
ENDBRANCH 24 34
BRANCH 20 40
ATOM     40  O4  A00 X   3      14.238   8.254  13.1250  0.00  0.00     0.000 O
BRANCH 40 44
ATOM     41  C1  A00 X   3      17.842   8.600  13.2540  0.00  0.00     0.000 C
ATOM     42  C2  A00 X   3      17.088   7.557  12.4010  0.00  0.00     0.000 C
ATOM     43  C3  A00 X   3      16.059   6.777  13.2590  0.00  0.00     0.000 C
ATOM     44  C4  A00 X   3      15.130   7.654  14.0890  0.00  0.00     0.000 C
ATOM     45  C5  A00 X   3      15.961   8.671  14.9210  0.00  0.00     0.000 C
ATOM     46  O5  A00 X   3      16.925   9.377  14.0730  0.00  0.00     0.000 O
ATOM     47   O  A00 X   3      15.363   5.725  12.5940  0.00  0.00     0.000 O
ATOM     49  HD  A00 X   3      14.698   6.021  13.0620  0.00  0.00     0.000 HD
BRANCH 42 49
ATOM     49   O  A00 X   3      16.442   8.276  11.3270  0.00  0.00     0.000 O
ATOM     50   O  A00 X   3      14.957   7.737   9.5280  0.00  0.00     0.000 OA
ATOM     51   O  A00 X   3      16.739   6.263  10.0180  0.00  0.00     0.000 OA
ATOM     52   O  A00 X   3      17.251   8.391   9.1260  0.00  0.00     0.000 OA
ATOM     53   S  A00 X   3      16.331   7.641   9.9110  0.00  0.00     0.000 S
ENDBRANCH 42 49
BRANCH 45 54
ATOM     54   C  A00 X   3      16.606   8.010  16.1450  0.00  0.00     0.000 C
ATOM     55   O  A00 X   3      16.614   6.802  16.2630  0.00  0.00     0.000 OA
ATOM     56   O  A00 X   3      17.119   8.686  17.0230  0.00  0.00     0.000 OA
ENDBRANCH 45 54
BRANCH 41 57
ATOM     57  O4  A00 X   4      18.927   7.999  13.9960  0.00  0.00     0.000 O
BRANCH 57 61
ATOM     58  C1  A00 X   4      22.752   9.478  15.3450  0.00  0.00     0.000 C
ATOM     59  C2  A00 X   4      21.464  10.098  15.9430  0.00  0.00     0.000 C
ATOM     60  C3  A00 X   4      20.196   9.265  15.6680  0.00  0.00     0.000 C
ATOM     61  C4  A00 X   4      20.093   8.850  14.1850  0.00  0.00     0.000 C
ATOM     62  C5  A00 X   4      21.388   8.064  13.8610  0.00  0.00     0.000 C
ATOM     63  O5  A00 X   4      22.531   8.943  14.0200  0.00  0.00     0.000 O
BRANCH 59 66
ATOM     64   N  A00 X   4      20.768  11.034  16.8450  0.00  0.00     0.000 N
ATOM     66  HD  A00 X   4      20.137  11.520  16.5060  0.00  0.00     0.000 HD
ATOM     66   O  A00 X   4      22.796  12.332  16.8990  0.00  0.00     0.000 OA
ATOM     67   S  A00 X   4      21.651  12.051  17.7070  0.00  0.00     0.000 S
ATOM     68   O  A00 X   4      20.722  13.134  17.8590  0.00  0.00     0.000 OA
ATOM     69   O  A00 X   4      21.845  11.272  18.8970  0.00  0.00     0.000 OA
ENDBRANCH 59 66
BRANCH 62 70
ATOM     70   C  A00 X   4      21.423   7.464  12.4360  0.00  0.00     0.000 C
ATOM     71   O  A00 X   4      21.660   9.188   9.2610  0.00  0.00     0.000 OA
ATOM     72   O  A00 X   4      20.188   7.498   9.9830  0.00  0.00     0.000 OA
ATOM     73   O  A00 X   4      21.771   8.493  11.4960  0.00  0.00     0.000 O
ATOM     74   O  A00 X   4      19.872   9.784  10.7660  0.00  0.00     0.000 OA
ATOM     75   S  A00 X   4      20.777   8.776  10.3160  0.00  0.00     0.000 S
ENDBRANCH 62 70
ENDBRANCH 57 61
ENDBRANCH 41 57
ENDBRANCH 40 44
ENDBRANCH 20 40
ENDBRANCH 19 23
ENDBRANCH 1 19
TORSDOF 14
ENDMDL
MODEL 32
REMARK VINA RESULT:      -4.6      4.820      9.205
ROOT
ATOM      1  C1  A00 X   1      14.513  19.540  12.8820  0.00  0.00     0.000 C
ATOM      2  C2  A00 X   1      13.351  19.208  13.8570  0.00  0.00     0.000 C
ATOM      3  C3  A00 X   1      13.596  19.558  15.3620  0.00  0.00     0.000 C
ATOM      4  C4  A00 X   1      15.070  19.842  15.7510  0.00  0.00     0.000 C
ATOM      5  C5  A00 X   1      16.058  19.215  14.7680  0.00  0.00     0.000 C
ATOM      6  O5  A00 X   1      15.780  19.863  13.5060  0.00  0.00     0.000 O
ATOM      7   O  A00 X   1      13.171  18.457  16.1620  0.00  0.00     0.000 O
ATOM      9  HD  A00 X   1      13.913  18.747  16.5000  0.00  0.00     0.000 HD
ATOM      9   O  A00 X   1      15.320  21.243  15.8600  0.00  0.00     0.000 O
ATOM     11  HD  A00 X   1      16.063  21.532  16.1980  0.00  0.00     0.000 HD
ENDROOT
BRANCH 2 11
ATOM     11   O  A00 X   1      12.179  19.908  13.3970  0.00  0.00     0.000 O
ATOM     12   O  A00 X   1      10.221  20.144  14.7670  0.00  0.00     0.000 OA
ATOM     13   O  A00 X   1      10.914  17.924  14.0520  0.00  0.00     0.000 OA
ATOM     14   O  A00 X   1      10.076  19.492  12.4720  0.00  0.00     0.000 OA
ATOM     15   S  A00 X   1      10.765  19.315  13.7220  0.00  0.00     0.000 S
ENDBRANCH 2 11
BRANCH 5 16
ATOM     16   C  A00 X   1      16.015  17.685  14.6930  0.00  0.00     0.000 C
ATOM     17   O  A00 X   1      15.427  17.077  15.5640  0.00  0.00     0.000 OA
ATOM     18   O  A00 X   1      16.542  17.061  13.7930  0.00  0.00     0.000 OA
ENDBRANCH 5 16
BRANCH 1 19
ATOM     19  O4  A00 X   2      14.674  18.546  11.8410  0.00  0.00     0.000 O
BRANCH 19 23
ATOM     20  C1  A00 X   2      12.525  17.889   8.1920  0.00  0.00     0.000 C
ATOM     21  C2  A00 X   2      13.219  19.260   8.3760  0.00  0.00     0.000 C
ATOM     22  C3  A00 X   2      14.280  19.194   9.4940  0.00  0.00     0.000 C
ATOM     23  C4  A00 X   2      13.659  18.655  10.8020  0.00  0.00     0.000 C
ATOM     24  C5  A00 X   2      12.984  17.294  10.4820  0.00  0.00     0.000 C
ATOM     25  O5  A00 X   2      11.961  17.505   9.4740  0.00  0.00     0.000 O
ATOM     26   O  A00 X   2      14.941  20.468   9.5790  0.00  0.00     0.000 O
ATOM     28  HD  A00 X   2      14.196  20.909   9.6120  0.00  0.00     0.000 HD
BRANCH 21 30
ATOM     28   N  A00 X   2      12.115  19.867   7.6250  0.00  0.00     0.000 N
ATOM     30  HD  A00 X   2      12.752  20.453   7.6520  0.00  0.00     0.000 HD
ATOM     30   O  A00 X   2      12.951  21.719   6.4720  0.00  0.00     0.000 OA
ATOM     31   S  A00 X   2      12.041  21.443   7.5260  0.00  0.00     0.000 S
ATOM     32   O  A00 X   2      10.667  21.699   7.2210  0.00  0.00     0.000 OA
ATOM     33   O  A00 X   2      12.368  21.964   8.8200  0.00  0.00     0.000 OA
ENDBRANCH 21 30
BRANCH 24 34
ATOM     34   C  A00 X   2      12.485  16.434  11.6670  0.00  0.00     0.000 C
ATOM     35   O  A00 X   2      13.521  12.996  12.2720  0.00  0.00     0.000 OA
ATOM     36   O  A00 X   2      12.774  15.037  11.4580  0.00  0.00     0.000 O
ATOM     37   O  A00 X   2      15.023  14.811  12.0590  0.00  0.00     0.000 OA
ATOM     38   S  A00 X   2      13.736  14.385  12.5170  0.00  0.00     0.000 S
ATOM     39   O  A00 X   2      13.300  14.849  13.8000  0.00  0.00     0.000 OA
ENDBRANCH 24 34
BRANCH 20 40
ATOM     40  O4  A00 X   3      13.569  16.971   7.8340  0.00  0.00     0.000 O
BRANCH 40 44
ATOM     41  C1  A00 X   3      15.533  13.930   7.7220  0.00  0.00     0.000 C
ATOM     42  C2  A00 X   3      15.710  15.127   6.7630  0.00  0.00     0.000 C
ATOM     43  C3  A00 X   3      14.353  15.545   6.1400  0.00  0.00     0.000 C
ATOM     44  C4  A00 X   3      13.229  15.747   7.1480  0.00  0.00     0.000 C
ATOM     45  C5  A00 X   3      13.110  14.501   8.0710  0.00  0.00     0.000 C
ATOM     46  O5  A00 X   3      14.415  14.137   8.6280  0.00  0.00     0.000 O
ATOM     47   O  A00 X   3      14.408  16.588   5.1700  0.00  0.00     0.000 O
ATOM     49  HD  A00 X   3      13.675  16.836   5.5590  0.00  0.00     0.000 HD
BRANCH 42 49
ATOM     49   O  A00 X   3      16.291  16.203   7.5330  0.00  0.00     0.000 O
ATOM     50   O  A00 X   3      16.885  18.489   7.1410  0.00  0.00     0.000 OA
ATOM     51   O  A00 X   3      17.357  16.885   5.4700  0.00  0.00     0.000 OA
ATOM     52   O  A00 X   3      18.565  16.787   7.4990  0.00  0.00     0.000 OA
ATOM     53   S  A00 X   3      17.336  17.157   6.8860  0.00  0.00     0.000 S
ENDBRANCH 42 49
BRANCH 45 54
ATOM     54   C  A00 X   3      12.410  13.335   7.3630  0.00  0.00     0.000 C
ATOM     55   O  A00 X   3      11.990  12.389   7.9960  0.00  0.00     0.000 OA
ATOM     56   O  A00 X   3      12.264  13.337   6.1500  0.00  0.00     0.000 OA
ENDBRANCH 45 54
BRANCH 41 57
ATOM     57  O4  A00 X   4      15.483  12.675   7.0050  0.00  0.00     0.000 O
BRANCH 57 61
ATOM     58  C1  A00 X   4      16.345   8.620   8.2110  0.00  0.00     0.000 C
ATOM     59  C2  A00 X   4      14.871   9.095   8.2070  0.00  0.00     0.000 C
ATOM     60  C3  A00 X   4      14.650  10.409   7.4300  0.00  0.00     0.000 C
ATOM     61  C4  A00 X   4      15.682  11.488   7.8240  0.00  0.00     0.000 C
ATOM     62  C5  A00 X   4      17.078  10.875   7.5490  0.00  0.00     0.000 C
ATOM     63  O5  A00 X   4      17.267   9.718   8.4030  0.00  0.00     0.000 O
BRANCH 59 66
ATOM     64   N  A00 X   4      13.965   9.366   9.3380  0.00  0.00     0.000 N
ATOM     66  HD  A00 X   4      14.289   9.796  10.0150  0.00  0.00     0.000 HD
ATOM     66   O  A00 X   4      14.029   7.008   9.8230  0.00  0.00     0.000 OA
ATOM     67   S  A00 X   4      13.167   8.137   9.9800  0.00  0.00     0.000 S
ATOM     68   O  A00 X   4      13.005   8.608  11.3240  0.00  0.00     0.000 OA
ATOM     69   O  A00 X   4      11.966   8.177   9.1940  0.00  0.00     0.000 OA
ENDBRANCH 59 66
BRANCH 62 70
ATOM     70   C  A00 X   4      18.254  11.854   7.7810  0.00  0.00     0.000 C
ATOM     71   O  A00 X   4      19.896  12.721  10.8890  0.00  0.00     0.000 OA
ATOM     72   O  A00 X   4      19.040  14.087   9.1730  0.00  0.00     0.000 OA
ATOM     73   O  A00 X   4      18.741  11.701   9.1240  0.00  0.00     0.000 O
ATOM     74   O  A00 X   4      17.507  13.007  10.7290  0.00  0.00     0.000 OA
ATOM     75   S  A00 X   4      18.760  12.969  10.0470  0.00  0.00     0.000 S
ENDBRANCH 62 70
ENDBRANCH 57 61
ENDBRANCH 41 57
ENDBRANCH 40 44
ENDBRANCH 20 40
ENDBRANCH 19 23
ENDBRANCH 1 19
TORSDOF 14
ENDMDL
MODEL 33
REMARK VINA RESULT:      -4.6      3.595      9.553
ROOT
ATOM      1  C1  A00 X   1      18.271  15.971   4.2590  0.00  0.00     0.000 C
ATOM      2  C2  A00 X   1      18.888  14.961   3.2560  0.00  0.00     0.000 C
ATOM      3  C3  A00 X   1      19.096  15.481   1.7960  0.00  0.00     0.000 C
ATOM      4  C4  A00 X   1      18.338  16.784   1.4360  0.00  0.00     0.000 C
ATOM      5  C5  A00 X   1      17.134  17.022   2.3480  0.00  0.00     0.000 C
ATOM      6  O5  A00 X   1      17.698  17.166   3.6710  0.00  0.00     0.000 O
ATOM      7   O  A00 X   1      18.640  14.483   0.8850  0.00  0.00     0.000 O
ATOM      9  HD  A00 X   1      18.376  15.249   0.5780  0.00  0.00     0.000 HD
ATOM      9   O  A00 X   1      19.203  17.919   1.4750  0.00  0.00     0.000 O
ATOM     11  HD  A00 X   1      18.939  18.685   1.1670  0.00  0.00     0.000 HD
ENDROOT
BRANCH 2 11
ATOM     11   O  A00 X   1      20.158  14.536   3.7880  0.00  0.00     0.000 O
ATOM     12   O  A00 X   1      21.340  12.645   2.8970  0.00  0.00     0.000 OA
ATOM     13   O  A00 X   1      19.178  12.305   3.9580  0.00  0.00     0.000 OA
ATOM     14   O  A00 X   1      21.065  12.958   5.2510  0.00  0.00     0.000 OA
ATOM     15   S  A00 X   1      20.434  13.003   3.9590  0.00  0.00     0.000 S
ENDBRANCH 2 11
BRANCH 5 16
ATOM     16   C  A00 X   1      16.036  15.956   2.2620  0.00  0.00     0.000 C
ATOM     17   O  A00 X   1      15.212  15.898   3.1510  0.00  0.00     0.000 OA
ATOM     18   O  A00 X   1      15.957  15.175   1.3340  0.00  0.00     0.000 OA
ENDBRANCH 5 16
BRANCH 1 19
ATOM     19  O4  A00 X   2      17.352  15.348   5.1900  0.00  0.00     0.000 O
BRANCH 19 23
ATOM     20  C1  A00 X   2      16.215  16.460   9.1690  0.00  0.00     0.000 C
ATOM     21  C2  A00 X   2      15.422  17.088   7.9980  0.00  0.00     0.000 C
ATOM     22  C3  A00 X   2      15.640  16.289   6.6960  0.00  0.00     0.000 C
ATOM     23  C4  A00 X   2      17.148  16.146   6.3910  0.00  0.00     0.000 C
ATOM     24  C5  A00 X   2      17.828  15.525   7.6420  0.00  0.00     0.000 C
ATOM     25  O5  A00 X   2      17.613  16.405   8.7760  0.00  0.00     0.000 O
ATOM     26   O  A00 X   2      14.831  16.869   5.6580  0.00  0.00     0.000 O
ATOM     28  HD  A00 X   2      15.117  17.671   5.8150  0.00  0.00     0.000 HD
BRANCH 21 30
ATOM     28   N  A00 X   2      14.219  17.276   8.8140  0.00  0.00     0.000 N
ATOM     30  HD  A00 X   2      14.421  18.051   8.4840  0.00  0.00     0.000 HD
ATOM     30   O  A00 X   2      13.264  19.330   8.2400  0.00  0.00     0.000 OA
ATOM     31   S  A00 X   2      13.891  18.723   9.3600  0.00  0.00     0.000 S
ATOM     32   O  A00 X   2      13.029  18.477  10.4750  0.00  0.00     0.000 OA
ATOM     33   O  A00 X   2      15.126  19.298   9.8040  0.00  0.00     0.000 OA
ENDBRANCH 21 30
BRANCH 24 34
ATOM     34   C  A00 X   2      19.299  15.065   7.5150  0.00  0.00     0.000 C
ATOM     35   O  A00 X   2      21.953  16.055   9.8030  0.00  0.00     0.000 OA
ATOM     36   O  A00 X   2      20.173  15.878   8.3230  0.00  0.00     0.000 O
ATOM     37   O  A00 X   2      19.944  15.008  10.4830  0.00  0.00     0.000 OA
ATOM     38   S  A00 X   2      20.941  15.110   9.4610  0.00  0.00     0.000 S
ATOM     39   O  A00 X   2      21.419  13.893   8.8770  0.00  0.00     0.000 OA
ENDBRANCH 24 34
BRANCH 20 40
ATOM     40  O4  A00 X   3      15.705  15.126   9.3120  0.00  0.00     0.000 O
BRANCH 40 44
ATOM     41  C1  A00 X   3      15.163  11.594   9.9060  0.00  0.00     0.000 C
ATOM     42  C2  A00 X   3      14.076  12.684  10.0300  0.00  0.00     0.000 C
ATOM     43  C3  A00 X   3      14.563  13.854  10.9230  0.00  0.00     0.000 C
ATOM     44  C4  A00 X   3      15.929  14.413  10.5470  0.00  0.00     0.000 C
ATOM     45  C5  A00 X   3      16.967  13.259  10.4480  0.00  0.00     0.000 C
ATOM     46  O5  A00 X   3      16.462  12.173   9.6040  0.00  0.00     0.000 O
ATOM     47   O  A00 X   3      13.607  14.881  11.1790  0.00  0.00     0.000 O
ATOM     49  HD  A00 X   3      14.300  15.392  11.0900  0.00  0.00     0.000 HD
BRANCH 42 49
ATOM     49   O  A00 X   3      13.774  13.133   8.6910  0.00  0.00     0.000 O
ATOM     50   O  A00 X   3      12.469  14.880   7.7030  0.00  0.00     0.000 OA
ATOM     51   O  A00 X   3      11.584  13.702   9.5520  0.00  0.00     0.000 OA
ATOM     52   O  A00 X   3      11.834  12.556   7.5000  0.00  0.00     0.000 OA
ATOM     53   S  A00 X   3      12.335  13.600   8.3250  0.00  0.00     0.000 S
ENDBRANCH 42 49
BRANCH 45 54
ATOM     54   C  A00 X   3      17.423  12.785  11.8330  0.00  0.00     0.000 C
ATOM     55   O  A00 X   3      16.845  13.155  12.8350  0.00  0.00     0.000 OA
ATOM     56   O  A00 X   3      18.374  12.029  11.9530  0.00  0.00     0.000 OA
ENDBRANCH 45 54
BRANCH 41 57
ATOM     57  O4  A00 X   4      15.166  10.711  11.0500  0.00  0.00     0.000 O
BRANCH 57 61
ATOM     58  C1  A00 X   4      16.369   6.583  11.4430  0.00  0.00     0.000 C
ATOM     59  C2  A00 X   4      17.259   7.539  10.6090  0.00  0.00     0.000 C
ATOM     60  C3  A00 X   4      16.938   9.031  10.8340  0.00  0.00     0.000 C
ATOM     61  C4  A00 X   4      15.422   9.310  10.7490  0.00  0.00     0.000 C
ATOM     62  C5  A00 X   4      14.752   8.402  11.8100  0.00  0.00     0.000 C
ATOM     63  O5  A00 X   4      14.989   7.013  11.4680  0.00  0.00     0.000 O
BRANCH 59 66
ATOM     64   N  A00 X   4      17.028   7.288   9.1750  0.00  0.00     0.000 N
ATOM     66  HD  A00 X   4      16.255   6.972   8.9440  0.00  0.00     0.000 HD
ATOM     66   O  A00 X   4      18.585   5.459   9.3470  0.00  0.00     0.000 OA
ATOM     67   S  A00 X   4      18.088   6.390   8.3830  0.00  0.00     0.000 S
ATOM     68   O  A00 X   4      17.247   5.834   7.3650  0.00  0.00     0.000 OA
ATOM     69   O  A00 X   4      18.983   7.410   7.9140  0.00  0.00     0.000 OA
ENDBRANCH 59 66
BRANCH 62 70
ATOM     70   C  A00 X   4      13.227   8.619  11.9560  0.00  0.00     0.000 C
ATOM     71   O  A00 X   4      10.554   6.205  11.5930  0.00  0.00     0.000 OA
ATOM     72   O  A00 X   4      10.816   8.354  10.6670  0.00  0.00     0.000 OA
ATOM     73   O  A00 X   4      12.565   7.344  11.9730  0.00  0.00     0.000 O
ATOM     74   O  A00 X   4      12.104   6.491   9.7680  0.00  0.00     0.000 OA
ATOM     75   S  A00 X   4      11.456   7.078  10.8970  0.00  0.00     0.000 S
ENDBRANCH 62 70
ENDBRANCH 57 61
ENDBRANCH 41 57
ENDBRANCH 40 44
ENDBRANCH 20 40
ENDBRANCH 19 23
ENDBRANCH 1 19
TORSDOF 14
ENDMDL
MODEL 34
REMARK VINA RESULT:      -4.4      3.175      6.988
ROOT
ATOM      1  C1  A00 X   1      15.215  13.864   9.8000  0.00  0.00     0.000 C
ATOM      2  C2  A00 X   1      14.655  14.046   8.3640  0.00  0.00     0.000 C
ATOM      3  C3  A00 X   1      15.714  14.287   7.2380  0.00  0.00     0.000 C
ATOM      4  C4  A00 X   1      17.132  14.679   7.7270  0.00  0.00     0.000 C
ATOM      5  C5  A00 X   1      17.112  15.280   9.1330  0.00  0.00     0.000 C
ATOM      6  O5  A00 X   1      16.609  14.221   9.9780  0.00  0.00     0.000 O
ATOM      7   O  A00 X   1      15.263  15.355   6.4080  0.00  0.00     0.000 O
ATOM      9  HD  A00 X   1      16.113  15.467   6.5280  0.00  0.00     0.000 HD
ATOM      9   O  A00 X   1      18.023  13.564   7.6920  0.00  0.00     0.000 O
ATOM     11  HD  A00 X   1      18.873  13.676   7.8120  0.00  0.00     0.000 HD
ENDROOT
BRANCH 2 11
ATOM     11   O  A00 X   1      13.887  12.870   8.0410  0.00  0.00     0.000 O
ATOM     12   O  A00 X   1      13.041  12.474   5.8290  0.00  0.00     0.000 OA
ATOM     13   O  A00 X   1      12.231  14.391   7.0870  0.00  0.00     0.000 OA
ATOM     14   O  A00 X   1      11.673  12.181   7.7660  0.00  0.00     0.000 OA
ATOM     15   S  A00 X   1      12.639  13.014   7.1030  0.00  0.00     0.000 S
ENDBRANCH 2 11
BRANCH 5 16
ATOM     16   C  A00 X   1      16.333  16.593   9.2660  0.00  0.00     0.000 C
ATOM     17   O  A00 X   1      16.069  17.216   8.2580  0.00  0.00     0.000 OA
ATOM     18   O  A00 X   1      15.966  17.027  10.3390  0.00  0.00     0.000 OA
ENDBRANCH 5 16
BRANCH 1 19
ATOM     19  O4  A00 X   2      14.379  14.479  10.8110  0.00  0.00     0.000 O
BRANCH 19 23
ATOM     20  C1  A00 X   2      13.990  10.857  13.0680  0.00  0.00     0.000 C
ATOM     21  C2  A00 X   2      12.725  11.394  12.3550  0.00  0.00     0.000 C
ATOM     22  C3  A00 X   2      13.103  12.416  11.2630  0.00  0.00     0.000 C
ATOM     23  C4  A00 X   2      13.983  13.542  11.8530  0.00  0.00     0.000 C
ATOM     24  C5  A00 X   2      15.199  12.876  12.5510  0.00  0.00     0.000 C
ATOM     25  O5  A00 X   2      14.713  11.998  13.6000  0.00  0.00     0.000 O
ATOM     26   O  A00 X   2      11.904  12.832  10.5860  0.00  0.00     0.000 O
ATOM     28  HD  A00 X   2      11.488  13.009  11.3250  0.00  0.00     0.000 HD
BRANCH 21 30
ATOM     28   N  A00 X   2      11.548  11.334  11.4830  0.00  0.00     0.000 N
ATOM     30  HD  A00 X   2      11.414  10.767  12.1240  0.00  0.00     0.000 HD
ATOM     30   O  A00 X   2       9.834  10.257  12.6490  0.00  0.00     0.000 OA
ATOM     31   S  A00 X   2      10.650  10.034  11.5090  0.00  0.00     0.000 S
ATOM     32   O  A00 X   2       9.961  10.073  10.2560  0.00  0.00     0.000 OA
ATOM     33   O  A00 X   2      11.536   8.909  11.5550  0.00  0.00     0.000 OA
ENDBRANCH 21 30
BRANCH 24 34
ATOM     34   C  A00 X   2      16.354  13.790  13.0250  0.00  0.00     0.000 C
ATOM     35   O  A00 X   2      17.768  13.719  16.3800  0.00  0.00     0.000 OA
ATOM     36   O  A00 X   2      16.461  13.794  14.4630  0.00  0.00     0.000 O
ATOM     37   O  A00 X   2      17.627  11.829  14.9650  0.00  0.00     0.000 OA
ATOM     38   S  A00 X   2      17.819  13.246  15.0360  0.00  0.00     0.000 S
ATOM     39   O  A00 X   2      18.857  13.816  14.2310  0.00  0.00     0.000 OA
ENDBRANCH 24 34
BRANCH 20 40
ATOM     40  O4  A00 X   3      14.774  10.227  12.0450  0.00  0.00     0.000 O
BRANCH 40 44
ATOM     41  C1  A00 X   3      17.301   8.730   9.9230  0.00  0.00     0.000 C
ATOM     42  C2  A00 X   3      15.825   8.280   9.9860  0.00  0.00     0.000 C
ATOM     43  C3  A00 X   3      15.382   8.036  11.4520  0.00  0.00     0.000 C
ATOM     44  C4  A00 X   3      15.699   9.179  12.4080  0.00  0.00     0.000 C
ATOM     45  C5  A00 X   3      17.198   9.571  12.2900  0.00  0.00     0.000 C
ATOM     46  O5  A00 X   3      17.575   9.781  10.8900  0.00  0.00     0.000 O
ATOM     47   O  A00 X   3      14.059   7.532  11.6270  0.00  0.00     0.000 O
ATOM     49  HD  A00 X   3      14.062   8.074  12.3020  0.00  0.00     0.000 HD
BRANCH 42 49
ATOM     49   O  A00 X   3      15.039   9.318   9.3620  0.00  0.00     0.000 O
ATOM     50   O  A00 X   3      13.364   9.434   7.6560  0.00  0.00     0.000 OA
ATOM     51   O  A00 X   3      15.227   8.015   7.3320  0.00  0.00     0.000 OA
ATOM     52   O  A00 X   3      15.576  10.353   7.3240  0.00  0.00     0.000 OA
ATOM     53   S  A00 X   3      14.776   9.291   7.8290  0.00  0.00     0.000 S
ENDBRANCH 42 49
BRANCH 45 54
ATOM     54   C  A00 X   3      18.106   8.570  13.0150  0.00  0.00     0.000 C
ATOM     55   O  A00 X   3      19.313   8.646  12.9180  0.00  0.00     0.000 OA
ATOM     56   O  A00 X   3      17.630   7.679  13.7020  0.00  0.00     0.000 OA
ENDBRANCH 45 54
BRANCH 41 57
ATOM     57  O4  A00 X   4      18.206   7.607  10.0040  0.00  0.00     0.000 O
BRANCH 57 61
ATOM     58  C1  A00 X   4      21.770   6.573   7.7970  0.00  0.00     0.000 C
ATOM     59  C2  A00 X   4      21.922   7.349   9.1300  0.00  0.00     0.000 C
ATOM     60  C3  A00 X   4      20.644   7.345   9.9930  0.00  0.00     0.000 C
ATOM     61  C4  A00 X   4      19.392   7.707   9.1650  0.00  0.00     0.000 C
ATOM     62  C5  A00 X   4      19.320   6.677   8.0100  0.00  0.00     0.000 C
ATOM     63  O5  A00 X   4      20.492   6.821   7.1680  0.00  0.00     0.000 O
BRANCH 59 66
ATOM     64   N  A00 X   4      22.613   8.293  10.0260  0.00  0.00     0.000 N
ATOM     66  HD  A00 X   4      22.335   9.114  10.0340  0.00  0.00     0.000 HD
ATOM     66   O  A00 X   4      24.514   8.142   8.5560  0.00  0.00     0.000 OA
ATOM     67   S  A00 X   4      24.206   8.404   9.9270  0.00  0.00     0.000 S
ATOM     68   O  A00 X   4      24.398   9.760  10.3540  0.00  0.00     0.000 OA
ATOM     69   O  A00 X   4      24.589   7.421  10.9000  0.00  0.00     0.000 OA
ENDBRANCH 59 66
BRANCH 62 70
ATOM     70   C  A00 X   4      18.059   6.808   7.1240  0.00  0.00     0.000 C
ATOM     71   O  A00 X   4      16.740   4.459   4.7050  0.00  0.00     0.000 OA
ATOM     72   O  A00 X   4      17.156   6.770   4.5300  0.00  0.00     0.000 OA
ATOM     73   O  A00 X   4      17.781   5.543   6.5020  0.00  0.00     0.000 O
ATOM     74   O  A00 X   4      19.021   5.203   4.4640  0.00  0.00     0.000 OA
ATOM     75   S  A00 X   4      17.706   5.496   4.9360  0.00  0.00     0.000 S
ENDBRANCH 62 70
ENDBRANCH 57 61
ENDBRANCH 41 57
ENDBRANCH 40 44
ENDBRANCH 20 40
ENDBRANCH 19 23
ENDBRANCH 1 19
TORSDOF 14
ENDMDL
MODEL 35
REMARK VINA RESULT:      -4.4      4.745     10.674
ROOT
ATOM      1  C1  A00 X   1      16.975  18.008   2.7540  0.00  0.00     0.000 C
ATOM      2  C2  A00 X   1      18.012  19.083   3.1770  0.00  0.00     0.000 C
ATOM      3  C3  A00 X   1      18.711  19.859   2.0120  0.00  0.00     0.000 C
ATOM      4  C4  A00 X   1      18.567  19.224   0.6050  0.00  0.00     0.000 C
ATOM      5  C5  A00 X   1      18.259  17.728   0.6750  0.00  0.00     0.000 C
ATOM      6  O5  A00 X   1      16.983  17.648   1.3500  0.00  0.00     0.000 O
ATOM      7   O  A00 X   1      20.109  19.929   2.2840  0.00  0.00     0.000 O
ATOM      9  HD  A00 X   1      20.021  19.761   1.4390  0.00  0.00     0.000 HD
ATOM      9   O  A00 X   1      17.566  19.887  -0.1670  0.00  0.00     0.000 O
ATOM     11  HD  A00 X   1      17.479  19.719  -1.0120  0.00  0.00     0.000 HD
ENDROOT
BRANCH 2 11
ATOM     11   O  A00 X   1      17.340  20.027   4.0330  0.00  0.00     0.000 O
ATOM     12   O  A00 X   1      18.387  22.070   4.7380  0.00  0.00     0.000 OA
ATOM     13   O  A00 X   1      19.332  19.943   5.4450  0.00  0.00     0.000 OA
ATOM     14   O  A00 X   1      17.222  20.660   6.2770  0.00  0.00     0.000 OA
ATOM     15   S  A00 X   1      18.152  20.719   5.1810  0.00  0.00     0.000 S
ENDBRANCH 2 11
BRANCH 5 16
ATOM     16   C  A00 X   1      19.350  16.871   1.3230  0.00  0.00     0.000 C
ATOM     17   O  A00 X   1      20.455  17.352   1.4720  0.00  0.00     0.000 OA
ATOM     18   O  A00 X   1      19.149  15.733   1.6990  0.00  0.00     0.000 OA
ENDBRANCH 5 16
BRANCH 1 19
ATOM     19  O4  A00 X   2      17.008  16.833   3.6010  0.00  0.00     0.000 O
BRANCH 19 23
ATOM     20  C1  A00 X   2      16.191  16.349   7.7800  0.00  0.00     0.000 C
ATOM     21  C2  A00 X   2      15.105  17.034   6.9140  0.00  0.00     0.000 C
ATOM     22  C3  A00 X   2      15.338  16.750   5.4150  0.00  0.00     0.000 C
ATOM     23  C4  A00 X   2      16.774  17.148   5.0030  0.00  0.00     0.000 C
ATOM     24  C5  A00 X   2      17.760  16.415   5.9520  0.00  0.00     0.000 C
ATOM     25  O5  A00 X   2      17.485  16.822   7.3180  0.00  0.00     0.000 O
ATOM     26   O  A00 X   2      14.270  17.347   4.6610  0.00  0.00     0.000 O
ATOM     28  HD  A00 X   2      14.356  18.115   5.0510  0.00  0.00     0.000 HD
BRANCH 21 30
ATOM     28   N  A00 X   2      14.781  17.905   8.0480  0.00  0.00     0.000 N
ATOM     30  HD  A00 X   2      14.116  17.954   7.4960  0.00  0.00     0.000 HD
ATOM     30   O  A00 X   2      12.494  18.377   7.9720  0.00  0.00     0.000 OA
ATOM     31   S  A00 X   2      13.729  19.065   7.8360  0.00  0.00     0.000 S
ATOM     32   O  A00 X   2      14.025  19.987   8.8880  0.00  0.00     0.000 OA
ATOM     33   O  A00 X   2      14.004  19.659   6.5620  0.00  0.00     0.000 OA
ENDBRANCH 21 30
BRANCH 24 34
ATOM     34   C  A00 X   2      19.268  16.461   5.6090  0.00  0.00     0.000 C
ATOM     35   O  A00 X   2      21.500  13.592   5.8240  0.00  0.00     0.000 OA
ATOM     36   O  A00 X   2      19.956  15.301   6.1170  0.00  0.00     0.000 O
ATOM     37   O  A00 X   2      19.509  13.625   4.5470  0.00  0.00     0.000 OA
ATOM     38   S  A00 X   2      20.623  14.385   5.0260  0.00  0.00     0.000 S
ATOM     39   O  A00 X   2      21.273  15.265   4.1010  0.00  0.00     0.000 OA
ENDBRANCH 24 34
BRANCH 20 40
ATOM     40  O4  A00 X   3      16.070  14.944   7.5140  0.00  0.00     0.000 O
BRANCH 40 44
ATOM     41  C1  A00 X   3      15.814  11.331   7.4500  0.00  0.00     0.000 C
ATOM     42  C2  A00 X   3      14.937  12.261   8.3160  0.00  0.00     0.000 C
ATOM     43  C3  A00 X   3      15.810  13.254   9.1250  0.00  0.00     0.000 C
ATOM     44  C4  A00 X   3      16.843  14.009   8.2960  0.00  0.00     0.000 C
ATOM     45  C5  A00 X   3      17.687  13.008   7.4580  0.00  0.00     0.000 C
ATOM     46  O5  A00 X   3      16.823  12.084   6.7210  0.00  0.00     0.000 O
ATOM     47   O  A00 X   3      15.110  14.107  10.0290  0.00  0.00     0.000 O
ATOM     49  HD  A00 X   3      15.686  14.689   9.7480  0.00  0.00     0.000 HD
BRANCH 42 49
ATOM     49   O  A00 X   3      14.041  12.954   7.4200  0.00  0.00     0.000 O
ATOM     50   O  A00 X   3      12.320  14.605   7.6250  0.00  0.00     0.000 OA
ATOM     51   O  A00 X   3      12.430  12.868   9.2250  0.00  0.00     0.000 OA
ATOM     52   O  A00 X   3      11.817  12.322   7.0080  0.00  0.00     0.000 OA
ATOM     53   S  A00 X   3      12.562  13.212   7.8310  0.00  0.00     0.000 S
ENDBRANCH 42 49
BRANCH 45 54
ATOM     54   C  A00 X   3      18.739  12.295   8.3160  0.00  0.00     0.000 C
ATOM     55   O  A00 X   3      18.683  12.341   9.5280  0.00  0.00     0.000 OA
ATOM     56   O  A00 X   3      19.651  11.671   7.7970  0.00  0.00     0.000 OA
ENDBRANCH 45 54
BRANCH 41 57
ATOM     57  O4  A00 X   4      16.345  10.229   8.2190  0.00  0.00     0.000 O
BRANCH 57 61
ATOM     58  C1  A00 X   4      17.435   6.202   7.1080  0.00  0.00     0.000 C
ATOM     59  C2  A00 X   4      17.969   7.378   6.2510  0.00  0.00     0.000 C
ATOM     60  C3  A00 X   4      17.822   8.752   6.9350  0.00  0.00     0.000 C
ATOM     61  C4  A00 X   4      16.406   8.956   7.5140  0.00  0.00     0.000 C
ATOM     62  C5  A00 X   4      16.165   7.786   8.5000  0.00  0.00     0.000 C
ATOM     63  O5  A00 X   4      16.193   6.533   7.7690  0.00  0.00     0.000 O
BRANCH 59 66
ATOM     64   N  A00 X   4      16.966   6.432   5.7290  0.00  0.00     0.000 N
ATOM     66  HD  A00 X   4      16.761   5.752   6.2250  0.00  0.00     0.000 HD
ATOM     66   O  A00 X   4      18.612   5.736   4.1140  0.00  0.00     0.000 OA
ATOM     67   S  A00 X   4      17.193   5.818   4.2690  0.00  0.00     0.000 S
ATOM     68   O  A00 X   4      16.514   4.562   4.4090  0.00  0.00     0.000 OA
ATOM     69   O  A00 X   4      16.487   6.783   3.4760  0.00  0.00     0.000 OA
ENDBRANCH 59 66
BRANCH 62 70
ATOM     70   C  A00 X   4      14.827   7.875   9.2720  0.00  0.00     0.000 C
ATOM     71   O  A00 X   4      14.293   8.233  12.8350  0.00  0.00     0.000 OA
ATOM     72   O  A00 X   4      13.347   6.734  11.2850  0.00  0.00     0.000 OA
ATOM     73   O  A00 X   4      15.089   8.259  10.6320  0.00  0.00     0.000 O
ATOM     74   O  A00 X   4      15.635   6.390  12.0510  0.00  0.00     0.000 OA
ATOM     75   S  A00 X   4      14.580   7.311  11.7730  0.00  0.00     0.000 S
ENDBRANCH 62 70
ENDBRANCH 57 61
ENDBRANCH 41 57
ENDBRANCH 40 44
ENDBRANCH 20 40
ENDBRANCH 19 23
ENDBRANCH 1 19
TORSDOF 14
ENDMDL
MODEL 36
REMARK VINA RESULT:      -4.3      9.457     13.704
ROOT
ATOM      1  C1  A00 X   1       2.827   8.423  16.9970  0.00  0.00     0.000 C
ATOM      2  C2  A00 X   1       2.302   7.749  18.2930  0.00  0.00     0.000 C
ATOM      3  C3  A00 X   1       0.854   7.163  18.2240  0.00  0.00     0.000 C
ATOM      4  C4  A00 X   1      -0.005   7.640  17.0250  0.00  0.00     0.000 C
ATOM      5  C5  A00 X   1       0.492   8.968  16.4520  0.00  0.00     0.000 C
ATOM      6  O5  A00 X   1       1.829   8.687  15.9800  0.00  0.00     0.000 O
ATOM      7   O  A00 X   1       0.149   7.545  19.4030  0.00  0.00     0.000 O
ATOM      9  HD  A00 X   1      -0.400   7.629  18.7390  0.00  0.00     0.000 HD
ATOM      9   O  A00 X   1      -0.051   6.656  15.9920  0.00  0.00     0.000 O
ATOM     11  HD  A00 X   1      -0.600   6.740  15.3270  0.00  0.00     0.000 HD
ENDROOT
BRANCH 2 11
ATOM     11   O  A00 X   1       3.220   6.694  18.6400  0.00  0.00     0.000 O
ATOM     12   O  A00 X   1       2.682   5.037  20.2930  0.00  0.00     0.000 OA
ATOM     13   O  A00 X   1       2.886   7.366  20.9650  0.00  0.00     0.000 OA
ATOM     14   O  A00 X   1       4.802   6.141  20.2660  0.00  0.00     0.000 OA
ATOM     15   S  A00 X   1       3.377   6.291  20.1470  0.00  0.00     0.000 S
ENDBRANCH 2 11
BRANCH 5 16
ATOM     16   C  A00 X   1       0.418  10.157  17.4150  0.00  0.00     0.000 C
ATOM     17   O  A00 X   1      -0.167  10.015  18.4690  0.00  0.00     0.000 OA
ATOM     18   O  A00 X   1       0.929  11.230  17.1650  0.00  0.00     0.000 OA
ENDBRANCH 5 16
BRANCH 1 19
ATOM     19  O4  A00 X   2       3.634   9.597  17.2620  0.00  0.00     0.000 O
BRANCH 19 23
ATOM     20  C1  A00 X   2       6.868  10.264  19.9940  0.00  0.00     0.000 C
ATOM     21  C2  A00 X   2       7.080   9.212  18.8780  0.00  0.00     0.000 C
ATOM     22  C3  A00 X   2       6.043   9.391  17.7500  0.00  0.00     0.000 C
ATOM     23  C4  A00 X   2       4.608   9.377  18.3220  0.00  0.00     0.000 C
ATOM     24  C5  A00 X   2       4.531  10.457  19.4360  0.00  0.00     0.000 C
ATOM     25  O5  A00 X   2       5.501  10.134  20.4670  0.00  0.00     0.000 O
ATOM     26   O  A00 X   2       6.325   8.439  16.7100  0.00  0.00     0.000 O
ATOM     28  HD  A00 X   2       6.364   7.773  17.2610  0.00  0.00     0.000 HD
BRANCH 21 30
ATOM     28   N  A00 X   2       7.802   8.325  19.7950  0.00  0.00     0.000 N
ATOM     30  HD  A00 X   2       8.031   8.096  18.9920  0.00  0.00     0.000 HD
ATOM     30   O  A00 X   2       9.532   7.301  18.6050  0.00  0.00     0.000 OA
ATOM     31   S  A00 X   2       8.323   6.935  19.2520  0.00  0.00     0.000 S
ATOM     32   O  A00 X   2       8.486   6.148  20.4360  0.00  0.00     0.000 OA
ATOM     33   O  A00 X   2       7.286   6.386  18.4290  0.00  0.00     0.000 OA
ENDBRANCH 21 30
BRANCH 24 34
ATOM     34   C  A00 X   2       3.139  10.805  20.0140  0.00  0.00     0.000 C
ATOM     35   O  A00 X   2       2.466  11.302  23.5580  0.00  0.00     0.000 OA
ATOM     36   O  A00 X   2       3.097  10.593  21.4390  0.00  0.00     0.000 O
ATOM     37   O  A00 X   2       4.102  12.502  22.3420  0.00  0.00     0.000 OA
ATOM     38   S  A00 X   2       2.815  11.878  22.3010  0.00  0.00     0.000 S
ATOM     39   O  A00 X   2       1.757  12.583  21.6420  0.00  0.00     0.000 OA
ENDBRANCH 24 34
BRANCH 20 40
ATOM     40  O4  A00 X   3       7.036  11.541  19.3600  0.00  0.00     0.000 O
BRANCH 40 44
ATOM     41  C1  A00 X   3       7.824  14.886  18.2150  0.00  0.00     0.000 C
ATOM     42  C2  A00 X   3       8.870  13.793  18.5250  0.00  0.00     0.000 C
ATOM     43  C3  A00 X   3       8.627  13.174  19.9260  0.00  0.00     0.000 C
ATOM     44  C4  A00 X   3       7.195  12.720  20.1780  0.00  0.00     0.000 C
ATOM     45  C5  A00 X   3       6.205  13.873  19.8500  0.00  0.00     0.000 C
ATOM     46  O5  A00 X   3       6.477  14.433  18.5250  0.00  0.00     0.000 O
ATOM     47   O  A00 X   3       9.587  12.211  20.3560  0.00  0.00     0.000 O
ATOM     49  HD  A00 X   3       8.884  11.816  20.6710  0.00  0.00     0.000 HD
BRANCH 42 49
ATOM     49   O  A00 X   3       8.764  12.799  17.4830  0.00  0.00     0.000 O
ATOM     50   O  A00 X   3       9.759  10.674  17.0080  0.00  0.00     0.000 OA
ATOM     51   O  A00 X   3      11.128  12.417  17.8310  0.00  0.00     0.000 OA
ATOM     52   O  A00 X   3      10.228  12.624  15.6560  0.00  0.00     0.000 OA
ATOM     53   S  A00 X   3      10.036  12.075  16.9540  0.00  0.00     0.000 S
ENDBRANCH 42 49
BRANCH 45 54
ATOM     54   C  A00 X   3       6.179  14.931  20.9590  0.00  0.00     0.000 C
ATOM     55   O  A00 X   3       5.252  15.710  21.0490  0.00  0.00     0.000 OA
ATOM     56   O  A00 X   3       7.089  15.011  21.7690  0.00  0.00     0.000 OA
ENDBRANCH 45 54
BRANCH 41 57
ATOM     57  O4  A00 X   4       8.174  16.148  18.8270  0.00  0.00     0.000 O
BRANCH 57 61
ATOM     58  C1  A00 X   4       7.283  20.256  17.8440  0.00  0.00     0.000 C
ATOM     59  C2  A00 X   4       6.199  19.414  18.5620  0.00  0.00     0.000 C
ATOM     60  C3  A00 X   4       6.742  18.108  19.1750  0.00  0.00     0.000 C
ATOM     61  C4  A00 X   4       7.620  17.326  18.1740  0.00  0.00     0.000 C
ATOM     62  C5  A00 X   4       8.758  18.287  17.7490  0.00  0.00     0.000 C
ATOM     63  O5  A00 X   4       8.184  19.433  17.0680  0.00  0.00     0.000 O
BRANCH 59 66
ATOM     64   N  A00 X   4       4.797  18.963  18.6140  0.00  0.00     0.000 N
ATOM     66  HD  A00 X   4       4.539  18.390  18.0180  0.00  0.00     0.000 HD
ATOM     66   O  A00 X   4       4.164  21.169  17.8870  0.00  0.00     0.000 OA
ATOM     67   S  A00 X   4       3.645  20.072  18.6410  0.00  0.00     0.000 S
ATOM     68   O  A00 X   4       2.574  19.347  18.0200  0.00  0.00     0.000 OA
ATOM     69   O  A00 X   4       3.493  20.245  20.0580  0.00  0.00     0.000 OA
ENDBRANCH 59 66
BRANCH 62 70
ATOM     70   C  A00 X   4       9.815  17.644  16.8210  0.00  0.00     0.000 C
ATOM     71   O  A00 X   4      12.722  19.176  15.3000  0.00  0.00     0.000 OA
ATOM     72   O  A00 X   4      11.024  17.840  14.3630  0.00  0.00     0.000 OA
ATOM     73   O  A00 X   4      10.919  18.550  16.6580  0.00  0.00     0.000 O
ATOM     74   O  A00 X   4      10.559  20.169  14.9110  0.00  0.00     0.000 OA
ATOM     75   S  A00 X   4      11.302  18.985  15.2010  0.00  0.00     0.000 S
ENDBRANCH 62 70
ENDBRANCH 57 61
ENDBRANCH 41 57
ENDBRANCH 40 44
ENDBRANCH 20 40
ENDBRANCH 19 23
ENDBRANCH 1 19
TORSDOF 14
ENDMDL
MODEL 37
REMARK VINA RESULT:      -4.2      5.881     11.133
ROOT
ATOM      1  C1  A00 X   1      10.774   7.582  14.2160  0.00  0.00     0.000 C
ATOM      2  C2  A00 X   1      10.630   8.194  12.7980  0.00  0.00     0.000 C
ATOM      3  C3  A00 X   1      10.647   9.756  12.7180  0.00  0.00     0.000 C
ATOM      4  C4  A00 X   1      10.435  10.496  14.0640  0.00  0.00     0.000 C
ATOM      5  C5  A00 X   1       9.722   9.623  15.0970  0.00  0.00     0.000 C
ATOM      6  O5  A00 X   1      10.618   8.511  15.3180  0.00  0.00     0.000 O
ATOM      7   O  A00 X   1       9.597  10.181  11.8520  0.00  0.00     0.000 O
ATOM      9  HD  A00 X   1       9.605  10.722  12.5280  0.00  0.00     0.000 HD
ATOM      9   O  A00 X   1      11.670  10.967  14.6010  0.00  0.00     0.000 O
ATOM     11  HD  A00 X   1      11.679  11.509  15.2770  0.00  0.00     0.000 HD
ENDROOT
BRANCH 2 11
ATOM     11   O  A00 X   1      11.699   7.671  11.9840  0.00  0.00     0.000 O
ATOM     12   O  A00 X   1      11.721   7.929   9.5970  0.00  0.00     0.000 OA
ATOM     13   O  A00 X   1       9.960   6.611  10.6360  0.00  0.00     0.000 OA
ATOM     14   O  A00 X   1      12.207   5.833  10.6380  0.00  0.00     0.000 OA
ATOM     15   S  A00 X   1      11.347   6.985  10.6200  0.00  0.00     0.000 S
ENDBRANCH 2 11
BRANCH 5 16
ATOM     16   C  A00 X   1       8.300   9.198  14.7160  0.00  0.00     0.000 C
ATOM     17   O  A00 X   1       7.695   8.457  15.4630  0.00  0.00     0.000 OA
ATOM     18   O  A00 X   1       7.756   9.581  13.6990  0.00  0.00     0.000 OA
ENDBRANCH 5 16
BRANCH 1 19
ATOM     19  O4  A00 X   2       9.957   6.400  14.4030  0.00  0.00     0.000 O
BRANCH 19 23
ATOM     20  C1  A00 X   2      12.668   4.486  17.1150  0.00  0.00     0.000 C
ATOM     21  C2  A00 X   2      12.869   4.227  15.6020  0.00  0.00     0.000 C
ATOM     22  C3  A00 X   2      12.131   5.289  14.7600  0.00  0.00     0.000 C
ATOM     23  C4  A00 X   2      10.641   5.363  15.1640  0.00  0.00     0.000 C
ATOM     24  C5  A00 X   2      10.576   5.605  16.6960  0.00  0.00     0.000 C
ATOM     25  O5  A00 X   2      11.239   4.505  17.3720  0.00  0.00     0.000 O
ATOM     26   O  A00 X   2      12.404   5.046  13.3690  0.00  0.00     0.000 O
ATOM     28  HD  A00 X   2      12.196   4.207  13.4230  0.00  0.00     0.000 HD
BRANCH 21 30
ATOM     28   N  A00 X   2      13.514   4.094  14.2920  0.00  0.00     0.000 N
ATOM     30  HD  A00 X   2      13.952   3.587  14.8400  0.00  0.00     0.000 HD
ATOM     30   O  A00 X   2      14.876   2.197  14.3410  0.00  0.00     0.000 OA
ATOM     31   S  A00 X   2      15.016   3.605  14.2320  0.00  0.00     0.000 S
ATOM     32   O  A00 X   2      15.473   4.070  12.9590  0.00  0.00     0.000 OA
ATOM     33   O  A00 X   2      15.720   4.272  15.2870  0.00  0.00     0.000 OA
ENDBRANCH 21 30
BRANCH 24 34
ATOM     34   C  A00 X   2       9.202   5.948  17.3190  0.00  0.00     0.000 C
ATOM     35   O  A00 X   2       7.642   4.036  19.9960  0.00  0.00     0.000 OA
ATOM     36   O  A00 X   2       8.686   4.842  18.0860  0.00  0.00     0.000 O
ATOM     37   O  A00 X   2       9.804   4.983  20.1360  0.00  0.00     0.000 OA
ATOM     38   S  A00 X   2       8.478   5.127  19.6190  0.00  0.00     0.000 S
ATOM     39   O  A00 X   2       7.867   6.419  19.7100  0.00  0.00     0.000 OA
ENDBRANCH 24 34
BRANCH 20 40
ATOM     40  O4  A00 X   3      13.218   5.788  17.3620  0.00  0.00     0.000 O
BRANCH 40 44
ATOM     41  C1  A00 X   3      13.519   9.028  18.9550  0.00  0.00     0.000 C
ATOM     42  C2  A00 X   3      14.522   8.454  17.9300  0.00  0.00     0.000 C
ATOM     43  C3  A00 X   3      14.966   7.023  18.3300  0.00  0.00     0.000 C
ATOM     44  C4  A00 X   3      13.821   6.069  18.6430  0.00  0.00     0.000 C
ATOM     45  C5  A00 X   3      12.860   6.714  19.6820  0.00  0.00     0.000 C
ATOM     46  O5  A00 X   3      12.475   8.066  19.2700  0.00  0.00     0.000 O
ATOM     47   O  A00 X   3      15.961   6.426  17.5010  0.00  0.00     0.000 O
ATOM     49  HD  A00 X   3      15.482   5.716  17.6320  0.00  0.00     0.000 HD
BRANCH 42 49
ATOM     49   O  A00 X   3      13.865   8.463  16.6440  0.00  0.00     0.000 O
ATOM     50   O  A00 X   3      14.397   7.748  14.4220  0.00  0.00     0.000 OA
ATOM     51   O  A00 X   3      16.066   8.824  15.7050  0.00  0.00     0.000 OA
ATOM     52   O  A00 X   3      14.205  10.092  14.9870  0.00  0.00     0.000 OA
ATOM     53   S  A00 X   3      14.668   8.798  15.3530  0.00  0.00     0.000 S
ENDBRANCH 42 49
BRANCH 45 54
ATOM     54   C  A00 X   3      13.438   6.657  21.1010  0.00  0.00     0.000 C
ATOM     55   O  A00 X   3      12.710   6.738  22.0690  0.00  0.00     0.000 OA
ATOM     56   O  A00 X   3      14.639   6.531  21.2830  0.00  0.00     0.000 OA
ENDBRANCH 45 54
BRANCH 41 57
ATOM     57  O4  A00 X   4      14.191   9.567  20.1150  0.00  0.00     0.000 O
BRANCH 57 61
ATOM     58  C1  A00 X   4      12.923  12.360  23.1530  0.00  0.00     0.000 C
ATOM     59  C2  A00 X   4      12.838  10.844  23.4580  0.00  0.00     0.000 C
ATOM     60  C3  A00 X   4      13.637   9.972  22.4690  0.00  0.00     0.000 C
ATOM     61  C4  A00 X   4      13.352  10.360  21.0020  0.00  0.00     0.000 C
ATOM     62  C5  A00 X   4      13.704  11.863  20.8730  0.00  0.00     0.000 C
ATOM     63  O5  A00 X   4      12.830  12.634  21.7370  0.00  0.00     0.000 O
BRANCH 59 66
ATOM     64   N  A00 X   4      11.466  11.321  23.2090  0.00  0.00     0.000 N
ATOM     66  HD  A00 X   4      11.369  12.143  22.9530  0.00  0.00     0.000 HD
ATOM     66   O  A00 X   4      11.101  11.208  25.5870  0.00  0.00     0.000 OA
ATOM     67   S  A00 X   4      10.373  11.121  24.3590  0.00  0.00     0.000 S
ATOM     68   O  A00 X   4       9.499  12.223  24.0810  0.00  0.00     0.000 OA
ATOM     69   O  A00 X   4       9.843   9.840  23.9850  0.00  0.00     0.000 OA
ENDBRANCH 59 66
BRANCH 62 70
ATOM     70   C  A00 X   4      13.586  12.417  19.4330  0.00  0.00     0.000 C
ATOM     71   O  A00 X   4      10.607  13.391  17.6210  0.00  0.00     0.000 OA
ATOM     72   O  A00 X   4      12.405  12.008  16.9880  0.00  0.00     0.000 OA
ATOM     73   O  A00 X   4      12.250  12.898  19.2170  0.00  0.00     0.000 O
ATOM     74   O  A00 X   4      10.723  11.163  18.5350  0.00  0.00     0.000 OA
ATOM     75   S  A00 X   4      11.435  12.289  18.0230  0.00  0.00     0.000 S
ENDBRANCH 62 70
ENDBRANCH 57 61
ENDBRANCH 41 57
ENDBRANCH 40 44
ENDBRANCH 20 40
ENDBRANCH 19 23
ENDBRANCH 1 19
TORSDOF 14
ENDMDL
MODEL 38
REMARK VINA RESULT:      -4.2      4.139      8.758
ROOT
ATOM      1  C1  A00 X   1      19.594   7.506  12.1470  0.00  0.00     0.000 C
ATOM      2  C2  A00 X   1      18.796   6.410  12.9020  0.00  0.00     0.000 C
ATOM      3  C3  A00 X   1      17.639   6.916  13.8260  0.00  0.00     0.000 C
ATOM      4  C4  A00 X   1      17.665   8.429  14.1620  0.00  0.00     0.000 C
ATOM      5  C5  A00 X   1      19.061   9.032  13.9990  0.00  0.00     0.000 C
ATOM      6  O5  A00 X   1      19.372   8.865  12.5980  0.00  0.00     0.000 O
ATOM      7   O  A00 X   1      17.713   6.224  15.0710  0.00  0.00     0.000 O
ATOM      9  HD  A00 X   1      17.533   7.052  15.2490  0.00  0.00     0.000 HD
ATOM      9   O  A00 X   1      16.730   9.156  13.3660  0.00  0.00     0.000 O
ATOM     11  HD  A00 X   1      16.550   9.984  13.5450  0.00  0.00     0.000 HD
ENDROOT
BRANCH 2 11
ATOM     11   O  A00 X   1      18.250   5.509  11.9190  0.00  0.00     0.000 O
ATOM     12   O  A00 X   1      16.630   3.832  12.4930  0.00  0.00     0.000 OA
ATOM     13   O  A00 X   1      18.865   3.703  13.4440  0.00  0.00     0.000 OA
ATOM     14   O  A00 X   1      18.521   3.332  11.1200  0.00  0.00     0.000 OA
ATOM     15   S  A00 X   1      18.048   4.002  12.3000  0.00  0.00     0.000 S
ENDBRANCH 2 11
BRANCH 5 16
ATOM     16   C  A00 X   1      20.128   8.459  14.9370  0.00  0.00     0.000 C
ATOM     17   O  A00 X   1      19.768   7.826  15.9080  0.00  0.00     0.000 OA
ATOM     18   O  A00 X   1      21.317   8.609  14.7410  0.00  0.00     0.000 OA
ENDBRANCH 5 16
BRANCH 1 19
ATOM     19  O4  A00 X   2      21.008   7.205  12.0520  0.00  0.00     0.000 O
BRANCH 19 23
ATOM     20  C1  A00 X   2      21.283   8.410   7.9480  0.00  0.00     0.000 C
ATOM     21  C2  A00 X   2      21.204   6.893   8.2440  0.00  0.00     0.000 C
ATOM     22  C3  A00 X   2      20.682   6.637   9.6730  0.00  0.00     0.000 C
ATOM     23  C4  A00 X   2      21.533   7.407  10.7080  0.00  0.00     0.000 C
ATOM     24  C5  A00 X   2      21.548   8.903  10.2920  0.00  0.00     0.000 C
ATOM     25  O5  A00 X   2      22.126   9.013   8.9650  0.00  0.00     0.000 O
ATOM     26   O  A00 X   2      20.562   5.219   9.8740  0.00  0.00     0.000 O
ATOM     28  HD  A00 X   2      21.365   5.060   9.5910  0.00  0.00     0.000 HD
BRANCH 21 30
ATOM     28   N  A00 X   2      22.082   6.667   7.0910  0.00  0.00     0.000 N
ATOM     30  HD  A00 X   2      21.731   5.901   7.2920  0.00  0.00     0.000 HD
ATOM     30   O  A00 X   2      21.534   4.599   6.1530  0.00  0.00     0.000 OA
ATOM     31   S  A00 X   2      22.626   5.207   6.8260  0.00  0.00     0.000 S
ATOM     32   O  A00 X   2      23.789   5.420   6.0210  0.00  0.00     0.000 OA
ATOM     33   O  A00 X   2      22.994   4.656   8.0960  0.00  0.00     0.000 OA
ENDBRANCH 21 30
BRANCH 24 34
ATOM     34   C  A00 X   2      22.140   9.928  11.2880  0.00  0.00     0.000 C
ATOM     35   O  A00 X   2      21.374  13.487  11.2520  0.00  0.00     0.000 OA
ATOM     36   O  A00 X   2      21.948  11.279  10.8240  0.00  0.00     0.000 O
ATOM     37   O  A00 X   2      19.739  11.785  11.4040  0.00  0.00     0.000 OA
ATOM     38   S  A00 X   2      21.066  12.189  11.7560  0.00  0.00     0.000 S
ATOM     39   O  A00 X   2      21.503  11.939  13.0970  0.00  0.00     0.000 OA
ENDBRANCH 24 34
BRANCH 20 40
ATOM     40  O4  A00 X   3      19.941   8.901   8.0840  0.00  0.00     0.000 O
BRANCH 40 44
ATOM     41  C1  A00 X   3      16.597  10.277   7.8680  0.00  0.00     0.000 C
ATOM     42  C2  A00 X   3      17.125   9.109   7.0070  0.00  0.00     0.000 C
ATOM     43  C3  A00 X   3      18.476   9.478   6.3410  0.00  0.00     0.000 C
ATOM     44  C4  A00 X   3      19.522  10.037   7.2970  0.00  0.00     0.000 C
ATOM     45  C5  A00 X   3      18.918  11.208   8.1220  0.00  0.00     0.000 C
ATOM     46  O5  A00 X   3      17.641  10.819   8.7240  0.00  0.00     0.000 O
ATOM     47   O  A00 X   3      19.017   8.505   5.4500  0.00  0.00     0.000 O
ATOM     49  HD  A00 X   3      19.763   8.751   5.8140  0.00  0.00     0.000 HD
BRANCH 42 49
ATOM     49   O  A00 X   3      17.262   7.967   7.8810  0.00  0.00     0.000 O
ATOM     50   O  A00 X   3      17.938   5.682   7.6520  0.00  0.00     0.000 OA
ATOM     51   O  A00 X   3      16.562   6.637   5.9840  0.00  0.00     0.000 OA
ATOM     52   O  A00 X   3      15.646   6.283   8.1340  0.00  0.00     0.000 OA
ATOM     53   S  A00 X   3      16.833   6.551   7.3980  0.00  0.00     0.000 S
ENDBRANCH 42 49
BRANCH 45 54
ATOM     54   C  A00 X   3      18.828  12.497   7.2960  0.00  0.00     0.000 C
ATOM     55   O  A00 X   3      19.118  12.498   6.1180  0.00  0.00     0.000 OA
ATOM     56   O  A00 X   3      18.464  13.544   7.8090  0.00  0.00     0.000 OA
ENDBRANCH 45 54
BRANCH 41 57
ATOM     57  O4  A00 X   4      15.921  11.270   7.0650  0.00  0.00     0.000 O
BRANCH 57 61
ATOM     58  C1  A00 X   4      12.621  13.925   7.9020  0.00  0.00     0.000 C
ATOM     59  C2  A00 X   4      14.065  14.465   8.0560  0.00  0.00     0.000 C
ATOM     60  C3  A00 X   4      15.131  13.567   7.3960  0.00  0.00     0.000 C
ATOM     61  C4  A00 X   4      14.946  12.082   7.7770  0.00  0.00     0.000 C
ATOM     62  C5  A00 X   4      13.509  11.698   7.3440  0.00  0.00     0.000 C
ATOM     63  O5  A00 X   4      12.555  12.493   8.0930  0.00  0.00     0.000 O
BRANCH 59 66
ATOM     64   N  A00 X   4      14.605  15.806   7.7660  0.00  0.00     0.000 N
ATOM     66  HD  A00 X   4      15.439  15.950   7.9510  0.00  0.00     0.000 HD
ATOM     66   O  A00 X   4      13.260  16.631   9.5860  0.00  0.00     0.000 OA
ATOM     67   S  A00 X   4      13.832  17.077   8.3540  0.00  0.00     0.000 S
ATOM     68   O  A00 X   4      14.917  18.005   8.4770  0.00  0.00     0.000 OA
ATOM     69   O  A00 X   4      12.940  17.356   7.2640  0.00  0.00     0.000 OA
ENDBRANCH 59 66
BRANCH 62 70
ATOM     70   C  A00 X   4      13.168  10.202   7.5450  0.00  0.00     0.000 C
ATOM     71   O  A00 X   4      11.072   8.681  10.0750  0.00  0.00     0.000 OA
ATOM     72   O  A00 X   4      13.244   8.132   9.3480  0.00  0.00     0.000 OA
ATOM     73   O  A00 X   4      12.111  10.082   8.5110  0.00  0.00     0.000 O
ATOM     74   O  A00 X   4      12.909  10.072  10.7840  0.00  0.00     0.000 OA
ATOM     75   S  A00 X   4      12.377   9.205   9.7830  0.00  0.00     0.000 S
ENDBRANCH 62 70
ENDBRANCH 57 61
ENDBRANCH 41 57
ENDBRANCH 40 44
ENDBRANCH 20 40
ENDBRANCH 19 23
ENDBRANCH 1 19
TORSDOF 14
ENDMDL
MODEL 39
REMARK VINA RESULT:      -4.1     12.334     17.064
ROOT
ATOM      1  C1  A00 X   1      11.988  27.131   6.8350  0.00  0.00     0.000 C
ATOM      2  C2  A00 X   1      12.981  26.938   5.6570  0.00  0.00     0.000 C
ATOM      3  C3  A00 X   1      13.366  28.230   4.8650  0.00  0.00     0.000 C
ATOM      4  C4  A00 X   1      12.450  29.458   5.1030  0.00  0.00     0.000 C
ATOM      5  C5  A00 X   1      11.067  29.057   5.6140  0.00  0.00     0.000 C
ATOM      6  O5  A00 X   1      11.318  28.414   6.8850  0.00  0.00     0.000 O
ATOM      7   O  A00 X   1      13.306  27.945   3.4690  0.00  0.00     0.000 O
ATOM      9  HD  A00 X   1      12.962  28.732   3.5840  0.00  0.00     0.000 HD
ATOM      9   O  A00 X   1      13.048  30.387   6.0070  0.00  0.00     0.000 O
ATOM     11  HD  A00 X   1      12.703  31.173   6.1220  0.00  0.00     0.000 HD
ENDROOT
BRANCH 2 11
ATOM     11   O  A00 X   1      14.179  26.338   6.1870  0.00  0.00     0.000 O
ATOM     12   O  A00 X   1      16.180  26.127   4.8770  0.00  0.00     0.000 OA
ATOM     13   O  A00 X   1      14.179  24.925   4.1950  0.00  0.00     0.000 OA
ATOM     14   O  A00 X   1      15.336  24.310   6.1800  0.00  0.00     0.000 OA
ATOM     15   S  A00 X   1      15.014  25.378   5.2730  0.00  0.00     0.000 S
ENDBRANCH 2 11
BRANCH 5 16
ATOM     16   C  A00 X   1      10.242  28.201   4.6480  0.00  0.00     0.000 C
ATOM     17   O  A00 X   1       9.241  27.655   5.0640  0.00  0.00     0.000 OA
ATOM     18   O  A00 X   1      10.549  28.057   3.4810  0.00  0.00     0.000 OA
ENDBRANCH 5 16
BRANCH 1 19
ATOM     19  O4  A00 X   2      11.046  26.037   6.9600  0.00  0.00     0.000 O
BRANCH 19 23
ATOM     20  C1  A00 X   2      11.652  21.863   7.7170  0.00  0.00     0.000 C
ATOM     21  C2  A00 X   2      12.257  22.868   8.7270  0.00  0.00     0.000 C
ATOM     22  C3  A00 X   2      11.607  24.259   8.5750  0.00  0.00     0.000 C
ATOM     23  C4  A00 X   2      11.704  24.747   7.1120  0.00  0.00     0.000 C
ATOM     24  C5  A00 X   2      11.085  23.650   6.2040  0.00  0.00     0.000 C
ATOM     25  O5  A00 X   2      11.828  22.417   6.3860  0.00  0.00     0.000 O
ATOM     26   O  A00 X   2      12.152  25.135   9.5770  0.00  0.00     0.000 O
ATOM     28  HD  A00 X   2      12.971  24.933   9.3800  0.00  0.00     0.000 HD
BRANCH 21 30
ATOM     28   N  A00 X   2      13.388  21.952   8.9090  0.00  0.00     0.000 N
ATOM     30  HD  A00 X   2      13.409  22.511   9.5710  0.00  0.00     0.000 HD
ATOM     30   O  A00 X   2      14.144  22.159  11.1100  0.00  0.00     0.000 OA
ATOM     31   S  A00 X   2      14.610  22.423   9.7950  0.00  0.00     0.000 S
ATOM     32   O  A00 X   2      15.687  21.590   9.3570  0.00  0.00     0.000 OA
ATOM     33   O  A00 X   2      14.872  23.791   9.4620  0.00  0.00     0.000 OA
ENDBRANCH 21 30
BRANCH 24 34
ATOM     34   C  A00 X   2      10.849  23.990   4.7130  0.00  0.00     0.000 C
ATOM     35   O  A00 X   2       7.842  23.094   2.8660  0.00  0.00     0.000 OA
ATOM     36   O  A00 X   2       9.760  23.219   4.1670  0.00  0.00     0.000 O
ATOM     37   O  A00 X   2       7.837  24.349   4.8710  0.00  0.00     0.000 OA
ATOM     38   S  A00 X   2       8.534  24.060   3.6550  0.00  0.00     0.000 S
ATOM     39   O  A00 X   2       9.077  25.165   2.9230  0.00  0.00     0.000 OA
ENDBRANCH 24 34
BRANCH 20 40
ATOM     40  O4  A00 X   3      10.253  21.796   8.0280  0.00  0.00     0.000 O
BRANCH 40 44
ATOM     41  C1  A00 X   3       6.803  20.998   8.7930  0.00  0.00     0.000 C
ATOM     42  C2  A00 X   3       8.027  20.401   9.5210  0.00  0.00     0.000 C
ATOM     43  C3  A00 X   3       9.054  19.834   8.5080  0.00  0.00     0.000 C
ATOM     44  C4  A00 X   3       9.435  20.794   7.3870  0.00  0.00     0.000 C
ATOM     45  C5  A00 X   3       8.154  21.346   6.7020  0.00  0.00     0.000 C
ATOM     46  O5  A00 X   3       7.209  21.861   7.6960  0.00  0.00     0.000 O
ATOM     47   O  A00 X   3      10.188  19.178   9.0710  0.00  0.00     0.000 O
ATOM     49  HD  A00 X   3      10.600  19.576   8.4210  0.00  0.00     0.000 HD
BRANCH 42 49
ATOM     49   O  A00 X   3       8.602  21.459  10.3190  0.00  0.00     0.000 O
ATOM     50   O  A00 X   3      10.550  21.738  11.6820  0.00  0.00     0.000 OA
ATOM     51   O  A00 X   3       9.348  19.706  11.8120  0.00  0.00     0.000 OA
ATOM     52   O  A00 X   3       8.332  21.672  12.6420  0.00  0.00     0.000 OA
ATOM     53   S  A00 X   3       9.252  21.140  11.6970  0.00  0.00     0.000 S
ENDBRANCH 42 49
BRANCH 45 54
ATOM     54   C  A00 X   3       7.529  20.317   5.7530  0.00  0.00     0.000 C
ATOM     55   O  A00 X   3       7.708  19.128   5.9240  0.00  0.00     0.000 OA
ATOM     56   O  A00 X   3       6.841  20.673   4.8080  0.00  0.00     0.000 OA
ENDBRANCH 45 54
BRANCH 41 57
ATOM     57  O4  A00 X   4       5.855  19.975   8.4150  0.00  0.00     0.000 O
BRANCH 57 61
ATOM     58  C1  A00 X   4       1.764  20.096   7.0420  0.00  0.00     0.000 C
ATOM     59  C2  A00 X   4       2.895  20.415   6.0320  0.00  0.00     0.000 C
ATOM     60  C3  A00 X   4       4.295  19.996   6.5240  0.00  0.00     0.000 C
ATOM     61  C4  A00 X   4       4.559  20.466   7.9710  0.00  0.00     0.000 C
ATOM     62  C5  A00 X   4       3.429  19.860   8.8390  0.00  0.00     0.000 C
ATOM     63  O5  A00 X   4       2.153  20.394   8.4020  0.00  0.00     0.000 O
BRANCH 59 66
ATOM     64   N  A00 X   4       3.003  21.863   5.7760  0.00  0.00     0.000 N
ATOM     66  HD  A00 X   4       2.764  22.401   6.4110  0.00  0.00     0.000 HD
ATOM     66   O  A00 X   4       1.166  21.626   4.2370  0.00  0.00     0.000 OA
ATOM     67   S  A00 X   4       2.310  22.453   4.4600  0.00  0.00     0.000 S
ATOM     68   O  A00 X   4       2.030  23.791   4.8930  0.00  0.00     0.000 OA
ATOM     69   O  A00 X   4       3.401  22.351   3.5320  0.00  0.00     0.000 OA
ENDBRANCH 59 66
BRANCH 62 70
ATOM     70   C  A00 X   4       3.582  20.132  10.3550  0.00  0.00     0.000 C
ATOM     71   O  A00 X   4       1.249  19.413  13.0290  0.00  0.00     0.000 OA
ATOM     72   O  A00 X   4       2.431  21.383  12.5120  0.00  0.00     0.000 OA
ATOM     73   O  A00 X   4       2.528  19.463  11.0660  0.00  0.00     0.000 O
ATOM     74   O  A00 X   4       0.496  20.754  11.1710  0.00  0.00     0.000 OA
ATOM     75   S  A00 X   4       1.594  20.331  11.9800  0.00  0.00     0.000 S
ENDBRANCH 62 70
ENDBRANCH 57 61
ENDBRANCH 41 57
ENDBRANCH 40 44
ENDBRANCH 20 40
ENDBRANCH 19 23
ENDBRANCH 1 19
TORSDOF 14
ENDMDL
MODEL 40
REMARK VINA RESULT:      -4.1      5.568     10.442
ROOT
ATOM      1  C1  A00 X   1      11.241  11.325  21.2240  0.00  0.00     0.000 C
ATOM      2  C2  A00 X   1      12.755  11.076  21.4530  0.00  0.00     0.000 C
ATOM      3  C3  A00 X   1      13.128   9.763  22.2170  0.00  0.00     0.000 C
ATOM      4  C4  A00 X   1      11.960   9.070  22.9640  0.00  0.00     0.000 C
ATOM      5  C5  A00 X   1      10.818  10.038  23.2760  0.00  0.00     0.000 C
ATOM      6  O5  A00 X   1      10.345  10.476  21.9830  0.00  0.00     0.000 O
ATOM      7   O  A00 X   1      14.112  10.071  23.2020  0.00  0.00     0.000 O
ATOM      9  HD  A00 X   1      13.551   9.520  23.5650  0.00  0.00     0.000 HD
ATOM      9   O  A00 X   1      11.458   7.955  22.2270  0.00  0.00     0.000 O
ATOM     11  HD  A00 X   1      10.898   7.404  22.5900  0.00  0.00     0.000 HD
ENDROOT
BRANCH 2 11
ATOM     11   O  A00 X   1      13.399  11.068  20.1640  0.00  0.00     0.000 O
ATOM     12   O  A00 X   1      15.656  10.301  19.8760  0.00  0.00     0.000 OA
ATOM     13   O  A00 X   1      15.234  12.275  21.2320  0.00  0.00     0.000 OA
ATOM     14   O  A00 X   1      14.884  12.332  18.8800  0.00  0.00     0.000 OA
ATOM     15   S  A00 X   1      14.898  11.512  20.0620  0.00  0.00     0.000 S
ENDBRANCH 2 11
BRANCH 5 16
ATOM     16   C  A00 X   1      11.185  11.190  24.2170  0.00  0.00     0.000 C
ATOM     17   O  A00 X   1      12.229  11.126  24.8340  0.00  0.00     0.000 OA
ATOM     18   O  A00 X   1      10.475  12.164  24.3620  0.00  0.00     0.000 OA
ENDBRANCH 5 16
BRANCH 1 19
ATOM     19  O4  A00 X   2      10.876  12.722  21.3480  0.00  0.00     0.000 O
BRANCH 19 23
ATOM     20  C1  A00 X   2       9.558  13.015  17.2810  0.00  0.00     0.000 C
ATOM     21  C2  A00 X   2      10.790  13.856  17.6950  0.00  0.00     0.000 C
ATOM     22  C3  A00 X   2      11.395  13.331  19.0140  0.00  0.00     0.000 C
ATOM     23  C4  A00 X   2      10.315  13.264  20.1180  0.00  0.00     0.000 C
ATOM     24  C5  A00 X   2       9.133  12.415  19.5760  0.00  0.00     0.000 C
ATOM     25  O5  A00 X   2       8.610  13.052  18.3810  0.00  0.00     0.000 O
ATOM     26   O  A00 X   2      12.572  14.098  19.3180  0.00  0.00     0.000 O
ATOM     28  HD  A00 X   2      12.167  14.856  19.2120  0.00  0.00     0.000 HD
BRANCH 21 30
ATOM     28   N  A00 X   2      10.341  14.929  16.8030  0.00  0.00     0.000 N
ATOM     30  HD  A00 X   2      11.176  15.080  16.9760  0.00  0.00     0.000 HD
ATOM     30   O  A00 X   2      12.232  15.986  15.9280  0.00  0.00     0.000 OA
ATOM     31   S  A00 X   2      11.145  16.290  16.7900  0.00  0.00     0.000 S
ATOM     32   O  A00 X   2      10.206  17.234  16.2670  0.00  0.00     0.000 OA
ATOM     33   O  A00 X   2      11.464  16.607  18.1500  0.00  0.00     0.000 OA
ENDBRANCH 21 30
BRANCH 24 34
ATOM     34   C  A00 X   2       8.021  12.002  20.5680  0.00  0.00     0.000 C
ATOM     35   O  A00 X   2       4.482  11.858  19.7230  0.00  0.00     0.000 OA
ATOM     36   O  A00 X   2       6.718  12.374  20.0770  0.00  0.00     0.000 O
ATOM     37   O  A00 X   2       6.170  10.690  18.5490  0.00  0.00     0.000 OA
ATOM     38   S  A00 X   2       5.731  11.177  19.8210  0.00  0.00     0.000 S
ATOM     39   O  A00 X   2       5.857  10.300  20.9460  0.00  0.00     0.000 OA
ENDBRANCH 24 34
BRANCH 20 40
ATOM     40  O4  A00 X   3      10.042  11.675  17.1090  0.00  0.00     0.000 O
BRANCH 40 44
ATOM     41  C1  A00 X   3      11.005   8.576  15.4990  0.00  0.00     0.000 C
ATOM     42  C2  A00 X   3      10.874   9.937  14.7820  0.00  0.00     0.000 C
ATOM     43  C3  A00 X   3       9.506  10.598  15.0910  0.00  0.00     0.000 C
ATOM     44  C4  A00 X   3       9.157  10.668  16.5730  0.00  0.00     0.000 C
ATOM     45  C5  A00 X   3       9.308   9.264  17.2220  0.00  0.00     0.000 C
ATOM     46  O5  A00 X   3      10.608   8.674  16.8950  0.00  0.00     0.000 O
ATOM     47   O  A00 X   3       9.238  11.823  14.4110  0.00  0.00     0.000 O
ATOM     49  HD  A00 X   3       8.890  12.040  15.1740  0.00  0.00     0.000 HD
BRANCH 42 49
ATOM     49   O  A00 X   3      11.972  10.761  15.2310  0.00  0.00     0.000 O
ATOM     50   O  A00 X   3      12.866  12.910  14.6750  0.00  0.00     0.000 OA
ATOM     51   O  A00 X   3      12.160  11.482  12.9290  0.00  0.00     0.000 OA
ATOM     52   O  A00 X   3      14.069  10.872  14.1810  0.00  0.00     0.000 OA
ATOM     53   S  A00 X   3      12.826  11.561  14.2050  0.00  0.00     0.000 S
ENDBRANCH 42 49
BRANCH 45 54
ATOM     54   C  A00 X   3       8.127   8.349  16.8770  0.00  0.00     0.000 C
ATOM     55   O  A00 X   3       8.009   7.263  17.4070  0.00  0.00     0.000 OA
ATOM     56   O  A00 X   3       7.285   8.695  16.0620  0.00  0.00     0.000 OA
ENDBRANCH 45 54
BRANCH 41 57
ATOM     57  O4  A00 X   4      10.337   7.522  14.7710  0.00  0.00     0.000 O
BRANCH 57 61
ATOM     58  C1  A00 X   4      11.279   3.368  14.0650  0.00  0.00     0.000 C
ATOM     59  C2  A00 X   4      10.608   3.759  15.4050  0.00  0.00     0.000 C
ATOM     60  C3  A00 X   4      10.000   5.176  15.3990  0.00  0.00     0.000 C
ATOM     61  C4  A00 X   4      10.987   6.220  14.8330  0.00  0.00     0.000 C
ATOM     62  C5  A00 X   4      11.362   5.739  13.4090  0.00  0.00     0.000 C
ATOM     63  O5  A00 X   4      12.040   4.460  13.5010  0.00  0.00     0.000 O
BRANCH 59 66
ATOM     64   N  A00 X   4       9.649   3.084  16.2980  0.00  0.00     0.000 N
ATOM     66  HD  A00 X   4       9.479   3.459  17.0600  0.00  0.00     0.000 HD
ATOM     66   O  A00 X   4      11.315   1.378  16.6350  0.00  0.00     0.000 OA
ATOM     67   S  A00 X   4       9.895   1.542  16.6480  0.00  0.00     0.000 S
ATOM     68   O  A00 X   4       9.278   1.469  17.9400  0.00  0.00     0.000 OA
ATOM     69   O  A00 X   4       9.139   0.920  15.5980  0.00  0.00     0.000 OA
ENDBRANCH 59 66
BRANCH 62 70
ATOM     70   C  A00 X   4      12.267   6.721  12.6290  0.00  0.00     0.000 C
ATOM     71   O  A00 X   4      11.790   8.085   9.3090  0.00  0.00     0.000 OA
ATOM     72   O  A00 X   4      13.671   7.065  10.2930  0.00  0.00     0.000 OA
ATOM     73   O  A00 X   4      11.571   7.183  11.4600  0.00  0.00     0.000 O
ATOM     74   O  A00 X   4      11.790   5.690   9.5820  0.00  0.00     0.000 OA
ATOM     75   S  A00 X   4      12.248   6.953  10.0640  0.00  0.00     0.000 S
ENDBRANCH 62 70
ENDBRANCH 57 61
ENDBRANCH 41 57
ENDBRANCH 40 44
ENDBRANCH 20 40
ENDBRANCH 19 23
ENDBRANCH 1 19
TORSDOF 14
ENDMDL
MODEL 41
REMARK VINA RESULT:      -4.0      5.365     12.435
ROOT
ATOM      1  C1  A00 X   1      20.011  18.943   5.5550  0.00  0.00     0.000 C
ATOM      2  C2  A00 X   1      20.907  19.533   6.6760  0.00  0.00     0.000 C
ATOM      3  C3  A00 X   1      22.404  19.785   6.2990  0.00  0.00     0.000 C
ATOM      4  C4  A00 X   1      22.893  19.087   5.0040  0.00  0.00     0.000 C
ATOM      5  C5  A00 X   1      22.030  17.880   4.6370  0.00  0.00     0.000 C
ATOM      6  O5  A00 X   1      20.715  18.429   4.3970  0.00  0.00     0.000 O
ATOM      7   O  A00 X   1      23.229  19.301   7.3560  0.00  0.00     0.000 O
ATOM      9  HD  A00 X   1      23.609  19.074   6.6120  0.00  0.00     0.000 HD
ATOM      9   O  A00 X   1      22.941  19.998   3.9060  0.00  0.00     0.000 O
ATOM     11  HD  A00 X   1      23.320  19.771   3.1620  0.00  0.00     0.000 HD
ENDROOT
BRANCH 2 11
ATOM     11   O  A00 X   1      20.315  20.776   7.1010  0.00  0.00     0.000 O
ATOM     12   O  A00 X   1      21.045  21.918   9.0840  0.00  0.00     0.000 OA
ATOM     13   O  A00 X   1      20.020  19.721   9.2850  0.00  0.00     0.000 OA
ATOM     14   O  A00 X   1      18.726  21.597   8.6030  0.00  0.00     0.000 OA
ATOM     15   S  A00 X   1      20.033  20.999   8.6270  0.00  0.00     0.000 S
ENDBRANCH 2 11
BRANCH 5 16
ATOM     16   C  A00 X   1      22.041  16.740   5.6610  0.00  0.00     0.000 C
ATOM     17   O  A00 X   1      22.928  16.711   6.4880  0.00  0.00     0.000 OA
ATOM     18   O  A00 X   1      21.191  15.872   5.6780  0.00  0.00     0.000 OA
ENDBRANCH 5 16
BRANCH 1 19
ATOM     19  O4  A00 X   2      19.045  17.985   6.0530  0.00  0.00     0.000 O
BRANCH 19 23
ATOM     20  C1  A00 X   2      15.184  16.834   4.5930  0.00  0.00     0.000 C
ATOM     21  C2  A00 X   2      16.424  16.240   3.8810  0.00  0.00     0.000 C
ATOM     22  C3  A00 X   2      17.684  16.385   4.7590  0.00  0.00     0.000 C
ATOM     23  C4  A00 X   2      17.884  17.858   5.1840  0.00  0.00     0.000 C
ATOM     24  C5  A00 X   2      16.573  18.338   5.8640  0.00  0.00     0.000 C
ATOM     25  O5  A00 X   2      15.483  18.218   4.9140  0.00  0.00     0.000 O
ATOM     26   O  A00 X   2      18.790  15.760   4.0860  0.00  0.00     0.000 O
ATOM     28  HD  A00 X   2      18.639  16.177   3.3420  0.00  0.00     0.000 HD
BRANCH 21 30
ATOM     28   N  A00 X   2      15.776  16.362   2.5710  0.00  0.00     0.000 N
ATOM     30  HD  A00 X   2      16.404  15.772   2.4860  0.00  0.00     0.000 HD
ATOM     30   O  A00 X   2      16.392  14.515   1.2800  0.00  0.00     0.000 OA
ATOM     31   S  A00 X   2      16.581  15.923   1.2830  0.00  0.00     0.000 S
ATOM     32   O  A00 X   2      15.927  16.622   0.2210  0.00  0.00     0.000 OA
ATOM     33   O  A00 X   2      17.923  16.398   1.4400  0.00  0.00     0.000 OA
ENDBRANCH 21 30
BRANCH 24 34
ATOM     34   C  A00 X   2      16.589  19.706   6.5860  0.00  0.00     0.000 C
ATOM     35   O  A00 X   2      14.226  22.394   5.9170  0.00  0.00     0.000 OA
ATOM     36   O  A00 X   2      15.787  20.676   5.8840  0.00  0.00     0.000 O
ATOM     37   O  A00 X   2      13.593  20.201   6.5380  0.00  0.00     0.000 OA
ATOM     38   S  A00 X   2      14.562  21.243   6.6900  0.00  0.00     0.000 S
ATOM     39   O  A00 X   2      15.039  21.518   8.0120  0.00  0.00     0.000 OA
ENDBRANCH 24 34
BRANCH 20 40
ATOM     40  O4  A00 X   3      15.036  16.081   5.8060  0.00  0.00     0.000 O
BRANCH 40 44
ATOM     41  C1  A00 X   3      14.403  15.613   9.3420  0.00  0.00     0.000 C
ATOM     42  C2  A00 X   3      14.608  14.469   8.3250  0.00  0.00     0.000 C
ATOM     43  C3  A00 X   3      13.687  14.651   7.0920  0.00  0.00     0.000 C
ATOM     44  C4  A00 X   3      13.748  16.034   6.4550  0.00  0.00     0.000 C
ATOM     45  C5  A00 X   3      13.529  17.128   7.5370  0.00  0.00     0.000 C
ATOM     46  O5  A00 X   3      14.410  16.911   8.6860  0.00  0.00     0.000 O
ATOM     47   O  A00 X   3      13.727  13.605   6.1240  0.00  0.00     0.000 O
ATOM     49  HD  A00 X   3      13.672  14.268   5.5700  0.00  0.00     0.000 HD
BRANCH 42 49
ATOM     49   O  A00 X   3      16.002  14.481   7.9500  0.00  0.00     0.000 O
ATOM     50   O  A00 X   3      17.416  13.208   6.4960  0.00  0.00     0.000 OA
ATOM     51   O  A00 X   3      15.819  12.071   7.8180  0.00  0.00     0.000 OA
ATOM     52   O  A00 X   3      17.649  13.103   8.9000  0.00  0.00     0.000 OA
ATOM     53   S  A00 X   3      16.781  13.144   7.7750  0.00  0.00     0.000 S
ENDBRANCH 42 49
BRANCH 45 54
ATOM     54   C  A00 X   3      12.051  17.255   7.9260  0.00  0.00     0.000 C
ATOM     55   O  A00 X   3      11.218  16.517   7.4400  0.00  0.00     0.000 OA
ATOM     56   O  A00 X   3      11.685  18.099   8.7290  0.00  0.00     0.000 OA
ENDBRANCH 45 54
BRANCH 41 57
ATOM     57  O4  A00 X   4      13.247  15.384  10.1780  0.00  0.00     0.000 O
BRANCH 57 61
ATOM     58  C1  A00 X   4      12.494  16.017  14.3820  0.00  0.00     0.000 C
ATOM     59  C2  A00 X   4      12.218  17.180  13.3960  0.00  0.00     0.000 C
ATOM     60  C3  A00 X   4      12.175  16.736  11.9200  0.00  0.00     0.000 C
ATOM     61  C4  A00 X   4      13.379  15.842  11.5540  0.00  0.00     0.000 C
ATOM     62  C5  A00 X   4      13.339  14.637  12.5270  0.00  0.00     0.000 C
ATOM     63  O5  A00 X   4      13.509  15.115  13.8860  0.00  0.00     0.000 O
BRANCH 59 66
ATOM     64   N  A00 X   4      11.190  18.236  13.3830  0.00  0.00     0.000 N
ATOM     66  HD  A00 X   4      11.249  18.844  12.7700  0.00  0.00     0.000 HD
ATOM     66   O  A00 X   4      12.181  19.086  15.4070  0.00  0.00     0.000 OA
ATOM     67   S  A00 X   4      10.920  19.046  14.7360  0.00  0.00     0.000 S
ATOM     68   O  A00 X   4      10.465  20.296  14.2020  0.00  0.00     0.000 OA
ATOM     69   O  A00 X   4       9.881  18.239  15.3110  0.00  0.00     0.000 OA
ENDBRANCH 59 66
BRANCH 62 70
ATOM     70   C  A00 X   4      14.414  13.561  12.2450  0.00  0.00     0.000 C
ATOM     71   O  A00 X   4      14.041  10.376  10.5650  0.00  0.00     0.000 OA
ATOM     72   O  A00 X   4      15.058  10.917  12.6190  0.00  0.00     0.000 OA
ATOM     73   O  A00 X   4      13.879  12.580  11.3420  0.00  0.00     0.000 O
ATOM     74   O  A00 X   4      12.627  10.852  12.4600  0.00  0.00     0.000 OA
ATOM     75   S  A00 X   4      13.874  11.082  11.8050  0.00  0.00     0.000 S
ENDBRANCH 62 70
ENDBRANCH 57 61
ENDBRANCH 41 57
ENDBRANCH 40 44
ENDBRANCH 20 40
ENDBRANCH 19 23
ENDBRANCH 1 19
TORSDOF 14
ENDMDL
MODEL 42
REMARK VINA RESULT:      -3.9      6.021     12.840
ROOT
ATOM      1  C1  A00 X   1      20.426  17.959   5.5380  0.00  0.00     0.000 C
ATOM      2  C2  A00 X   1      20.714  19.481   5.6310  0.00  0.00     0.000 C
ATOM      3  C3  A00 X   1      22.213  19.887   5.8180  0.00  0.00     0.000 C
ATOM      4  C4  A00 X   1      23.165  18.743   6.2520  0.00  0.00     0.000 C
ATOM      5  C5  A00 X   1      22.418  17.597   6.9330  0.00  0.00     0.000 C
ATOM      6  O5  A00 X   1      21.521  17.090   5.9190  0.00  0.00     0.000 O
ATOM      7   O  A00 X   1      22.293  20.887   6.8310  0.00  0.00     0.000 O
ATOM      9  HD  A00 X   1      22.953  20.341   6.9590  0.00  0.00     0.000 HD
ATOM      9   O  A00 X   1      23.916  18.241   5.1470  0.00  0.00     0.000 O
ATOM     11  HD  A00 X   1      24.576  17.695   5.2740  0.00  0.00     0.000 HD
ENDROOT
BRANCH 2 11
ATOM     11   O  A00 X   1      20.208  20.098   4.4300  0.00  0.00     0.000 O
ATOM     12   O  A00 X   1      20.739  22.366   3.8460  0.00  0.00     0.000 OA
ATOM     13   O  A00 X   1      19.451  21.927   5.8620  0.00  0.00     0.000 OA
ATOM     14   O  A00 X   1      18.505  21.527   3.7170  0.00  0.00     0.000 OA
ATOM     15   S  A00 X   1      19.714  21.584   4.4920  0.00  0.00     0.000 S
ENDBRANCH 2 11
BRANCH 5 16
ATOM     16   C  A00 X   1      21.715  17.968   8.2430  0.00  0.00     0.000 C
ATOM     17   O  A00 X   1      20.936  17.175   8.7300  0.00  0.00     0.000 OA
ATOM     18   O  A00 X   1      21.915  19.022   8.8130  0.00  0.00     0.000 OA
ENDBRANCH 5 16
BRANCH 1 19
ATOM     19  O4  A00 X   2      19.195  17.580   6.2000  0.00  0.00     0.000 O
BRANCH 19 23
ATOM     20  C1  A00 X   2      15.289  16.815   4.6110  0.00  0.00     0.000 C
ATOM     21  C2  A00 X   2      16.491  16.132   3.9130  0.00  0.00     0.000 C
ATOM     22  C3  A00 X   2      17.734  16.142   4.8270  0.00  0.00     0.000 C
ATOM     23  C4  A00 X   2      18.051  17.579   5.2980  0.00  0.00     0.000 C
ATOM     24  C5  A00 X   2      16.769  18.156   5.9590  0.00  0.00     0.000 C
ATOM     25  O5  A00 X   2      15.699  18.159   4.9790  0.00  0.00     0.000 O
ATOM     26   O  A00 X   2      18.799  15.439   4.1640  0.00  0.00     0.000 O
ATOM     28  HD  A00 X   2      18.705  15.887   3.4290  0.00  0.00     0.000 HD
BRANCH 21 30
ATOM     28   N  A00 X   2      15.823  16.307   2.6200  0.00  0.00     0.000 N
ATOM     30  HD  A00 X   2      16.437  15.706   2.5060  0.00  0.00     0.000 HD
ATOM     30   O  A00 X   2      16.379  14.487   1.2640  0.00  0.00     0.000 OA
ATOM     31   S  A00 X   2      16.596  15.889   1.3050  0.00  0.00     0.000 S
ATOM     32   O  A00 X   2      15.939  16.633   0.2750  0.00  0.00     0.000 OA
ATOM     33   O  A00 X   2      17.951  16.333   1.4520  0.00  0.00     0.000 OA
ENDBRANCH 21 30
BRANCH 24 34
ATOM     34   C  A00 X   2      16.886  19.497   6.7210  0.00  0.00     0.000 C
ATOM     35   O  A00 X   2      15.080  22.524   5.8090  0.00  0.00     0.000 OA
ATOM     36   O  A00 X   2      16.352  20.587   5.9430  0.00  0.00     0.000 O
ATOM     37   O  A00 X   2      14.038  20.450   6.2610  0.00  0.00     0.000 OA
ATOM     38   S  A00 X   2      15.121  21.328   6.5840  0.00  0.00     0.000 S
ATOM     39   O  A00 X   2      15.436  21.512   7.9690  0.00  0.00     0.000 OA
ENDBRANCH 24 34
BRANCH 20 40
ATOM     40  O4  A00 X   3      15.042  16.047   5.7970  0.00  0.00     0.000 O
BRANCH 40 44
ATOM     41  C1  A00 X   3      14.109  16.621   9.2500  0.00  0.00     0.000 C
ATOM     42  C2  A00 X   3      14.558  15.261   8.6750  0.00  0.00     0.000 C
ATOM     43  C3  A00 X   3      13.755  14.906   7.3970  0.00  0.00     0.000 C
ATOM     44  C4  A00 X   3      13.709  16.011   6.3500  0.00  0.00     0.000 C
ATOM     45  C5  A00 X   3      13.244  17.343   7.0030  0.00  0.00     0.000 C
ATOM     46  O5  A00 X   3      14.022  17.633   8.2100  0.00  0.00     0.000 O
ATOM     47   O  A00 X   3      14.026  13.627   6.8260  0.00  0.00     0.000 O
ATOM     49  HD  A00 X   3      13.946  14.066   6.0840  0.00  0.00     0.000 HD
BRANCH 42 49
ATOM     49   O  A00 X   3      15.972  15.365   8.3970  0.00  0.00     0.000 O
ATOM     50   O  A00 X   3      17.680  13.925   7.5380  0.00  0.00     0.000 OA
ATOM     51   O  A00 X   3      16.110  13.045   9.0710  0.00  0.00     0.000 OA
ATOM     52   O  A00 X   3      17.671  14.640   9.8470  0.00  0.00     0.000 OA
ATOM     53   S  A00 X   3      16.927  14.181   8.7250  0.00  0.00     0.000 S
ENDBRANCH 42 49
BRANCH 45 54
ATOM     54   C  A00 X   3      11.729  17.360   7.2430  0.00  0.00     0.000 C
ATOM     55   O  A00 X   3      11.102  16.323   7.3070  0.00  0.00     0.000 OA
ATOM     56   O  A00 X   3      11.128  18.415   7.3730  0.00  0.00     0.000 OA
ENDBRANCH 45 54
BRANCH 41 57
ATOM     57  O4  A00 X   4      12.910  16.494  10.0470  0.00  0.00     0.000 O
BRANCH 57 61
ATOM     58  C1  A00 X   4      11.349  18.724  13.3980  0.00  0.00     0.000 C
ATOM     59  C2  A00 X   4      11.494  19.441  12.0330  0.00  0.00     0.000 C
ATOM     60  C3  A00 X   4      11.710  18.475  10.8510  0.00  0.00     0.000 C
ATOM     61  C4  A00 X   4      12.803  17.429  11.1580  0.00  0.00     0.000 C
ATOM     62  C5  A00 X   4      12.350  16.689  12.4410  0.00  0.00     0.000 C
ATOM     63  O5  A00 X   4      12.288  17.633  13.5400  0.00  0.00     0.000 O
BRANCH 59 66
ATOM     64   N  A00 X   4      10.626  20.460  11.4160  0.00  0.00     0.000 N
ATOM     66  HD  A00 X   4      10.874  20.788  10.6540  0.00  0.00     0.000 HD
ATOM     66   O  A00 X   4      11.320  21.965  13.1630  0.00  0.00     0.000 OA
ATOM     67   S  A00 X   4      10.211  21.733  12.2920  0.00  0.00     0.000 S
ATOM     68   O  A00 X   4      10.023  22.708  11.2580  0.00  0.00     0.000 OA
ATOM     69   O  A00 X   4       8.990  21.251  12.8750  0.00  0.00     0.000 OA
ENDBRANCH 59 66
BRANCH 62 70
ATOM     70   C  A00 X   4      13.271  15.515  12.8520  0.00  0.00     0.000 C
ATOM     71   O  A00 X   4      16.665  15.636  14.1040  0.00  0.00     0.000 OA
ATOM     72   O  A00 X   4      15.709  14.340  12.3870  0.00  0.00     0.000 OA
ATOM     73   O  A00 X   4      14.432  16.035  13.5200  0.00  0.00     0.000 O
ATOM     74   O  A00 X   4      16.176  16.700  11.9960  0.00  0.00     0.000 OA
ATOM     75   S  A00 X   4      15.840  15.674  12.9300  0.00  0.00     0.000 S
ENDBRANCH 62 70
ENDBRANCH 57 61
ENDBRANCH 41 57
ENDBRANCH 40 44
ENDBRANCH 20 40
ENDBRANCH 19 23
ENDBRANCH 1 19
TORSDOF 14
ENDMDL
MODEL 43
REMARK VINA RESULT:      -3.8      5.395      9.851
ROOT
ATOM      1  C1  A00 X   1      13.710  20.909  14.7990  0.00  0.00     0.000 C
ATOM      2  C2  A00 X   1      12.417  20.607  15.6020  0.00  0.00     0.000 C
ATOM      3  C3  A00 X   1      12.499  20.835  17.1480  0.00  0.00     0.000 C
ATOM      4  C4  A00 X   1      13.930  20.974  17.7280  0.00  0.00     0.000 C
ATOM      5  C5  A00 X   1      14.984  20.336  16.8220  0.00  0.00     0.000 C
ATOM      6  O5  A00 X   1      14.911  21.087  15.5890  0.00  0.00     0.000 O
ATOM      7   O  A00 X   1      11.901  19.722  17.8070  0.00  0.00     0.000 O
ATOM      9  HD  A00 X   1      12.615  19.928  18.2510  0.00  0.00     0.000 HD
ATOM      9   O  A00 X   1      14.266  22.340  17.9700  0.00  0.00     0.000 O
ATOM     11  HD  A00 X   1      14.980  22.546  18.4140  0.00  0.00     0.000 HD
ENDROOT
BRANCH 2 11
ATOM     11   O  A00 X   1      11.363  21.428  15.0620  0.00  0.00     0.000 O
ATOM     12   O  A00 X   1       9.254  21.687  16.1820  0.00  0.00     0.000 OA
ATOM     13   O  A00 X   1       9.902  19.493  15.3560  0.00  0.00     0.000 OA
ATOM     14   O  A00 X   1       9.385  21.248  13.8360  0.00  0.00     0.000 OA
ATOM     15   S  A00 X   1       9.885  20.914  15.1420  0.00  0.00     0.000 S
ENDBRANCH 2 11
BRANCH 5 16
ATOM     16   C  A00 X   1      14.842  18.823  16.6280  0.00  0.00     0.000 C
ATOM     17   O  A00 X   1      15.475  18.289  15.7410  0.00  0.00     0.000 OA
ATOM     18   O  A00 X   1      14.126  18.140  17.3330  0.00  0.00     0.000 OA
ENDBRANCH 5 16
BRANCH 1 19
ATOM     19  O4  A00 X   2      13.926  19.976  13.7120  0.00  0.00     0.000 O
BRANCH 19 23
ATOM     20  C1  A00 X   2      11.710  19.281  10.1100  0.00  0.00     0.000 C
ATOM     21  C2  A00 X   2      12.184  20.728  10.3900  0.00  0.00     0.000 C
ATOM     22  C3  A00 X   2      13.303  20.744  11.4510  0.00  0.00     0.000 C
ATOM     23  C4  A00 X   2      12.850  20.003  12.7300  0.00  0.00     0.000 C
ATOM     24  C5  A00 X   2      12.385  18.581  12.3150  0.00  0.00     0.000 C
ATOM     25  O5  A00 X   2      11.286  18.705  11.3750  0.00  0.00     0.000 O
ATOM     26   O  A00 X   2      13.755  22.098  11.6250  0.00  0.00     0.000 O
ATOM     28  HD  A00 X   2      12.952  22.406  11.7290  0.00  0.00     0.000 HD
BRANCH 21 30
ATOM     28   N  A00 X   2      10.954  21.211   9.7550  0.00  0.00     0.000 N
ATOM     30  HD  A00 X   2      11.494  21.886   9.8010  0.00  0.00     0.000 HD
ATOM     30   O  A00 X   2      11.420  23.259   8.7310  0.00  0.00     0.000 OA
ATOM     31   S  A00 X   2      10.633  22.758   9.8020  0.00  0.00     0.000 S
ATOM     32   O  A00 X   2       9.220  22.818   9.5920  0.00  0.00     0.000 OA
ATOM     33   O  A00 X   2      10.961  23.219  11.1180  0.00  0.00     0.000 OA
ENDBRANCH 21 30
BRANCH 24 34
ATOM     34   C  A00 X   2      12.098  17.555  13.4370  0.00  0.00     0.000 C
ATOM     35   O  A00 X   2      13.325  14.127  13.4310  0.00  0.00     0.000 OA
ATOM     36   O  A00 X   2      12.398  16.213  13.0070  0.00  0.00     0.000 O
ATOM     37   O  A00 X   2      14.718  16.030  13.2440  0.00  0.00     0.000 OA
ATOM     38   S  A00 X   2      13.528  15.484  13.8220  0.00  0.00     0.000 S
ATOM     39   O  A00 X   2      13.273  15.762  15.2040  0.00  0.00     0.000 OA
ENDBRANCH 24 34
BRANCH 20 40
ATOM     40  O4  A00 X   3      12.865  18.581   9.6270  0.00  0.00     0.000 O
BRANCH 40 44
ATOM     41  C1  A00 X   3      15.178  15.853   9.0490  0.00  0.00     0.000 C
ATOM     42  C2  A00 X   3      15.238  17.223   8.3390  0.00  0.00     0.000 C
ATOM     43  C3  A00 X   3      13.858  17.598   7.7380  0.00  0.00     0.000 C
ATOM     44  C4  A00 X   3      12.691  17.479   8.7100  0.00  0.00     0.000 C
ATOM     45  C5  A00 X   3      12.696  16.075   9.3790  0.00  0.00     0.000 C
ATOM     46  O5  A00 X   3      14.019  15.759   9.9220  0.00  0.00     0.000 O
ATOM     47   O  A00 X   3      13.816  18.806   6.9820  0.00  0.00     0.000 O
ATOM     49  HD  A00 X   3      13.048  18.892   7.3740  0.00  0.00     0.000 HD
BRANCH 42 49
ATOM     49   O  A00 X   3      15.666  18.191   9.3220  0.00  0.00     0.000 O
ATOM     50   O  A00 X   3      17.085  20.118   9.3530  0.00  0.00     0.000 OA
ATOM     51   O  A00 X   3      17.781  18.208   8.1460  0.00  0.00     0.000 OA
ATOM     52   O  A00 X   3      17.692  18.080  10.5040  0.00  0.00     0.000 OA
ATOM     53   S  A00 X   3      17.140  18.690   9.3440  0.00  0.00     0.000 S
ENDBRANCH 42 49
BRANCH 45 54
ATOM     54   C  A00 X   3      12.158  14.995   8.4330  0.00  0.00     0.000 C
ATOM     55   O  A00 X   3      12.142  15.175   7.2320  0.00  0.00     0.000 OA
ATOM     56   O  A00 X   3      11.736  13.935   8.8700  0.00  0.00     0.000 OA
ENDBRANCH 45 54
BRANCH 41 57
ATOM     57  O4  A00 X   4      15.296  14.760   8.1110  0.00  0.00     0.000 O
BRANCH 57 61
ATOM     58  C1  A00 X   4      15.720  10.513   8.7610  0.00  0.00     0.000 C
ATOM     59  C2  A00 X   4      14.367  11.051   8.2330  0.00  0.00     0.000 C
ATOM     60  C3  A00 X   4      14.444  12.497   7.7040  0.00  0.00     0.000 C
ATOM     61  C4  A00 X   4      15.177  13.431   8.6920  0.00  0.00     0.000 C
ATOM     62  C5  A00 X   4      16.581  12.815   8.9140  0.00  0.00     0.000 C
ATOM     63  O5  A00 X   4      16.437  11.508   9.5280  0.00  0.00     0.000 O
BRANCH 59 66
ATOM     64   N  A00 X   4      13.194  11.130   9.1230  0.00  0.00     0.000 N
ATOM     66  HD  A00 X   4      13.335  11.325   9.9540  0.00  0.00     0.000 HD
ATOM     66   O  A00 X   4      13.002   8.738   8.9170  0.00  0.00     0.000 OA
ATOM     67   S  A00 X   4      12.187   9.888   9.1610  0.00  0.00     0.000 S
ATOM     68   O  A00 X   4      11.676  10.010  10.4950  0.00  0.00     0.000 OA
ATOM     69   O  A00 X   4      11.260  10.281   8.1380  0.00  0.00     0.000 OA
ENDBRANCH 59 66
BRANCH 62 70
ATOM     70   C  A00 X   4      17.515  13.673   9.7990  0.00  0.00     0.000 C
ATOM     71   O  A00 X   4      18.713  12.994  13.1470  0.00  0.00     0.000 OA
ATOM     72   O  A00 X   4      17.730  14.929  12.2320  0.00  0.00     0.000 OA
ATOM     73   O  A00 X   4      17.922  12.907  10.9440  0.00  0.00     0.000 O
ATOM     74   O  A00 X   4      16.334  13.000  12.7540  0.00  0.00     0.000 OA
ATOM     75   S  A00 X   4      17.616  13.493  12.3660  0.00  0.00     0.000 S
ENDBRANCH 62 70
ENDBRANCH 57 61
ENDBRANCH 41 57
ENDBRANCH 40 44
ENDBRANCH 20 40
ENDBRANCH 19 23
ENDBRANCH 1 19
TORSDOF 14
ENDMDL
MODEL 44
REMARK VINA RESULT:      -3.6      5.050     12.193
ROOT
ATOM      1  C1  A00 X   1      20.502  17.817   5.6230  0.00  0.00     0.000 C
ATOM      2  C2  A00 X   1      20.739  19.332   5.8630  0.00  0.00     0.000 C
ATOM      3  C3  A00 X   1      22.225  19.769   6.0810  0.00  0.00     0.000 C
ATOM      4  C4  A00 X   1      23.220  18.622   6.3950  0.00  0.00     0.000 C
ATOM      5  C5  A00 X   1      22.518  17.389   6.9640  0.00  0.00     0.000 C
ATOM      6  O5  A00 X   1      21.630  16.954   5.9110  0.00  0.00     0.000 O
ATOM      7   O  A00 X   1      22.280  20.667   7.1870  0.00  0.00     0.000 O
ATOM      9  HD  A00 X   1      22.960  20.135   7.2570  0.00  0.00     0.000 HD
ATOM      9   O  A00 X   1      23.977  18.257   5.2420  0.00  0.00     0.000 O
ATOM     11  HD  A00 X   1      24.656  17.725   5.3110  0.00  0.00     0.000 HD
ENDROOT
BRANCH 2 11
ATOM     11   O  A00 X   1      20.201  20.045   4.7330  0.00  0.00     0.000 O
ATOM     12   O  A00 X   1      20.674  22.369   4.3550  0.00  0.00     0.000 OA
ATOM     13   O  A00 X   1      19.426  21.715   6.3380  0.00  0.00     0.000 OA
ATOM     14   O  A00 X   1      18.456  21.494   4.1770  0.00  0.00     0.000 OA
ATOM     15   S  A00 X   1      19.677  21.508   4.9380  0.00  0.00     0.000 S
ENDBRANCH 2 11
BRANCH 5 16
ATOM     16   C  A00 X   1      21.816  17.606   8.3080  0.00  0.00     0.000 C
ATOM     17   O  A00 X   1      22.093  18.594   8.9560  0.00  0.00     0.000 OA
ATOM     18   O  A00 X   1      20.989  16.829   8.7440  0.00  0.00     0.000 OA
ENDBRANCH 5 16
BRANCH 1 19
ATOM     19  O4  A00 X   2      19.291  17.332   6.2530  0.00  0.00     0.000 O
BRANCH 19 23
ATOM     20  C1  A00 X   2      15.373  16.642   4.6590  0.00  0.00     0.000 C
ATOM     21  C2  A00 X   2      16.567  15.979   3.9310  0.00  0.00     0.000 C
ATOM     22  C3  A00 X   2      17.816  15.951   4.8370  0.00  0.00     0.000 C
ATOM     23  C4  A00 X   2      18.143  17.369   5.3580  0.00  0.00     0.000 C
ATOM     24  C5  A00 X   2      16.867  17.927   6.0460  0.00  0.00     0.000 C
ATOM     25  O5  A00 X   2      15.792  17.970   5.0730  0.00  0.00     0.000 O
ATOM     26   O  A00 X   2      18.874  15.267   4.1430  0.00  0.00     0.000 O
ATOM     28  HD  A00 X   2      18.778  15.742   3.4250  0.00  0.00     0.000 HD
BRANCH 21 30
ATOM     28   N  A00 X   2      15.864  16.183   2.6610  0.00  0.00     0.000 N
ATOM     30  HD  A00 X   2      16.490  15.605   2.5100  0.00  0.00     0.000 HD
ATOM     30   O  A00 X   2      16.433  14.430   1.2250  0.00  0.00     0.000 OA
ATOM     31   S  A00 X   2      16.615  15.836   1.3140  0.00  0.00     0.000 S
ATOM     32   O  A00 X   2      15.914  16.599   0.3280  0.00  0.00     0.000 OA
ATOM     33   O  A00 X   2      17.961  16.309   1.4450  0.00  0.00     0.000 OA
ENDBRANCH 21 30
BRANCH 24 34
ATOM     34   C  A00 X   2      16.994  19.240   6.8540  0.00  0.00     0.000 C
ATOM     35   O  A00 X   2      16.369  19.503  10.4320  0.00  0.00     0.000 OA
ATOM     36   O  A00 X   2      16.355  19.125   8.1420  0.00  0.00     0.000 O
ATOM     37   O  A00 X   2      17.916  17.996   9.4680  0.00  0.00     0.000 OA
ATOM     38   S  A00 X   2      17.309  19.289   9.3810  0.00  0.00     0.000 S
ATOM     39   O  A00 X   2      18.161  20.404   9.0920  0.00  0.00     0.000 OA
ENDBRANCH 24 34
BRANCH 20 40
ATOM     40  O4  A00 X   3      15.129  15.833   5.8190  0.00  0.00     0.000 O
BRANCH 40 44
ATOM     41  C1  A00 X   3      14.411  15.448   9.3490  0.00  0.00     0.000 C
ATOM     42  C2  A00 X   3      14.562  14.281   8.3490  0.00  0.00     0.000 C
ATOM     43  C3  A00 X   3      13.673  14.504   7.0980  0.00  0.00     0.000 C
ATOM     44  C4  A00 X   3      13.829  15.873   6.4470  0.00  0.00     0.000 C
ATOM     45  C5  A00 X   3      13.660  16.992   7.5130  0.00  0.00     0.000 C
ATOM     46  O5  A00 X   3      14.508  16.735   8.6790  0.00  0.00     0.000 O
ATOM     47   O  A00 X   3      13.665  13.445   6.1430  0.00  0.00     0.000 O
ATOM     49  HD  A00 X   3      13.660  14.104   5.5800  0.00  0.00     0.000 HD
BRANCH 42 49
ATOM     49   O  A00 X   3      15.960  14.203   7.9960  0.00  0.00     0.000 O
ATOM     50   O  A00 X   3      17.317  12.828   6.5820  0.00  0.00     0.000 OA
ATOM     51   O  A00 X   3      15.633  11.808   7.8910  0.00  0.00     0.000 OA
ATOM     52   O  A00 X   3      17.505  12.741   8.9920  0.00  0.00     0.000 OA
ATOM     53   S  A00 X   3      16.659  12.820   7.8510  0.00  0.00     0.000 S
ENDBRANCH 42 49
BRANCH 45 54
ATOM     54   C  A00 X   3      12.187  17.212   7.8750  0.00  0.00     0.000 C
ATOM     55   O  A00 X   3      11.869  18.056   8.6880  0.00  0.00     0.000 OA
ATOM     56   O  A00 X   3      11.308  16.544   7.3540  0.00  0.00     0.000 OA
ENDBRANCH 45 54
BRANCH 41 57
ATOM     57  O4  A00 X   4      13.230  15.300  10.1680  0.00  0.00     0.000 O
BRANCH 57 61
ATOM     58  C1  A00 X   4      12.476  15.926  14.3730  0.00  0.00     0.000 C
ATOM     59  C2  A00 X   4      12.318  17.125  13.4050  0.00  0.00     0.000 C
ATOM     60  C3  A00 X   4      12.257  16.712  11.9200  0.00  0.00     0.000 C
ATOM     61  C4  A00 X   4      13.382  15.721  11.5540  0.00  0.00     0.000 C
ATOM     62  C5  A00 X   4      13.221  14.508  12.5040  0.00  0.00     0.000 C
ATOM     63  O5  A00 X   4      13.414  14.946  13.8730  0.00  0.00     0.000 O
BRANCH 59 66
ATOM     64   N  A00 X   4      13.624  17.602  13.8940  0.00  0.00     0.000 N
ATOM     66  HD  A00 X   4      14.111  17.043  14.3430  0.00  0.00     0.000 HD
ATOM     66   O  A00 X   4      12.421  18.993  15.4490  0.00  0.00     0.000 OA
ATOM     67   S  A00 X   4      13.665  18.954  14.7470  0.00  0.00     0.000 S
ATOM     68   O  A00 X   4      14.824  18.714  15.5570  0.00  0.00     0.000 OA
ATOM     69   O  A00 X   4      13.871  19.910  13.6950  0.00  0.00     0.000 OA
ENDBRANCH 59 66
BRANCH 62 70
ATOM     70   C  A00 X   4      14.201  13.346  12.2160  0.00  0.00     0.000 C
ATOM     71   O  A00 X   4      13.493  10.087  10.8060  0.00  0.00     0.000 OA
ATOM     72   O  A00 X   4      14.710  10.696  12.7280  0.00  0.00     0.000 OA
ATOM     73   O  A00 X   4      13.533  12.345  11.4310  0.00  0.00     0.000 O
ATOM     74   O  A00 X   4      12.275  10.784  12.7680  0.00  0.00     0.000 OA
ATOM     75   S  A00 X   4      13.475  10.885  12.0000  0.00  0.00     0.000 S
ENDBRANCH 62 70
ENDBRANCH 57 61
ENDBRANCH 41 57
ENDBRANCH 40 44
ENDBRANCH 20 40
ENDBRANCH 19 23
ENDBRANCH 1 19
TORSDOF 14
ENDMDL
MODEL 45
REMARK VINA RESULT:      -3.5      5.963      9.395
ROOT
ATOM      1  C1  A00 X   1      14.443  16.850   7.2620  0.00  0.00     0.000 C
ATOM      2  C2  A00 X   1      13.157  16.890   8.1310  0.00  0.00     0.000 C
ATOM      3  C3  A00 X   1      13.042  15.792   9.2380  0.00  0.00     0.000 C
ATOM      4  C4  A00 X   1      14.020  14.597   9.1000  0.00  0.00     0.000 C
ATOM      5  C5  A00 X   1      14.522  14.426   7.6660  0.00  0.00     0.000 C
ATOM      6  O5  A00 X   1      15.241  15.646   7.3810  0.00  0.00     0.000 O
ATOM      7   O  A00 X   1      11.726  15.244   9.2040  0.00  0.00     0.000 O
ATOM      9  HD  A00 X   1      12.274  14.584   9.3220  0.00  0.00     0.000 HD
ATOM      9   O  A00 X   1      15.130  14.726   9.9880  0.00  0.00     0.000 O
ATOM     11  HD  A00 X   1      15.678  14.066  10.1060  0.00  0.00     0.000 HD
ENDROOT
BRANCH 2 11
ATOM     11   O  A00 X   1      13.087  18.190   8.7490  0.00  0.00     0.000 O
ATOM     12   O  A00 X   1      11.422  18.724  10.3950  0.00  0.00     0.000 OA
ATOM     13   O  A00 X   1      10.725  18.198   8.1250  0.00  0.00     0.000 OA
ATOM     14   O  A00 X   1      11.917  20.204   8.5850  0.00  0.00     0.000 OA
ATOM     15   S  A00 X   1      11.681  18.843   8.9830  0.00  0.00     0.000 S
ENDBRANCH 2 11
BRANCH 5 16
ATOM     16   C  A00 X   1      13.438  14.097   6.6350  0.00  0.00     0.000 C
ATOM     17   O  A00 X   1      13.708  14.198   5.4560  0.00  0.00     0.000 OA
ATOM     18   O  A00 X   1      12.323  13.734   6.9540  0.00  0.00     0.000 OA
ENDBRANCH 5 16
BRANCH 1 19
ATOM     19  O4  A00 X   2      14.193  17.184   5.8740  0.00  0.00     0.000 O
BRANCH 19 23
ATOM     20  C1  A00 X   2      17.701  19.620   5.5210  0.00  0.00     0.000 C
ATOM     21  C2  A00 X   2      16.351  20.341   5.7490  0.00  0.00     0.000 C
ATOM     22  C3  A00 X   2      15.286  19.358   6.2800  0.00  0.00     0.000 C
ATOM     23  C4  A00 X   2      15.162  18.134   5.3450  0.00  0.00     0.000 C
ATOM     24  C5  A00 X   2      16.578  17.515   5.1840  0.00  0.00     0.000 C
ATOM     25  O5  A00 X   2      17.462  18.513   4.6110  0.00  0.00     0.000 O
ATOM     26   O  A00 X   2      14.074  20.087   6.5390  0.00  0.00     0.000 O
ATOM     28  HD  A00 X   2      14.074  20.463   5.7590  0.00  0.00     0.000 HD
BRANCH 21 30
ATOM     28   N  A00 X   2      15.938  21.345   6.7340  0.00  0.00     0.000 N
ATOM     30  HD  A00 X   2      16.281  21.776   6.0660  0.00  0.00     0.000 HD
ATOM     30   O  A00 X   2      15.884  23.426   5.6730  0.00  0.00     0.000 OA
ATOM     31   S  A00 X   2      16.620  22.771   6.6950  0.00  0.00     0.000 S
ATOM     32   O  A00 X   2      16.410  23.283   8.0140  0.00  0.00     0.000 OA
ATOM     33   O  A00 X   2      18.018  22.565   6.4590  0.00  0.00     0.000 OA
ENDBRANCH 21 30
BRANCH 24 34
ATOM     34   C  A00 X   2      16.694  16.141   4.4820  0.00  0.00     0.000 C
ATOM     35   O  A00 X   2      15.959  15.582   0.9590  0.00  0.00     0.000 OA
ATOM     36   O  A00 X   2      16.013  16.145   3.2110  0.00  0.00     0.000 O
ATOM     37   O  A00 X   2      17.520  17.175   1.7470  0.00  0.00     0.000 OA
ATOM     38   S  A00 X   2      16.930  15.889   1.9590  0.00  0.00     0.000 S
ATOM     39   O  A00 X   2      17.802  14.809   2.3100  0.00  0.00     0.000 OA
ENDBRANCH 24 34
BRANCH 20 40
ATOM     40  O4  A00 X   3      18.090  19.110   6.8050  0.00  0.00     0.000 O
BRANCH 40 44
ATOM     41  C1  A00 X   3      19.323  16.234   8.6310  0.00  0.00     0.000 C
ATOM     42  C2  A00 X   3      18.927  17.581   9.2730  0.00  0.00     0.000 C
ATOM     43  C3  A00 X   3      19.621  18.766   8.5530  0.00  0.00     0.000 C
ATOM     44  C4  A00 X   3      19.471  18.760   7.0370  0.00  0.00     0.000 C
ATOM     45  C5  A00 X   3      19.893  17.377   6.4650  0.00  0.00     0.000 C
ATOM     46  O5  A00 X   3      19.223  16.290   7.1810  0.00  0.00     0.000 O
ATOM     47   O  A00 X   3      19.396  20.056   9.1170  0.00  0.00     0.000 O
ATOM     49  HD  A00 X   3      19.363  20.291   8.2840  0.00  0.00     0.000 HD
BRANCH 42 49
ATOM     49   O  A00 X   3      17.488  17.682   9.1900  0.00  0.00     0.000 O
ATOM     50   O  A00 X   3      15.829  19.305   9.7760  0.00  0.00     0.000 OA
ATOM     51   O  A00 X   3      17.617  18.911  11.2710  0.00  0.00     0.000 OA
ATOM     52   O  A00 X   3      16.016  17.202  10.9550  0.00  0.00     0.000 OA
ATOM     53   S  A00 X   3      16.676  18.312  10.3580  0.00  0.00     0.000 S
ENDBRANCH 42 49
BRANCH 45 54
ATOM     54   C  A00 X   3      21.418  17.222   6.4230  0.00  0.00     0.000 C
ATOM     55   O  A00 X   3      22.140  18.072   6.9010  0.00  0.00     0.000 OA
ATOM     56   O  A00 X   3      21.932  16.242   5.9070  0.00  0.00     0.000 OA
ENDBRANCH 45 54
BRANCH 41 57
ATOM     57  O4  A00 X   4      20.604  15.769   9.1130  0.00  0.00     0.000 O
BRANCH 57 61
ATOM     58  C1  A00 X   4      22.209  11.829   9.8450  0.00  0.00     0.000 C
ATOM     59  C2  A00 X   4      21.755  12.189   8.4080  0.00  0.00     0.000 C
ATOM     60  C3  A00 X   4      21.545  13.701   8.1910  0.00  0.00     0.000 C
ATOM     61  C4  A00 X   4      20.701  14.331   9.3200  0.00  0.00     0.000 C
ATOM     62  C5  A00 X   4      21.449  14.030  10.6430  0.00  0.00     0.000 C
ATOM     63  O5  A00 X   4      21.500  12.594  10.8450  0.00  0.00     0.000 O
BRANCH 59 66
ATOM     64   N  A00 X   4      20.849  11.791   7.3150  0.00  0.00     0.000 N
ATOM     66  HD  A00 X   4      19.998  11.806   7.4750  0.00  0.00     0.000 HD
ATOM     66   O  A00 X   4      21.648   9.538   7.6080  0.00  0.00     0.000 OA
ATOM     67   S  A00 X   4      21.104  10.387   6.5940  0.00  0.00     0.000 S
ATOM     68   O  A00 X   4      19.771  10.068   6.1710  0.00  0.00     0.000 OA
ATOM     69   O  A00 X   4      21.974  10.803   5.5310  0.00  0.00     0.000 OA
ENDBRANCH 59 66
BRANCH 62 70
ATOM     70   C  A00 X   4      20.809  14.681  11.8920  0.00  0.00     0.000 C
ATOM     71   O  A00 X   4      17.664  13.884  13.4980  0.00  0.00     0.000 OA
ATOM     72   O  A00 X   4      18.562  15.954  12.8260  0.00  0.00     0.000 OA
ATOM     73   O  A00 X   4      19.688  13.890  12.3180  0.00  0.00     0.000 O
ATOM     74   O  A00 X   4      17.652  14.436  11.1510  0.00  0.00     0.000 OA
ATOM     75   S  A00 X   4      18.290  14.594  12.4180  0.00  0.00     0.000 S
ENDBRANCH 62 70
ENDBRANCH 57 61
ENDBRANCH 41 57
ENDBRANCH 40 44
ENDBRANCH 20 40
ENDBRANCH 19 23
ENDBRANCH 1 19
TORSDOF 14
ENDMDL
MODEL 46
REMARK VINA RESULT:      -3.4      3.248     10.391
ROOT
ATOM      1  C1  A00 X   1      20.199  15.587   7.1590  0.00  0.00     0.000 C
ATOM      2  C2  A00 X   1      21.343  14.539   7.1330  0.00  0.00     0.000 C
ATOM      3  C3  A00 X   1      22.286  14.581   5.8860  0.00  0.00     0.000 C
ATOM      4  C4  A00 X   1      21.760  15.396   4.6770  0.00  0.00     0.000 C
ATOM      5  C5  A00 X   1      20.239  15.546   4.7000  0.00  0.00     0.000 C
ATOM      6  O5  A00 X   1      19.962  16.285   5.9110  0.00  0.00     0.000 O
ATOM      7   O  A00 X   1      22.488  13.249   5.4190  0.00  0.00     0.000 O
ATOM      9  HD  A00 X   1      22.382  13.750   4.7210  0.00  0.00     0.000 HD
ATOM      9   O  A00 X   1      22.371  16.684   4.6100  0.00  0.00     0.000 O
ATOM     11  HD  A00 X   1      22.265  17.186   3.9120  0.00  0.00     0.000 HD
ENDROOT
BRANCH 2 11
ATOM     11   O  A00 X   1      22.132  14.721   8.3250  0.00  0.00     0.000 O
ATOM     12   O  A00 X   1      24.317  13.752   8.5620  0.00  0.00     0.000 OA
ATOM     13   O  A00 X   1      22.382  12.291   8.3560  0.00  0.00     0.000 OA
ATOM     14   O  A00 X   1      22.688  13.618  10.3060  0.00  0.00     0.000 OA
ATOM     15   S  A00 X   1      22.937  13.503   8.8950  0.00  0.00     0.000 S
ENDBRANCH 2 11
BRANCH 5 16
ATOM     16   C  A00 X   1      19.456  14.234   4.5910  0.00  0.00     0.000 C
ATOM     17   O  A00 X   1      20.032  13.246   4.1830  0.00  0.00     0.000 OA
ATOM     18   O  A00 X   1      18.285  14.145   4.9030  0.00  0.00     0.000 OA
ENDBRANCH 5 16
BRANCH 1 19
ATOM     19  O4  A00 X   2      18.968  15.062   7.7130  0.00  0.00     0.000 O
BRANCH 19 23
ATOM     20  C1  A00 X   2      15.577  17.012   9.4640  0.00  0.00     0.000 C
ATOM     21  C2  A00 X   2      15.835  17.244   7.9550  0.00  0.00     0.000 C
ATOM     22  C3  A00 X   2      16.788  16.171   7.3890  0.00  0.00     0.000 C
ATOM     23  C4  A00 X   2      18.091  16.109   8.2180  0.00  0.00     0.000 C
ATOM     24  C5  A00 X   2      17.698  15.893   9.7050  0.00  0.00     0.000 C
ATOM     25  O5  A00 X   2      16.866  17.002  10.1340  0.00  0.00     0.000 O
ATOM     26   O  A00 X   2      16.941  16.389   5.9760  0.00  0.00     0.000 O
ATOM     28  HD  A00 X   2      17.124  17.229   6.0750  0.00  0.00     0.000 HD
BRANCH 21 30
ATOM     28   N  A00 X   2      15.566  17.324   6.5160  0.00  0.00     0.000 N
ATOM     30  HD  A00 X   2      15.012  17.865   6.9050  0.00  0.00     0.000 HD
ATOM     30   O  A00 X   2      14.296  19.244   6.1200  0.00  0.00     0.000 OA
ATOM     31   S  A00 X   2      14.149  17.834   6.0360  0.00  0.00     0.000 S
ATOM     32   O  A00 X   2      14.035  17.317   4.7080  0.00  0.00     0.000 OA
ATOM     33   O  A00 X   2      13.171  17.231   6.8910  0.00  0.00     0.000 OA
ENDBRANCH 21 30
BRANCH 24 34
ATOM     34   C  A00 X   2      18.825  15.567  10.7130  0.00  0.00     0.000 C
ATOM     35   O  A00 X   2      18.329  13.680  13.7870  0.00  0.00     0.000 OA
ATOM     36   O  A00 X   2      18.285  15.132  11.9770  0.00  0.00     0.000 O
ATOM     37   O  A00 X   2      17.749  12.881  11.6380  0.00  0.00     0.000 OA
ATOM     38   S  A00 X   2      18.669  13.668  12.4020  0.00  0.00     0.000 S
ATOM     39   O  A00 X   2      20.065  13.517  12.1210  0.00  0.00     0.000 OA
ENDBRANCH 24 34
BRANCH 20 40
ATOM     40  O4  A00 X   3      14.977  15.711   9.5590  0.00  0.00     0.000 O
BRANCH 40 44
ATOM     41  C1  A00 X   3      13.404  12.537  10.3130  0.00  0.00     0.000 C
ATOM     42  C2  A00 X   3      12.868  13.564   9.2930  0.00  0.00     0.000 C
ATOM     43  C3  A00 X   3      12.776  14.977   9.9240  0.00  0.00     0.000 C
ATOM     44  C4  A00 X   3      14.045  15.441  10.6280  0.00  0.00     0.000 C
ATOM     45  C5  A00 X   3      14.518  14.359  11.6390  0.00  0.00     0.000 C
ATOM     46  O5  A00 X   3      14.581  13.041  11.0040  0.00  0.00     0.000 O
ATOM     47   O  A00 X   3      12.210  15.993   9.0980  0.00  0.00     0.000 O
ATOM     49  HD  A00 X   3      12.830  16.476   9.4620  0.00  0.00     0.000 HD
BRANCH 42 49
ATOM     49   O  A00 X   3      13.768  13.548   8.1640  0.00  0.00     0.000 O
ATOM     50   O  A00 X   3      13.642  14.106   5.8390  0.00  0.00     0.000 OA
ATOM     51   O  A00 X   3      11.833  12.957   6.8370  0.00  0.00     0.000 OA
ATOM     52   O  A00 X   3      13.888  11.818   6.5810  0.00  0.00     0.000 OA
ATOM     53   S  A00 X   3      13.267  13.084   6.7650  0.00  0.00     0.000 S
ENDBRANCH 42 49
BRANCH 45 54
ATOM     54   C  A00 X   3      13.675  14.372  12.9200  0.00  0.00     0.000 C
ATOM     55   O  A00 X   3      12.964  15.320  13.1830  0.00  0.00     0.000 OA
ATOM     56   O  A00 X   3      13.704  13.430  13.6980  0.00  0.00     0.000 OA
ENDBRANCH 45 54
BRANCH 41 57
ATOM     57  O4  A00 X   4      12.361  12.067  11.1970  0.00  0.00     0.000 O
BRANCH 57 61
ATOM     58  C1  A00 X   4      11.904   7.828  11.8760  0.00  0.00     0.000 C
ATOM     59  C2  A00 X   4      11.388   8.812  12.9560  0.00  0.00     0.000 C
ATOM     60  C3  A00 X   4      11.274  10.267  12.4580  0.00  0.00     0.000 C
ATOM     61  C4  A00 X   4      12.551  10.721  11.7170  0.00  0.00     0.000 C
ATOM     62  C5  A00 X   4      12.758   9.721  10.5530  0.00  0.00     0.000 C
ATOM     63  O5  A00 X   4      12.983   8.395  11.0980  0.00  0.00     0.000 O
BRANCH 59 66
ATOM     64   N  A00 X   4      10.172   8.668  13.7760  0.00  0.00     0.000 N
ATOM     66  HD  A00 X   4      10.002   9.292  14.3530  0.00  0.00     0.000 HD
ATOM     66   O  A00 X   4      11.273   6.852  14.9110  0.00  0.00     0.000 OA
ATOM     67   S  A00 X   4       9.958   7.302  14.5800  0.00  0.00     0.000 S
ATOM     68   O  A00 X   4       9.170   7.771  15.6820  0.00  0.00     0.000 OA
ATOM     69   O  A00 X   4       9.218   6.549  13.6070  0.00  0.00     0.000 OA
ENDBRANCH 59 66
BRANCH 62 70
ATOM     70   C  A00 X   4      13.939  10.075   9.6180  0.00  0.00     0.000 C
ATOM     71   O  A00 X   4      15.393   8.092   6.9610  0.00  0.00     0.000 OA
ATOM     72   O  A00 X   4      16.407   9.240   8.7490  0.00  0.00     0.000 OA
ATOM     73   O  A00 X   4      14.013   9.107   8.5590  0.00  0.00     0.000 O
ATOM     74   O  A00 X   4      15.256   7.135   9.1700  0.00  0.00     0.000 OA
ATOM     75   S  A00 X   4      15.357   8.318   8.3780  0.00  0.00     0.000 S
ENDBRANCH 62 70
ENDBRANCH 57 61
ENDBRANCH 41 57
ENDBRANCH 40 44
ENDBRANCH 20 40
ENDBRANCH 19 23
ENDBRANCH 1 19
TORSDOF 14
ENDMDL
MODEL 47
REMARK VINA RESULT:      -3.1      6.749     11.110
ROOT
ATOM      1  C1  A00 X   1      13.113  20.946  15.3950  0.00  0.00     0.000 C
ATOM      2  C2  A00 X   1      12.030  20.231  16.2460  0.00  0.00     0.000 C
ATOM      3  C3  A00 X   1      12.406  19.945  17.7380  0.00  0.00     0.000 C
ATOM      4  C4  A00 X   1      13.912  20.067  18.0830  0.00  0.00     0.000 C
ATOM      5  C5  A00 X   1      14.802  19.906  16.8500  0.00  0.00     0.000 C
ATOM      6  O5  A00 X   1      14.435  21.006  15.9870  0.00  0.00     0.000 O
ATOM      7   O  A00 X   1      12.024  18.608  18.0560  0.00  0.00     0.000 O
ATOM      9  HD  A00 X   1      12.798  18.746  18.4190  0.00  0.00     0.000 HD
ATOM      9   O  A00 X   1      14.201  21.307  18.7270  0.00  0.00     0.000 O
ATOM     11  HD  A00 X   1      14.975  21.445  19.0900  0.00  0.00     0.000 HD
ENDROOT
BRANCH 2 11
ATOM     11   O  A00 X   1      10.839  21.042  16.2100  0.00  0.00     0.000 O
ATOM     12   O  A00 X   1       8.936  20.565  17.5950  0.00  0.00     0.000 OA
ATOM     13   O  A00 X   1       9.605  18.957  15.8970  0.00  0.00     0.000 OA
ATOM     14   O  A00 X   1       8.702  21.066  15.2700  0.00  0.00     0.000 OA
ATOM     15   S  A00 X   1       9.440  20.336  16.2650  0.00  0.00     0.000 S
ENDBRANCH 2 11
BRANCH 5 16
ATOM     16   C  A00 X   1      14.720  18.537  16.1670  0.00  0.00     0.000 C
ATOM     17   O  A00 X   1      14.222  17.612  16.7750  0.00  0.00     0.000 OA
ATOM     18   O  A00 X   1      15.130  18.346  15.0390  0.00  0.00     0.000 OA
ENDBRANCH 5 16
BRANCH 1 19
ATOM     19  O4  A00 X   2      13.166  20.461  14.0320  0.00  0.00     0.000 O
BRANCH 19 23
ATOM     20  C1  A00 X   2      10.146  20.234  10.9990  0.00  0.00     0.000 C
ATOM     21  C2  A00 X   2      10.402  21.615  11.6520  0.00  0.00     0.000 C
ATOM     22  C3  A00 X   2      11.763  21.636  12.3770  0.00  0.00     0.000 C
ATOM     23  C4  A00 X   2      11.861  20.469  13.3850  0.00  0.00     0.000 C
ATOM     24  C5  A00 X   2      11.569  19.152  12.6150  0.00  0.00     0.000 C
ATOM     25  O5  A00 X   2      10.236  19.230  12.0450  0.00  0.00     0.000 O
ATOM     26   O  A00 X   2      11.984  22.955  12.9050  0.00  0.00     0.000 O
ATOM     28  HD  A00 X   2      11.206  22.988  13.2850  0.00  0.00     0.000 HD
BRANCH 21 30
ATOM     28   N  A00 X   2      10.679  23.052  11.7280  0.00  0.00     0.000 N
ATOM     30  HD  A00 X   2       9.938  22.963  11.2880  0.00  0.00     0.000 HD
ATOM     30   O  A00 X   2       8.716  24.200  11.1890  0.00  0.00     0.000 OA
ATOM     31   S  A00 X   2      10.019  24.009  10.6570  0.00  0.00     0.000 S
ATOM     32   O  A00 X   2      10.856  25.169  10.6770  0.00  0.00     0.000 OA
ATOM     33   O  A00 X   2      10.111  23.352   9.3870  0.00  0.00     0.000 OA
ENDBRANCH 21 30
BRANCH 24 34
ATOM     34   C  A00 X   2      11.828  17.812  13.3440  0.00  0.00     0.000 C
ATOM     35   O  A00 X   2      13.116  14.820  11.7190  0.00  0.00     0.000 OA
ATOM     36   O  A00 X   2      11.990  16.729  12.4070  0.00  0.00     0.000 O
ATOM     37   O  A00 X   2      14.204  16.919  11.6760  0.00  0.00     0.000 OA
ATOM     38   S  A00 X   2      13.393  16.019  12.4380  0.00  0.00     0.000 S
ATOM     39   O  A00 X   2      13.723  15.836  13.8200  0.00  0.00     0.000 OA
ENDBRANCH 24 34
BRANCH 20 40
ATOM     40  O4  A00 X   3      11.214  20.046  10.0600  0.00  0.00     0.000 O
BRANCH 40 44
ATOM     41  C1  A00 X   3      13.680  19.128   7.5700  0.00  0.00     0.000 C
ATOM     42  C2  A00 X   3      12.768  20.371   7.4890  0.00  0.00     0.000 C
ATOM     43  C3  A00 X   3      11.283  19.986   7.7120  0.00  0.00     0.000 C
ATOM     44  C4  A00 X   3      11.029  19.138   8.9520  0.00  0.00     0.000 C
ATOM     45  C5  A00 X   3      11.978  17.907   8.9590  0.00  0.00     0.000 C
ATOM     46  O5  A00 X   3      13.366  18.316   8.7350  0.00  0.00     0.000 O
ATOM     47   O  A00 X   3      10.337  21.044   7.5730  0.00  0.00     0.000 O
ATOM     49  HD  A00 X   3       9.965  20.649   8.2480  0.00  0.00     0.000 HD
BRANCH 42 49
ATOM     49   O  A00 X   3      13.230  21.301   8.4930  0.00  0.00     0.000 O
ATOM     50   O  A00 X   3      13.560  23.667   8.6430  0.00  0.00     0.000 OA
ATOM     51   O  A00 X   3      14.198  22.549   6.6600  0.00  0.00     0.000 OA
ATOM     52   O  A00 X   3      15.423  22.126   8.6370  0.00  0.00     0.000 OA
ATOM     53   S  A00 X   3      14.157  22.488   8.1000  0.00  0.00     0.000 S
ENDBRANCH 42 49
BRANCH 45 54
ATOM     54   C  A00 X   3      11.505  16.820   7.9870  0.00  0.00     0.000 C
ATOM     55   O  A00 X   3      11.963  15.697   8.0450  0.00  0.00     0.000 OA
ATOM     56   O  A00 X   3      10.661  17.064   7.1390  0.00  0.00     0.000 OA
ENDBRANCH 45 54
BRANCH 41 57
ATOM     57  O4  A00 X   4      13.690  18.391   6.3260  0.00  0.00     0.000 O
BRANCH 57 61
ATOM     58  C1  A00 X   4      16.717  16.097   4.2730  0.00  0.00     0.000 C
ATOM     59  C2  A00 X   4      16.008  15.463   5.4960  0.00  0.00     0.000 C
ATOM     60  C3  A00 X   4      14.724  16.206   5.9160  0.00  0.00     0.000 C
ATOM     61  C4  A00 X   4      14.949  17.731   6.0090  0.00  0.00     0.000 C
ATOM     62  C5  A00 X   4      15.456  18.183   4.6170  0.00  0.00     0.000 C
ATOM     63  O5  A00 X   4      16.727  17.541   4.3420  0.00  0.00     0.000 O
BRANCH 59 66
ATOM     64   N  A00 X   4      16.521  15.162   6.8450  0.00  0.00     0.000 N
ATOM     66  HD  A00 X   4      17.013  15.763   7.2280  0.00  0.00     0.000 HD
ATOM     66   O  A00 X   4      17.962  13.525   5.8230  0.00  0.00     0.000 OA
ATOM     67   S  A00 X   4      17.308  13.787   7.0670  0.00  0.00     0.000 S
ATOM     68   O  A00 X   4      18.170  14.155   8.1520  0.00  0.00     0.000 OA
ATOM     69   O  A00 X   4      16.219  12.931   7.4450  0.00  0.00     0.000 OA
ENDBRANCH 59 66
BRANCH 62 70
ATOM     70   C  A00 X   4      15.637  19.713   4.4770  0.00  0.00     0.000 C
ATOM     71   O  A00 X   4      18.449  21.542   3.1160  0.00  0.00     0.000 OA
ATOM     72   O  A00 X   4      17.267  21.823   5.1330  0.00  0.00     0.000 OA
ATOM     73   O  A00 X   4      16.789  19.982   3.6620  0.00  0.00     0.000 O
ATOM     74   O  A00 X   4      18.849  19.983   4.9110  0.00  0.00     0.000 OA
ATOM     75   S  A00 X   4      17.929  20.868   4.2720  0.00  0.00     0.000 S
ENDBRANCH 62 70
ENDBRANCH 57 61
ENDBRANCH 41 57
ENDBRANCH 40 44
ENDBRANCH 20 40
ENDBRANCH 19 23
ENDBRANCH 1 19
TORSDOF 14
ENDMDL
MODEL 48
REMARK VINA RESULT:      -2.7      7.714     13.706
ROOT
ATOM      1  C1  A00 X   1      19.019  20.739  11.4210  0.00  0.00     0.000 C
ATOM      2  C2  A00 X   1      19.126  21.352  12.8430  0.00  0.00     0.000 C
ATOM      3  C3  A00 X   1      20.575  21.561  13.3940  0.00  0.00     0.000 C
ATOM      4  C4  A00 X   1      21.695  20.808  12.6310  0.00  0.00     0.000 C
ATOM      5  C5  A00 X   1      21.157  19.605  11.8550  0.00  0.00     0.000 C
ATOM      6  O5  A00 X   1      20.241  20.171  10.8900  0.00  0.00     0.000 O
ATOM      7   O  A00 X   1      20.623  21.100  14.7420  0.00  0.00     0.000 O
ATOM      9  HD  A00 X   1      21.354  20.839  14.3570  0.00  0.00     0.000 HD
ATOM      9   O  A00 X   1      22.399  21.677  11.7450  0.00  0.00     0.000 O
ATOM     11  HD  A00 X   1      23.130  21.416  11.3590  0.00  0.00     0.000 HD
ENDROOT
BRANCH 2 11
ATOM     11   O  A00 X   1      18.443  22.621  12.8260  0.00  0.00     0.000 O
ATOM     12   O  A00 X   1      18.621  24.183  14.6410  0.00  0.00     0.000 OA
ATOM     13   O  A00 X   1      17.578  22.021  15.0300  0.00  0.00     0.000 OA
ATOM     14   O  A00 X   1      16.513  23.642  13.6540  0.00  0.00     0.000 OA
ATOM     15   S  A00 X   1      17.767  23.135  14.1430  0.00  0.00     0.000 S
ENDBRANCH 2 11
BRANCH 5 16
ATOM     16   C  A00 X   1      20.535  18.503  12.7180  0.00  0.00     0.000 C
ATOM     17   O  A00 X   1      19.972  17.581  12.1660  0.00  0.00     0.000 OA
ATOM     18   O  A00 X   1      20.590  18.516  13.9320  0.00  0.00     0.000 OA
ENDBRANCH 5 16
BRANCH 1 19
ATOM     19  O4  A00 X   2      17.908  19.819  11.2890  0.00  0.00     0.000 O
BRANCH 19 23
ATOM     20  C1  A00 X   2      16.178  18.363   7.6490  0.00  0.00     0.000 C
ATOM     21  C2  A00 X   2      16.924  17.343   8.5430  0.00  0.00     0.000 C
ATOM     22  C3  A00 X   2      17.101  17.894   9.9740  0.00  0.00     0.000 C
ATOM     23  C4  A00 X   2      17.787  19.279   9.9420  0.00  0.00     0.000 C
ATOM     24  C5  A00 X   2      16.958  20.197   9.0030  0.00  0.00     0.000 C
ATOM     25  O5  A00 X   2      16.929  19.606   7.6780  0.00  0.00     0.000 O
ATOM     26   O  A00 X   2      17.735  16.887  10.7810  0.00  0.00     0.000 O
ATOM     28  HD  A00 X   2      18.369  16.754  10.2060  0.00  0.00     0.000 HD
BRANCH 21 30
ATOM     28   N  A00 X   2      16.369  16.377   7.5900  0.00  0.00     0.000 N
ATOM     30  HD  A00 X   2      17.138  16.068   7.8420  0.00  0.00     0.000 HD
ATOM     30   O  A00 X   2      17.558  14.377   7.8070  0.00  0.00     0.000 OA
ATOM     31   S  A00 X   2      17.358  15.398   6.8400  0.00  0.00     0.000 S
ATOM     32   O  A00 X   2      16.623  14.997   5.6810  0.00  0.00     0.000 OA
ATOM     33   O  A00 X   2      18.507  16.166   6.4600  0.00  0.00     0.000 OA
ENDBRANCH 21 30
BRANCH 24 34
ATOM     34   C  A00 X   2      17.300  21.706   8.9760  0.00  0.00     0.000 C
ATOM     35   O  A00 X   2      14.824  24.364   9.2280  0.00  0.00     0.000 OA
ATOM     36   O  A00 X   2      16.123  22.504   8.7370  0.00  0.00     0.000 O
ATOM     37   O  A00 X   2      15.077  22.637  10.8250  0.00  0.00     0.000 OA
ATOM     38   S  A00 X   2      15.741  23.498   9.8940  0.00  0.00     0.000 S
ATOM     39   O  A00 X   2      16.961  24.116  10.3170  0.00  0.00     0.000 OA
ENDBRANCH 24 34
BRANCH 20 40
ATOM     40  O4  A00 X   3      14.899  18.560   8.2690  0.00  0.00     0.000 O
BRANCH 40 44
ATOM     41  C1  A00 X   3      11.439  19.033   9.2310  0.00  0.00     0.000 C
ATOM     42  C2  A00 X   3      11.944  17.927   8.2790  0.00  0.00     0.000 C
ATOM     43  C3  A00 X   3      12.831  18.525   7.1560  0.00  0.00     0.000 C
ATOM     44  C4  A00 X   3      13.942  19.444   7.6470  0.00  0.00     0.000 C
ATOM     45  C5  A00 X   3      13.355  20.529   8.5930  0.00  0.00     0.000 C
ATOM     46  O5  A00 X   3      12.518  19.922   9.6300  0.00  0.00     0.000 O
ATOM     47   O  A00 X   3      13.284  17.605   6.1650  0.00  0.00     0.000 O
ATOM     49  HD  A00 X   3      14.011  18.072   6.2250  0.00  0.00     0.000 HD
BRANCH 42 49
ATOM     49   O  A00 X   3      12.680  16.979   9.0840  0.00  0.00     0.000 O
ATOM     50   O  A00 X   3      13.998  15.022   8.6830  0.00  0.00     0.000 OA
ATOM     51   O  A00 X   3      11.996  15.319   7.4610  0.00  0.00     0.000 OA
ATOM     52   O  A00 X   3      11.847  14.897   9.7810  0.00  0.00     0.000 OA
ATOM     53   S  A00 X   3      12.639  15.461   8.7430  0.00  0.00     0.000 S
ENDBRANCH 42 49
BRANCH 45 54
ATOM     54   C  A00 X   3      12.638  21.636   7.8110  0.00  0.00     0.000 C
ATOM     55   O  A00 X   3      12.674  21.660   6.5980  0.00  0.00     0.000 OA
ATOM     56   O  A00 X   3      12.020  22.514   8.3940  0.00  0.00     0.000 OA
ENDBRANCH 45 54
BRANCH 41 57
ATOM     57  O4  A00 X   4      10.285  19.715   8.6920  0.00  0.00     0.000 O
BRANCH 57 61
ATOM     58  C1  A00 X   4       7.446  22.074  10.9310  0.00  0.00     0.000 C
ATOM     59  C2  A00 X   4       8.817  21.755  11.5770  0.00  0.00     0.000 C
ATOM     60  C3  A00 X   4       9.863  21.231  10.5720  0.00  0.00     0.000 C
ATOM     61  C4  A00 X   4       9.287  20.114   9.6750  0.00  0.00     0.000 C
ATOM     62  C5  A00 X   4       8.049  20.719   8.9670  0.00  0.00     0.000 C
ATOM     63  O5  A00 X   4       7.056  21.073   9.9630  0.00  0.00     0.000 O
BRANCH 59 66
ATOM     64   N  A00 X   4       9.504  21.181  12.7480  0.00  0.00     0.000 N
ATOM     66  HD  A00 X   4       9.406  20.332  12.8930  0.00  0.00     0.000 HD
ATOM     66   O  A00 X   4       7.938  22.381  14.1290  0.00  0.00     0.000 OA
ATOM     67   S  A00 X   4       9.271  21.867  14.1740  0.00  0.00     0.000 S
ATOM     68   O  A00 X   4       9.469  20.740  15.0380  0.00  0.00     0.000 OA
ATOM     69   O  A00 X   4      10.353  22.811  14.1800  0.00  0.00     0.000 OA
ENDBRANCH 59 66
BRANCH 62 70
ATOM     70   C  A00 X   4       7.391  19.777   7.9300  0.00  0.00     0.000 C
ATOM     71   O  A00 X   4       5.070  20.601   5.2780  0.00  0.00     0.000 OA
ATOM     72   O  A00 X   4       4.983  18.921   6.9250  0.00  0.00     0.000 OA
ATOM     73   O  A00 X   4       6.740  20.563   6.9200  0.00  0.00     0.000 O
ATOM     74   O  A00 X   4       4.509  21.231   7.5370  0.00  0.00     0.000 OA
ATOM     75   S  A00 X   4       5.208  20.328   6.6810  0.00  0.00     0.000 S
ENDBRANCH 62 70
ENDBRANCH 57 61
ENDBRANCH 41 57
ENDBRANCH 40 44
ENDBRANCH 20 40
ENDBRANCH 19 23
ENDBRANCH 1 19
TORSDOF 14
ENDMDL
MODEL 49
REMARK VINA RESULT:      -2.6      7.426     11.954
ROOT
ATOM      1  C1  A00 X   1      15.434  22.145  15.5100  0.00  0.00     0.000 C
ATOM      2  C2  A00 X   1      14.197  22.092  16.4440  0.00  0.00     0.000 C
ATOM      3  C3  A00 X   1      14.474  21.690  17.9300  0.00  0.00     0.000 C
ATOM      4  C4  A00 X   1      15.857  21.045  18.2010  0.00  0.00     0.000 C
ATOM      5  C5  A00 X   1      16.464  20.430  16.9400  0.00  0.00     0.000 C
ATOM      6  O5  A00 X   1      16.643  21.545  16.0380  0.00  0.00     0.000 O
ATOM      7   O  A00 X   1      13.496  20.735  18.3360  0.00  0.00     0.000 O
ATOM      9  HD  A00 X   1      14.257  20.473  18.6560  0.00  0.00     0.000 HD
ATOM      9   O  A00 X   1      16.770  21.986  18.7660  0.00  0.00     0.000 O
ATOM     11  HD  A00 X   1      17.531  21.724  19.0860  0.00  0.00     0.000 HD
ENDROOT
BRANCH 2 11
ATOM     11   O  A00 X   1      13.572  23.391  16.4180  0.00  0.00     0.000 O
ATOM     12   O  A00 X   1      11.803  23.980  17.9310  0.00  0.00     0.000 OA
ATOM     13   O  A00 X   1      11.440  22.204  16.3090  0.00  0.00     0.000 OA
ATOM     14   O  A00 X   1      11.668  24.461  15.5940  0.00  0.00     0.000 OA
ATOM     15   S  A00 X   1      12.018  23.489  16.5940  0.00  0.00     0.000 S
ENDBRANCH 2 11
BRANCH 5 16
ATOM     16   C  A00 X   1      15.664  19.273  16.3340  0.00  0.00     0.000 C
ATOM     17   O  A00 X   1      14.833  18.718  17.0230  0.00  0.00     0.000 OA
ATOM     18   O  A00 X   1      15.826  18.897  15.1900  0.00  0.00     0.000 OA
ENDBRANCH 5 16
BRANCH 1 19
ATOM     19  O4  A00 X   2      15.148  21.667  14.1720  0.00  0.00     0.000 O
BRANCH 19 23
ATOM     20  C1  A00 X   2      12.427  23.100  11.1880  0.00  0.00     0.000 C
ATOM     21  C2  A00 X   2      13.451  24.108  11.7640  0.00  0.00     0.000 C
ATOM     22  C3  A00 X   2      14.607  23.372  12.4730  0.00  0.00     0.000 C
ATOM     23  C4  A00 X   2      14.058  22.398  13.5390  0.00  0.00     0.000 C
ATOM     24  C5  A00 X   2      13.036  21.458  12.8430  0.00  0.00     0.000 C
ATOM     25  O5  A00 X   2      11.967  22.265  12.2830  0.00  0.00     0.000 O
ATOM     26   O  A00 X   2      15.562  24.345  12.9300  0.00  0.00     0.000 O
ATOM     28  HD  A00 X   2      14.958  24.832  13.3150  0.00  0.00     0.000 HD
BRANCH 21 30
ATOM     28   N  A00 X   2      12.435  25.156  11.6210  0.00  0.00     0.000 N
ATOM     30  HD  A00 X   2      13.194  25.557  11.7390  0.00  0.00     0.000 HD
ATOM     30   O  A00 X   2      13.530  27.174  11.1850  0.00  0.00     0.000 OA
ATOM     31   S  A00 X   2      12.738  26.592  12.2100  0.00  0.00     0.000 S
ATOM     32   O  A00 X   2      11.441  27.171  12.3750  0.00  0.00     0.000 OA
ATOM     33   O  A00 X   2      13.364  26.402  13.4850  0.00  0.00     0.000 OA
ENDBRANCH 21 30
BRANCH 24 34
ATOM     34   C  A00 X   2      12.511  20.240  13.6380  0.00  0.00     0.000 C
ATOM     35   O  A00 X   2      12.204  16.883  12.2620  0.00  0.00     0.000 OA
ATOM     36   O  A00 X   2      12.169  19.150  12.7590  0.00  0.00     0.000 O
ATOM     37   O  A00 X   2      14.216  18.127  12.2760  0.00  0.00     0.000 OA
ATOM     38   S  A00 X   2      13.000  17.832  12.9700  0.00  0.00     0.000 S
ATOM     39   O  A00 X   2      13.077  17.624  14.3850  0.00  0.00     0.000 OA
ENDBRANCH 24 34
BRANCH 20 40
ATOM     40  O4  A00 X   3      13.159  22.300  10.2480  0.00  0.00     0.000 O
BRANCH 40 44
ATOM     41  C1  A00 X   3      13.996  19.241   8.4970  0.00  0.00     0.000 C
ATOM     42  C2  A00 X   3      14.617  20.623   8.2000  0.00  0.00     0.000 C
ATOM     43  C3  A00 X   3      13.515  21.696   8.0060  0.00  0.00     0.000 C
ATOM     44  C4  A00 X   3      12.468  21.737   9.1120  0.00  0.00     0.000 C
ATOM     45  C5  A00 X   3      11.888  20.314   9.3480  0.00  0.00     0.000 C
ATOM     46  O5  A00 X   3      12.962  19.333   9.5160  0.00  0.00     0.000 O
ATOM     47   O  A00 X   3      13.970  22.997   7.6400  0.00  0.00     0.000 O
ATOM     49  HD  A00 X   3      13.341  23.246   8.1800  0.00  0.00     0.000 HD
BRANCH 42 49
ATOM     49   O  A00 X   3      15.479  20.948   9.3130  0.00  0.00     0.000 O
ATOM     50   O  A00 X   3      16.934  22.753   9.9080  0.00  0.00     0.000 OA
ATOM     51   O  A00 X   3      16.933  21.977   7.6740  0.00  0.00     0.000 OA
ATOM     52   O  A00 X   3      17.795  20.561   9.3580  0.00  0.00     0.000 OA
ATOM     53   S  A00 X   3      16.870  21.601   9.0640  0.00  0.00     0.000 S
ENDBRANCH 42 49
BRANCH 45 54
ATOM     54   C  A00 X   3      10.880  19.924   8.2610  0.00  0.00     0.000 C
ATOM     55   O  A00 X   3      10.340  18.837   8.2780  0.00  0.00     0.000 OA
ATOM     56   O  A00 X   3      10.603  20.699   7.3580  0.00  0.00     0.000 OA
ENDBRANCH 45 54
BRANCH 41 57
ATOM     57  O4  A00 X   4      13.570  18.575   7.2870  0.00  0.00     0.000 O
BRANCH 57 61
ATOM     58  C1  A00 X   4      13.683  14.462   5.9800  0.00  0.00     0.000 C
ATOM     59  C2  A00 X   4      12.565  14.899   6.9590  0.00  0.00     0.000 C
ATOM     60  C3  A00 X   4      12.406  16.429   7.0690  0.00  0.00     0.000 C
ATOM     61  C4  A00 X   4      13.765  17.133   7.2740  0.00  0.00     0.000 C
ATOM     62  C5  A00 X   4      14.653  16.723   6.0730  0.00  0.00     0.000 C
ATOM     63  O5  A00 X   4      14.864  15.288   6.1030  0.00  0.00     0.000 O
BRANCH 59 66
ATOM     64   N  A00 X   4      13.230  14.302   8.1320  0.00  0.00     0.000 N
ATOM     66  HD  A00 X   4      14.074  14.121   8.0640  0.00  0.00     0.000 HD
ATOM     66   O  A00 X   4      11.976  12.293   7.6960  0.00  0.00     0.000 OA
ATOM     67   S  A00 X   4      12.584  12.993   8.7850  0.00  0.00     0.000 S
ATOM     68   O  A00 X   4      13.754  12.376   9.3380  0.00  0.00     0.000 OA
ATOM     69   O  A00 X   4      11.720  13.596   9.7590  0.00  0.00     0.000 OA
ENDBRANCH 59 66
BRANCH 62 70
ATOM     70   C  A00 X   4      16.033  17.421   6.0400  0.00  0.00     0.000 C
ATOM     71   O  A00 X   4      18.348  17.727   3.2730  0.00  0.00     0.000 OA
ATOM     72   O  A00 X   4      18.699  17.043   5.4980  0.00  0.00     0.000 OA
ATOM     73   O  A00 X   4      16.487  17.513   4.6800  0.00  0.00     0.000 O
ATOM     74   O  A00 X   4      17.620  15.524   3.9280  0.00  0.00     0.000 OA
ATOM     75   S  A00 X   4      17.873  16.872   4.3240  0.00  0.00     0.000 S
ENDBRANCH 62 70
ENDBRANCH 57 61
ENDBRANCH 41 57
ENDBRANCH 40 44
ENDBRANCH 20 40
ENDBRANCH 19 23
ENDBRANCH 1 19
TORSDOF 14
ENDMDL
MODEL 50
REMARK VINA RESULT:      -2.6      4.223     10.750
ROOT
ATOM      1  C1  A00 X   1      21.722  13.714   7.9390  0.00  0.00     0.000 C
ATOM      2  C2  A00 X   1      22.149  15.010   8.6780  0.00  0.00     0.000 C
ATOM      3  C3  A00 X   1      21.064  15.668   9.5930  0.00  0.00     0.000 C
ATOM      4  C4  A00 X   1      19.612  15.173   9.3700  0.00  0.00     0.000 C
ATOM      5  C5  A00 X   1      19.416  14.566   7.9810  0.00  0.00     0.000 C
ATOM      6  O5  A00 X   1      20.302  13.425   7.9510  0.00  0.00     0.000 O
ATOM      7   O  A00 X   1      21.054  17.073   9.3520  0.00  0.00     0.000 O
ATOM      9  HD  A00 X   1      20.229  16.820   9.4220  0.00  0.00     0.000 HD
ATOM      9   O  A00 X   1      19.223  14.230  10.3680  0.00  0.00     0.000 O
ATOM     11  HD  A00 X   1      18.398  13.977  10.4370  0.00  0.00     0.000 HD
ENDROOT
BRANCH 2 11
ATOM     11   O  A00 X   1      23.309  14.699   9.4740  0.00  0.00     0.000 O
ATOM     12   O  A00 X   1      24.831  16.400  10.2190  0.00  0.00     0.000 OA
ATOM     13   O  A00 X   1      24.596  15.973   7.8360  0.00  0.00     0.000 OA
ATOM     14   O  A00 X   1      25.608  14.355   9.2560  0.00  0.00     0.000 OA
ATOM     15   S  A00 X   1      24.659  15.432   9.1660  0.00  0.00     0.000 S
ENDBRANCH 2 11
BRANCH 5 16
ATOM     16   C  A00 X   1      19.626  15.536   6.8140  0.00  0.00     0.000 C
ATOM     17   O  A00 X   1      19.671  15.088   5.6870  0.00  0.00     0.000 OA
ATOM     18   O  A00 X   1      19.741  16.735   6.9760  0.00  0.00     0.000 OA
ENDBRANCH 5 16
BRANCH 1 19
ATOM     19  O4  A00 X   2      22.267  13.626   6.6000  0.00  0.00     0.000 O
BRANCH 19 23
ATOM     20  C1  A00 X   2      22.151   9.347   6.4000  0.00  0.00     0.000 C
ATOM     21  C2  A00 X   2      23.410   9.999   7.0210  0.00  0.00     0.000 C
ATOM     22  C3  A00 X   2      23.131  11.464   7.4160  0.00  0.00     0.000 C
ATOM     23  C4  A00 X   2      22.577  12.257   6.2110  0.00  0.00     0.000 C
ATOM     24  C5  A00 X   2      21.336  11.494   5.6720  0.00  0.00     0.000 C
ATOM     25  O5  A00 X   2      21.745  10.162   5.2680  0.00  0.00     0.000 O
ATOM     26   O  A00 X   2      24.305  12.002   8.0490  0.00  0.00     0.000 O
ATOM     28  HD  A00 X   2      24.830  11.739   7.4120  0.00  0.00     0.000 HD
BRANCH 21 30
ATOM     28   N  A00 X   2      24.209   8.912   6.4460  0.00  0.00     0.000 N
ATOM     30  HD  A00 X   2      24.704   9.299   7.0420  0.00  0.00     0.000 HD
ATOM     30   O  A00 X   2      26.017   8.508   7.8690  0.00  0.00     0.000 OA
ATOM     31   S  A00 X   2      25.784   8.990   6.5540  0.00  0.00     0.000 S
ATOM     32   O  A00 X   2      26.239   8.130   5.5060  0.00  0.00     0.000 OA
ATOM     33   O  A00 X   2      26.161  10.346   6.2840  0.00  0.00     0.000 OA
ENDBRANCH 21 30
BRANCH 24 34
ATOM     34   C  A00 X   2      20.458  12.197   4.6090  0.00  0.00     0.000 C
ATOM     35   O  A00 X   2      21.710  13.436   1.4230  0.00  0.00     0.000 OA
ATOM     36   O  A00 X   2      21.267  12.882   3.6330  0.00  0.00     0.000 O
ATOM     37   O  A00 X   2      21.950  11.200   2.1570  0.00  0.00     0.000 OA
ATOM     38   S  A00 X   2      21.118  12.365   2.1550  0.00  0.00     0.000 S
ATOM     39   O  A00 X   2      19.716  12.179   1.9310  0.00  0.00     0.000 OA
ENDBRANCH 24 34
BRANCH 20 40
ATOM     40  O4  A00 X   3      21.142   9.404   7.4180  0.00  0.00     0.000 O
BRANCH 40 44
ATOM     41  C1  A00 X   3      17.816   9.820   8.7930  0.00  0.00     0.000 C
ATOM     42  C2  A00 X   3      19.049   9.357   9.5980  0.00  0.00     0.000 C
ATOM     43  C3  A00 X   3      19.770   8.184   8.8840  0.00  0.00     0.000 C
ATOM     44  C4  A00 X   3      20.075   8.431   7.4120  0.00  0.00     0.000 C
ATOM     45  C5  A00 X   3      18.788   8.888   6.6710  0.00  0.00     0.000 C
ATOM     46  O5  A00 X   3      18.136   9.988   7.3840  0.00  0.00     0.000 O
ATOM     47   O  A00 X   3      20.876   7.616   9.5820  0.00  0.00     0.000 O
ATOM     49  HD  A00 X   3      21.215   7.579   8.7850  0.00  0.00     0.000 HD
BRANCH 42 49
ATOM     49   O  A00 X   3      19.918  10.503   9.7390  0.00  0.00     0.000 O
ATOM     50   O  A00 X   3      22.051  10.948  10.7290  0.00  0.00     0.000 OA
ATOM     51   O  A00 X   3      20.516   9.580  11.8950  0.00  0.00     0.000 OA
ATOM     52   O  A00 X   3      20.013  11.875  11.6420  0.00  0.00     0.000 OA
ATOM     53   S  A00 X   3      20.678  10.754  11.0740  0.00  0.00     0.000 S
ENDBRANCH 42 49
BRANCH 45 54
ATOM     54   C  A00 X   3      17.847   7.710   6.3890  0.00  0.00     0.000 C
ATOM     55   O  A00 X   3      16.690   7.903   6.0770  0.00  0.00     0.000 OA
ATOM     56   O  A00 X   3      18.244   6.558   6.4750  0.00  0.00     0.000 OA
ENDBRANCH 45 54
BRANCH 41 57
ATOM     57  O4  A00 X   4      16.670   8.975   9.0390  0.00  0.00     0.000 O
BRANCH 57 61
ATOM     58  C1  A00 X   4      12.510   9.981   8.4670  0.00  0.00     0.000 C
ATOM     59  C2  A00 X   4      13.582  10.789   7.6930  0.00  0.00     0.000 C
ATOM     60  C3  A00 X   4      14.973  10.123   7.6920  0.00  0.00     0.000 C
ATOM     61  C4  A00 X   4      15.392   9.670   9.1070  0.00  0.00     0.000 C
ATOM     62  C5  A00 X   4      14.284   8.707   9.6030  0.00  0.00     0.000 C
ATOM     63  O5  A00 X   4      13.031   9.432   9.6990  0.00  0.00     0.000 O
BRANCH 59 66
ATOM     64   N  A00 X   4      13.889  12.155   8.1550  0.00  0.00     0.000 N
ATOM     66  HD  A00 X   4      13.839  12.310   9.0050  0.00  0.00     0.000 HD
ATOM     66   O  A00 X   4      11.833  12.860   7.1200  0.00  0.00     0.000 OA
ATOM     67   S  A00 X   4      13.119  13.377   7.4700  0.00  0.00     0.000 S
ATOM     68   O  A00 X   4      13.131  14.326   8.5450  0.00  0.00     0.000 OA
ATOM     69   O  A00 X   4      14.029  13.685   6.4040  0.00  0.00     0.000 OA
ENDBRANCH 59 66
BRANCH 62 70
ATOM     70   C  A00 X   4      14.581   8.055  10.9740  0.00  0.00     0.000 C
ATOM     71   O  A00 X   4      17.763   6.973  12.3230  0.00  0.00     0.000 OA
ATOM     72   O  A00 X   4      15.693   5.858  12.1920  0.00  0.00     0.000 OA
ATOM     73   O  A00 X   4      16.002   8.021  11.1870  0.00  0.00     0.000 O
ATOM     74   O  A00 X   4      17.059   6.100  10.1880  0.00  0.00     0.000 OA
ATOM     75   S  A00 X   4      16.671   6.629  11.4560  0.00  0.00     0.000 S
ENDBRANCH 62 70
ENDBRANCH 57 61
ENDBRANCH 41 57
ENDBRANCH 40 44
ENDBRANCH 20 40
ENDBRANCH 19 23
ENDBRANCH 1 19
TORSDOF 14
ENDMDL
MODEL 51
REMARK VINA RESULT:      -2.6      7.559     14.163
ROOT
ATOM      1  C1  A00 X   1      21.440  18.943   5.1640  0.00  0.00     0.000 C
ATOM      2  C2  A00 X   1      22.509  17.922   4.6900  0.00  0.00     0.000 C
ATOM      3  C3  A00 X   1      22.153  16.412   4.8910  0.00  0.00     0.000 C
ATOM      4  C4  A00 X   1      20.972  16.125   5.8530  0.00  0.00     0.000 C
ATOM      5  C5  A00 X   1      20.729  17.278   6.8280  0.00  0.00     0.000 C
ATOM      6  O5  A00 X   1      20.379  18.401   5.9880  0.00  0.00     0.000 O
ATOM      7   O  A00 X   1      23.289  15.743   5.4340  0.00  0.00     0.000 O
ATOM      9  HD  A00 X   1      22.591  15.437   5.8460  0.00  0.00     0.000 HD
ATOM      9   O  A00 X   1      19.772  15.840   5.1350  0.00  0.00     0.000 O
ATOM     11  HD  A00 X   1      19.074  15.535   5.5470  0.00  0.00     0.000 HD
ENDROOT
BRANCH 2 11
ATOM     11   O  A00 X   1      22.757  18.164   3.2920  0.00  0.00     0.000 O
ATOM     12   O  A00 X   1      24.572  17.112   2.1230  0.00  0.00     0.000 OA
ATOM     13   O  A00 X   1      25.061  18.660   3.9350  0.00  0.00     0.000 OA
ATOM     14   O  A00 X   1      24.120  19.448   1.8970  0.00  0.00     0.000 OA
ATOM     15   S  A00 X   1      24.236  18.337   2.8030  0.00  0.00     0.000 S
ENDBRANCH 2 11
BRANCH 5 16
ATOM     16   C  A00 X   1      21.886  17.568   7.7890  0.00  0.00     0.000 C
ATOM     17   O  A00 X   1      21.839  18.573   8.4680  0.00  0.00     0.000 OA
ATOM     18   O  A00 X   1      22.842  16.826   7.9010  0.00  0.00     0.000 OA
ENDBRANCH 5 16
BRANCH 1 19
ATOM     19  O4  A00 X   2      22.022  20.127   5.7620  0.00  0.00     0.000 O
BRANCH 19 23
ATOM     20  C1  A00 X   2      18.877  22.756   4.5120  0.00  0.00     0.000 C
ATOM     21  C2  A00 X   2      20.078  22.572   3.5530  0.00  0.00     0.000 C
ATOM     22  C3  A00 X   2      20.885  21.309   3.9190  0.00  0.00     0.000 C
ATOM     23  C4  A00 X   2      21.304  21.343   5.4060  0.00  0.00     0.000 C
ATOM     24  C5  A00 X   2      20.021  21.549   6.2560  0.00  0.00     0.000 C
ATOM     25  O5  A00 X   2      19.399  22.801   5.8670  0.00  0.00     0.000 O
ATOM     26   O  A00 X   2      21.945  21.144   2.9610  0.00  0.00     0.000 O
ATOM     28  HD  A00 X   2      22.216  21.962   3.0470  0.00  0.00     0.000 HD
BRANCH 21 30
ATOM     28   N  A00 X   2      20.461  22.209   2.1850  0.00  0.00     0.000 N
ATOM     30  HD  A00 X   2      20.151  23.017   2.1530  0.00  0.00     0.000 HD
ATOM     30   O  A00 X   2      20.583  24.169   0.9200  0.00  0.00     0.000 OA
ATOM     31   S  A00 X   2      19.797  22.988   0.9800  0.00  0.00     0.000 S
ATOM     32   O  A00 X   2      19.958  22.099  -0.1280  0.00  0.00     0.000 OA
ATOM     33   O  A00 X   2      18.408  23.148   1.2930  0.00  0.00     0.000 OA
ENDBRANCH 21 30
BRANCH 24 34
ATOM     34   C  A00 X   2      20.134  21.391   7.7910  0.00  0.00     0.000 C
ATOM     35   O  A00 X   2      22.356  23.370   9.8890  0.00  0.00     0.000 OA
ATOM     36   O  A00 X   2      21.319  22.036   8.2970  0.00  0.00     0.000 O
ATOM     37   O  A00 X   2      20.737  24.297   8.4350  0.00  0.00     0.000 OA
ATOM     38   S  A00 X   2      21.062  23.212   9.3090  0.00  0.00     0.000 S
ATOM     39   O  A00 X   2      20.045  22.757  10.2090  0.00  0.00     0.000 OA
ENDBRANCH 24 34
BRANCH 20 40
ATOM     40  O4  A00 X   3      18.067  21.583   4.3490  0.00  0.00     0.000 O
BRANCH 40 44
ATOM     41  C1  A00 X   3      15.880  18.868   5.3310  0.00  0.00     0.000 C
ATOM     42  C2  A00 X   3      16.253  19.214   3.8730  0.00  0.00     0.000 C
ATOM     43  C3  A00 X   3      16.021  20.719   3.5830  0.00  0.00     0.000 C
ATOM     44  C4  A00 X   3      16.648  21.664   4.6010  0.00  0.00     0.000 C
ATOM     45  C5  A00 X   3      16.223  21.255   6.0390  0.00  0.00     0.000 C
ATOM     46  O5  A00 X   3      16.449  19.826   6.2650  0.00  0.00     0.000 O
ATOM     47   O  A00 X   3      16.250  21.138   2.2390  0.00  0.00     0.000 O
ATOM     49  HD  A00 X   3      16.585  21.833   2.6320  0.00  0.00     0.000 HD
BRANCH 42 49
ATOM     49   O  A00 X   3      17.638  18.849   3.6930  0.00  0.00     0.000 O
ATOM     50   O  A00 X   3      19.277  19.070   1.9610  0.00  0.00     0.000 OA
ATOM     51   O  A00 X   3      17.067  18.471   1.3710  0.00  0.00     0.000 OA
ATOM     52   O  A00 X   3      18.372  16.915   2.5810  0.00  0.00     0.000 OA
ATOM     53   S  A00 X   3      18.134  18.293   2.3250  0.00  0.00     0.000 S
ENDBRANCH 42 49
BRANCH 45 54
ATOM     54   C  A00 X   3      14.788  21.695   6.3540  0.00  0.00     0.000 C
ATOM     55   O  A00 X   3      14.397  21.755   7.5020  0.00  0.00     0.000 OA
ATOM     56   O  A00 X   3      14.014  21.993   5.4570  0.00  0.00     0.000 OA
ENDBRANCH 45 54
BRANCH 41 57
ATOM     57  O4  A00 X   4      14.456  18.672   5.4850  0.00  0.00     0.000 O
BRANCH 57 61
ATOM     58  C1  A00 X   4      12.088  16.559   8.4120  0.00  0.00     0.000 C
ATOM     59  C2  A00 X   4      12.437  18.045   8.6740  0.00  0.00     0.000 C
ATOM     60  C3  A00 X   4      12.961  18.783   7.4250  0.00  0.00     0.000 C
ATOM     61  C4  A00 X   4      14.056  17.973   6.6990  0.00  0.00     0.000 C
ATOM     62  C5  A00 X   4      13.424  16.604   6.3450  0.00  0.00     0.000 C
ATOM     63  O5  A00 X   4      13.070  15.912   7.5700  0.00  0.00     0.000 O
BRANCH 59 66
ATOM     64   N  A00 X   4      13.486  18.307   9.6750  0.00  0.00     0.000 N
ATOM     66  HD  A00 X   4      14.121  17.723   9.7520  0.00  0.00     0.000 HD
ATOM     66   O  A00 X   4      11.834  17.875  11.3730  0.00  0.00     0.000 OA
ATOM     67   S  A00 X   4      13.038  18.621  11.1780  0.00  0.00     0.000 S
ATOM     68   O  A00 X   4      14.184  18.143  11.8950  0.00  0.00     0.000 OA
ATOM     69   O  A00 X   4      12.936  20.052  11.1180  0.00  0.00     0.000 OA
ENDBRANCH 59 66
BRANCH 62 70
ATOM     70   C  A00 X   4      14.342  15.682   5.5080  0.00  0.00     0.000 C
ATOM     71   O  A00 X   4      17.182  13.721   6.6000  0.00  0.00     0.000 OA
ATOM     72   O  A00 X   4      16.950  15.207   4.7890  0.00  0.00     0.000 OA
ATOM     73   O  A00 X   4      15.178  14.916   6.3900  0.00  0.00     0.000 O
ATOM     74   O  A00 X   4      17.176  16.090   7.0490  0.00  0.00     0.000 OA
ATOM     75   S  A00 X   4      16.732  15.026   6.2070  0.00  0.00     0.000 S
ENDBRANCH 62 70
ENDBRANCH 57 61
ENDBRANCH 41 57
ENDBRANCH 40 44
ENDBRANCH 20 40
ENDBRANCH 19 23
ENDBRANCH 1 19
TORSDOF 14
ENDMDL
MODEL 52
REMARK VINA RESULT:      -2.5      4.366      9.157
ROOT
ATOM      1  C1  A00 X   1      20.910   7.144  13.6230  0.00  0.00     0.000 C
ATOM      2  C2  A00 X   1      20.476   5.862  14.3840  0.00  0.00     0.000 C
ATOM      3  C3  A00 X   1      19.005   5.844  14.9160  0.00  0.00     0.000 C
ATOM      4  C4  A00 X   1      18.288   7.219  14.9480  0.00  0.00     0.000 C
ATOM      5  C5  A00 X   1      19.277   8.384  14.9800  0.00  0.00     0.000 C
ATOM      6  O5  A00 X   1      20.013   8.276  13.7410  0.00  0.00     0.000 O
ATOM      7   O  A00 X   1      19.009   5.359  16.2560  0.00  0.00     0.000 O
ATOM      9  HD  A00 X   1      18.452   6.021  16.2260  0.00  0.00     0.000 HD
ATOM      9   O  A00 X   1      17.401   7.370  13.8400  0.00  0.00     0.000 O
ATOM     11  HD  A00 X   1      16.843   8.032  13.8100  0.00  0.00     0.000 HD
ENDROOT
BRANCH 2 11
ATOM     11   O  A00 X   1      20.669   4.741  13.4990  0.00  0.00     0.000 O
ATOM     12   O  A00 X   1      20.399   2.474  14.2450  0.00  0.00     0.000 OA
ATOM     13   O  A00 X   1      22.168   3.840  15.2040  0.00  0.00     0.000 OA
ATOM     14   O  A00 X   1      22.278   3.148  12.9310  0.00  0.00     0.000 OA
ATOM     15   S  A00 X   1      21.417   3.472  14.0360  0.00  0.00     0.000 S
ENDBRANCH 2 11
BRANCH 5 16
ATOM     16   C  A00 X   1      20.172   8.440  16.2220  0.00  0.00     0.000 C
ATOM     17   O  A00 X   1      19.820   7.844  17.2200  0.00  0.00     0.000 OA
ATOM     18   O  A00 X   1      21.222   9.051  16.2420  0.00  0.00     0.000 OA
ENDBRANCH 5 16
BRANCH 1 19
ATOM     19  O4  A00 X   2      22.280   7.524  13.9000  0.00  0.00     0.000 O
BRANCH 19 23
ATOM     20  C1  A00 X   2      23.031   9.005   9.9490  0.00  0.00     0.000 C
ATOM     21  C2  A00 X   2      23.394   7.528  10.2400  0.00  0.00     0.000 C
ATOM     22  C3  A00 X   2      22.686   7.030  11.5170  0.00  0.00     0.000 C
ATOM     23  C4  A00 X   2      22.989   7.967  12.7080  0.00  0.00     0.000 C
ATOM     24  C5  A00 X   2      22.601   9.411  12.2850  0.00  0.00     0.000 C
ATOM     25  O5  A00 X   2      23.385   9.784  11.1230  0.00  0.00     0.000 O
ATOM     26   O  A00 X   2      23.000   5.639  11.7050  0.00  0.00     0.000 O
ATOM     28  HD  A00 X   2      23.851   5.767  11.6140  0.00  0.00     0.000 HD
BRANCH 21 30
ATOM     28   N  A00 X   2      23.852   7.612   8.8500  0.00  0.00     0.000 N
ATOM     30  HD  A00 X   2      24.270   6.946   9.2120  0.00  0.00     0.000 HD
ATOM     30   O  A00 X   2      24.908   5.599   8.3100  0.00  0.00     0.000 OA
ATOM     31   S  A00 X   2      25.245   6.969   8.4700  0.00  0.00     0.000 S
ATOM     32   O  A00 X   2      25.614   7.646   7.2650  0.00  0.00     0.000 OA
ATOM     33   O  A00 X   2      26.162   7.293   9.5230  0.00  0.00     0.000 OA
ENDBRANCH 21 30
BRANCH 24 34
ATOM     34   C  A00 X   2      22.590  10.508  13.3760  0.00  0.00     0.000 C
ATOM     35   O  A00 X   2      20.645  13.579  13.1620  0.00  0.00     0.000 OA
ATOM     36   O  A00 X   2      22.029  11.738  12.8740  0.00  0.00     0.000 O
ATOM     37   O  A00 X   2      19.716  11.411  12.9860  0.00  0.00     0.000 OA
ATOM     38   S  A00 X   2      20.722  12.224  13.6000  0.00  0.00     0.000 S
ATOM     39   O  A00 X   2      20.949  12.051  15.0030  0.00  0.00     0.000 OA
ENDBRANCH 24 34
BRANCH 20 40
ATOM     40  O4  A00 X   3      21.607   9.026   9.7710  0.00  0.00     0.000 O
BRANCH 40 44
ATOM     41  C1  A00 X   3      18.184   9.172   8.5940  0.00  0.00     0.000 C
ATOM     42  C2  A00 X   3      19.334   8.442   7.8670  0.00  0.00     0.000 C
ATOM     43  C3  A00 X   3      20.562   9.373   7.6960  0.00  0.00     0.000 C
ATOM     44  C4  A00 X   3      21.010  10.071   8.9740  0.00  0.00     0.000 C
ATOM     45  C5  A00 X   3      19.802  10.785   9.6430  0.00  0.00     0.000 C
ATOM     46  O5  A00 X   3      18.664   9.873   9.7750  0.00  0.00     0.000 O
ATOM     47   O  A00 X   3      21.656   8.832   6.9590  0.00  0.00     0.000 O
ATOM     49  HD  A00 X   3      22.120   9.249   7.5590  0.00  0.00     0.000 HD
BRANCH 42 49
ATOM     49   O  A00 X   3      19.661   7.277   8.6560  0.00  0.00     0.000 O
ATOM     50   O  A00 X   3      21.253   5.494   8.5340  0.00  0.00     0.000 OA
ATOM     51   O  A00 X   3      20.176   6.199   6.5510  0.00  0.00     0.000 OA
ATOM     52   O  A00 X   3      18.889   5.106   8.2050  0.00  0.00     0.000 OA
ATOM     53   S  A00 X   3      20.020   5.932   7.9600  0.00  0.00     0.000 S
ENDBRANCH 42 49
BRANCH 45 54
ATOM     54   C  A00 X   3      19.447  12.093   8.9250  0.00  0.00     0.000 C
ATOM     55   O  A00 X   3      20.143  12.512   8.0240  0.00  0.00     0.000 OA
ATOM     56   O  A00 X   3      18.460  12.735   9.2490  0.00  0.00     0.000 OA
ENDBRANCH 45 54
BRANCH 41 57
ATOM     57  O4  A00 X   4      17.421  10.002   7.6890  0.00  0.00     0.000 O
BRANCH 57 61
ATOM     58  C1  A00 X   4      13.141  10.570   7.6780  0.00  0.00     0.000 C
ATOM     59  C2  A00 X   4      14.055  11.821   7.6830  0.00  0.00     0.000 C
ATOM     60  C3  A00 X   4      15.523  11.511   7.3260  0.00  0.00     0.000 C
ATOM     61  C4  A00 X   4      16.064  10.304   8.1220  0.00  0.00     0.000 C
ATOM     62  C5  A00 X   4      15.123   9.115   7.8050  0.00  0.00     0.000 C
ATOM     63  O5  A00 X   4      13.788   9.424   8.2790  0.00  0.00     0.000 O
BRANCH 59 66
ATOM     64   N  A00 X   4      14.058  12.359   9.0550  0.00  0.00     0.000 N
ATOM     66  HD  A00 X   4      13.899  11.805   9.7020  0.00  0.00     0.000 HD
ATOM     66   O  A00 X   4      12.013  13.504   8.5040  0.00  0.00     0.000 OA
ATOM     67   S  A00 X   4      13.142  13.631   9.3720  0.00  0.00     0.000 S
ATOM     68   O  A00 X   4      12.875  13.417  10.7650  0.00  0.00     0.000 OA
ATOM     69   O  A00 X   4      14.076  14.688   9.1070  0.00  0.00     0.000 OA
ENDBRANCH 59 66
BRANCH 62 70
ATOM     70   C  A00 X   4      15.568   7.772   8.4310  0.00  0.00     0.000 C
ATOM     71   O  A00 X   4      14.992   6.539  11.7860  0.00  0.00     0.000 OA
ATOM     72   O  A00 X   4      16.968   6.649  10.5100  0.00  0.00     0.000 OA
ATOM     73   O  A00 X   4      14.913   7.598   9.6970  0.00  0.00     0.000 O
ATOM     74   O  A00 X   4      16.069   8.679  11.5140  0.00  0.00     0.000 OA
ATOM     75   S  A00 X   4      15.811   7.387  10.9650  0.00  0.00     0.000 S
ENDBRANCH 62 70
ENDBRANCH 57 61
ENDBRANCH 41 57
ENDBRANCH 40 44
ENDBRANCH 20 40
ENDBRANCH 19 23
ENDBRANCH 1 19
TORSDOF 14
ENDMDL
MODEL 53
REMARK VINA RESULT:      -2.5      8.447     14.063
ROOT
ATOM      1  C1  A00 X   1       8.459  10.276  26.3160  0.00  0.00     0.000 C
ATOM      2  C2  A00 X   1       9.332   9.386  27.2400  0.00  0.00     0.000 C
ATOM      3  C3  A00 X   1      10.011  10.109  28.4500  0.00  0.00     0.000 C
ATOM      4  C4  A00 X   1      10.036  11.657  28.3750  0.00  0.00     0.000 C
ATOM      5  C5  A00 X   1       9.901  12.168  26.9400  0.00  0.00     0.000 C
ATOM      6  O5  A00 X   1       8.602  11.706  26.5070  0.00  0.00     0.000 O
ATOM      7   O  A00 X   1      11.369   9.685  28.5320  0.00  0.00     0.000 O
ATOM      9  HD  A00 X   1      11.358  10.537  28.6830  0.00  0.00     0.000 HD
ATOM      9   O  A00 X   1       9.018  12.236  29.1900  0.00  0.00     0.000 O
ATOM     11  HD  A00 X   1       9.007  13.088  29.3420  0.00  0.00     0.000 HD
ENDROOT
BRANCH 2 11
ATOM     11   O  A00 X   1       8.498   8.321  27.7370  0.00  0.00     0.000 O
ATOM     12   O  A00 X   1       9.066   7.082  29.7150  0.00  0.00     0.000 OA
ATOM     13   O  A00 X   1      10.520   6.949  27.7690  0.00  0.00     0.000 OA
ATOM     14   O  A00 X   1       8.343   5.991  27.7140  0.00  0.00     0.000 OA
ATOM     15   S  A00 X   1       9.178   7.017  28.2790  0.00  0.00     0.000 S
ENDBRANCH 2 11
BRANCH 5 16
ATOM     16   C  A00 X   1      11.041  11.764  25.9990  0.00  0.00     0.000 C
ATOM     17   O  A00 X   1      12.082  11.370  26.4830  0.00  0.00     0.000 OA
ATOM     18   O  A00 X   1      10.937  11.818  24.7900  0.00  0.00     0.000 OA
ENDBRANCH 5 16
BRANCH 1 19
ATOM     19  O4  A00 X   2       8.573   9.916  24.9180  0.00  0.00     0.000 O
BRANCH 19 23
ATOM     20  C1  A00 X   2       5.923  10.524  21.6050  0.00  0.00     0.000 C
ATOM     21  C2  A00 X   2       6.733  11.744  22.1050  0.00  0.00     0.000 C
ATOM     22  C3  A00 X   2       7.924  11.294  22.9760  0.00  0.00     0.000 C
ATOM     23  C4  A00 X   2       7.442  10.381  24.1270  0.00  0.00     0.000 C
ATOM     24  C5  A00 X   2       6.632   9.214  23.4990  0.00  0.00     0.000 C
ATOM     25  O5  A00 X   2       5.505   9.765  22.7710  0.00  0.00     0.000 O
ATOM     26   O  A00 X   2       8.682  12.454  23.3580  0.00  0.00     0.000 O
ATOM     28  HD  A00 X   2       7.982  12.881  23.6370  0.00  0.00     0.000 HD
BRANCH 21 30
ATOM     28   N  A00 X   2       6.995  12.449  20.8460  0.00  0.00     0.000 N
ATOM     30  HD  A00 X   2       6.478  12.960  21.3170  0.00  0.00     0.000 HD
ATOM     30   O  A00 X   2       6.400  14.690  21.1290  0.00  0.00     0.000 OA
ATOM     31   S  A00 X   2       5.978  13.563  20.3750  0.00  0.00     0.000 S
ATOM     32   O  A00 X   2       6.209  13.659  18.9670  0.00  0.00     0.000 OA
ATOM     33   O  A00 X   2       4.658  13.068  20.6310  0.00  0.00     0.000 OA
ENDBRANCH 21 30
BRANCH 24 34
ATOM     34   C  A00 X   2       6.232   8.033  24.4150  0.00  0.00     0.000 C
ATOM     35   O  A00 X   2       5.378   4.708  23.2020  0.00  0.00     0.000 OA
ATOM     36   O  A00 X   2       5.616   6.971  23.6590  0.00  0.00     0.000 O
ATOM     37   O  A00 X   2       7.414   5.809  22.7160  0.00  0.00     0.000 OA
ATOM     38   S  A00 X   2       6.382   5.598  23.6850  0.00  0.00     0.000 S
ATOM     39   O  A00 X   2       6.781   5.383  25.0440  0.00  0.00     0.000 OA
ENDBRANCH 24 34
BRANCH 20 40
ATOM     40  O4  A00 X   3       6.841   9.741  20.8280  0.00  0.00     0.000 O
BRANCH 40 44
ATOM     41  C1  A00 X   3       8.777   7.642  18.5990  0.00  0.00     0.000 C
ATOM     42  C2  A00 X   3       8.406   9.114  18.3200  0.00  0.00     0.000 C
ATOM     43  C3  A00 X   3       6.886   9.350  18.5120  0.00  0.00     0.000 C
ATOM     44  C4  A00 X   3       6.326   8.832  19.8310  0.00  0.00     0.000 C
ATOM     45  C5  A00 X   3       6.737   7.347  20.0370  0.00  0.00     0.000 C
ATOM     46  O5  A00 X   3       8.177   7.170  19.8370  0.00  0.00     0.000 O
ATOM     47   O  A00 X   3       6.413  10.658  18.1960  0.00  0.00     0.000 O
ATOM     49  HD  A00 X   3       5.918  10.525  18.8940  0.00  0.00     0.000 HD
BRANCH 42 49
ATOM     49   O  A00 X   3       9.184   9.926  19.2260  0.00  0.00     0.000 O
ATOM     50   O  A00 X   3       9.502  12.266  19.6190  0.00  0.00     0.000 OA
ATOM     51   O  A00 X   3       9.394  11.488  17.3890  0.00  0.00     0.000 OA
ATOM     52   O  A00 X   3      11.263  10.885  18.7040  0.00  0.00     0.000 OA
ATOM     53   S  A00 X   3       9.882  11.222  18.7200  0.00  0.00     0.000 S
ENDBRANCH 42 49
BRANCH 45 54
ATOM     54   C  A00 X   3       5.888   6.399  19.1820  0.00  0.00     0.000 C
ATOM     55   O  A00 X   3       5.106   6.838  18.3630  0.00  0.00     0.000 OA
ATOM     56   O  A00 X   3       5.980   5.188  19.3110  0.00  0.00     0.000 OA
ENDBRANCH 45 54
BRANCH 41 57
ATOM     57  O4  A00 X   4       8.509   6.798  17.4570  0.00  0.00     0.000 O
BRANCH 57 61
ATOM     58  C1  A00 X   4      10.528   3.374  15.7720  0.00  0.00     0.000 C
ATOM     59  C2  A00 X   4       9.800   3.211  17.1290  0.00  0.00     0.000 C
ATOM     60  C3  A00 X   4       8.830   4.367  17.4500  0.00  0.00     0.000 C
ATOM     61  C4  A00 X   4       9.487   5.746  17.2220  0.00  0.00     0.000 C
ATOM     62  C5  A00 X   4       9.954   5.768  15.7450  0.00  0.00     0.000 C
ATOM     63  O5  A00 X   4      10.955   4.737  15.5460  0.00  0.00     0.000 O
BRANCH 59 66
ATOM     64   N  A00 X   4       9.077   2.102  17.7770  0.00  0.00     0.000 N
ATOM     66  HD  A00 X   4       8.831   2.211  18.6000  0.00  0.00     0.000 HD
ATOM     66   O  A00 X   4      11.146   0.870  17.7500  0.00  0.00     0.000 OA
ATOM     67   S  A00 X   4       9.734   0.644  17.7380  0.00  0.00     0.000 S
ATOM     68   O  A00 X   4       9.189   0.083  18.9400  0.00  0.00     0.000 OA
ATOM     69   O  A00 X   4       9.148   0.134  16.5310  0.00  0.00     0.000 OA
ENDBRANCH 59 66
BRANCH 62 70
ATOM     70   C  A00 X   4      10.546   7.123  15.2900  0.00  0.00     0.000 C
ATOM     71   O  A00 X   4       9.436   9.290  12.6100  0.00  0.00     0.000 OA
ATOM     72   O  A00 X   4      11.583   8.479  13.1380  0.00  0.00     0.000 OA
ATOM     73   O  A00 X   4       9.645   7.746  14.3600  0.00  0.00     0.000 O
ATOM     74   O  A00 X   4       9.959   6.993  12.0930  0.00  0.00     0.000 OA
ATOM     75   S  A00 X   4      10.197   8.117  12.9400  0.00  0.00     0.000 S
ENDBRANCH 62 70
ENDBRANCH 57 61
ENDBRANCH 41 57
ENDBRANCH 40 44
ENDBRANCH 20 40
ENDBRANCH 19 23
ENDBRANCH 1 19
TORSDOF 14
ENDMDL
MODEL 54
REMARK VINA RESULT:      -2.4      9.633     14.401
ROOT
ATOM      1  C1  A00 X   1       7.085  17.128  23.4760  0.00  0.00     0.000 C
ATOM      2  C2  A00 X   1       6.183  18.366  23.7300  0.00  0.00     0.000 C
ATOM      3  C3  A00 X   1       6.682  19.717  23.1200  0.00  0.00     0.000 C
ATOM      4  C4  A00 X   1       8.165  19.738  22.6660  0.00  0.00     0.000 C
ATOM      5  C5  A00 X   1       9.000  18.669  23.3700  0.00  0.00     0.000 C
ATOM      6  O5  A00 X   1       8.409  17.414  22.9600  0.00  0.00     0.000 O
ATOM      7   O  A00 X   1       6.546  20.740  24.1040  0.00  0.00     0.000 O
ATOM      9  HD  A00 X   1       7.305  20.867  23.7070  0.00  0.00     0.000 HD
ATOM      9   O  A00 X   1       8.279  19.586  21.2510  0.00  0.00     0.000 O
ATOM     11  HD  A00 X   1       9.038  19.713  20.8550  0.00  0.00     0.000 HD
ENDROOT
BRANCH 2 11
ATOM     11   O  A00 X   1       4.875  18.069  23.2050  0.00  0.00     0.000 O
ATOM     12   O  A00 X   1       2.999  19.522  23.5750  0.00  0.00     0.000 OA
ATOM     13   O  A00 X   1       4.044  18.420  25.4750  0.00  0.00     0.000 OA
ATOM     14   O  A00 X   1       2.830  17.156  23.8670  0.00  0.00     0.000 OA
ATOM     15   S  A00 X   1       3.619  18.335  24.1050  0.00  0.00     0.000 S
ENDBRANCH 2 11
BRANCH 5 16
ATOM     16   C  A00 X   1       9.109  18.828  24.8890  0.00  0.00     0.000 C
ATOM     17   O  A00 X   1       8.821  19.898  25.3840  0.00  0.00     0.000 OA
ATOM     18   O  A00 X   1       9.465  17.921  25.6160  0.00  0.00     0.000 OA
ENDBRANCH 5 16
BRANCH 1 19
ATOM     19  O4  A00 X   2       7.143  16.233  24.6130  0.00  0.00     0.000 O
BRANCH 19 23
ATOM     20  C1  A00 X   2       7.385  12.689  22.2150  0.00  0.00     0.000 C
ATOM     21  C2  A00 X   2       5.987  13.109  22.7310  0.00  0.00     0.000 C
ATOM     22  C3  A00 X   2       5.990  14.583  23.1870  0.00  0.00     0.000 C
ATOM     23  C4  A00 X   2       7.111  14.830  24.2210  0.00  0.00     0.000 C
ATOM     24  C5  A00 X   2       8.449  14.355  23.5940  0.00  0.00     0.000 C
ATOM     25  O5  A00 X   2       8.341  12.942  23.2780  0.00  0.00     0.000 O
ATOM     26   O  A00 X   2       4.657  14.942  23.5920  0.00  0.00     0.000 O
ATOM     28  HD  A00 X   2       4.574  14.252  24.1070  0.00  0.00     0.000 HD
BRANCH 21 30
ATOM     28   N  A00 X   2       4.577  13.444  22.5130  0.00  0.00     0.000 N
ATOM     30  HD  A00 X   2       4.663  12.600  22.3410  0.00  0.00     0.000 HD
ATOM     30   O  A00 X   2       3.357  11.452  22.4500  0.00  0.00     0.000 OA
ATOM     31   S  A00 X   2       3.712  12.512  21.5740  0.00  0.00     0.000 S
ATOM     32   O  A00 X   2       2.627  13.351  21.1700  0.00  0.00     0.000 OA
ATOM     33   O  A00 X   2       4.527  12.175  20.4450  0.00  0.00     0.000 OA
ENDBRANCH 21 30
BRANCH 24 34
ATOM     34   C  A00 X   2       9.762  14.703  24.3340  0.00  0.00     0.000 C
ATOM     35   O  A00 X   2      12.181  12.230  25.4700  0.00  0.00     0.000 OA
ATOM     36   O  A00 X   2      10.331  13.538  24.9640  0.00  0.00     0.000 O
ATOM     37   O  A00 X   2      11.441  12.424  23.2320  0.00  0.00     0.000 OA
ATOM     38   S  A00 X   2      11.755  13.121  24.4420  0.00  0.00     0.000 S
ATOM     39   O  A00 X   2      12.516  14.330  24.3330  0.00  0.00     0.000 OA
ENDBRANCH 24 34
BRANCH 20 40
ATOM     40  O4  A00 X   3       7.664  13.554  21.1040  0.00  0.00     0.000 O
BRANCH 40 44
ATOM     41  C1  A00 X   3       9.896  15.589  19.1050  0.00  0.00     0.000 C
ATOM     42  C2  A00 X   3       8.406  15.344  18.7860  0.00  0.00     0.000 C
ATOM     43  C3  A00 X   3       8.075  13.830  18.8070  0.00  0.00     0.000 C
ATOM     44  C4  A00 X   3       8.546  13.097  20.0570  0.00  0.00     0.000 C
ATOM     45  C5  A00 X   3      10.052  13.388  20.3080  0.00  0.00     0.000 C
ATOM     46  O5  A00 X   3      10.320  14.827  20.2680  0.00  0.00     0.000 O
ATOM     47   O  A00 X   3       6.742  13.478  18.4410  0.00  0.00     0.000 O
ATOM     49  HD  A00 X   3       6.839  12.901  19.0790  0.00  0.00     0.000 HD
BRANCH 42 49
ATOM     49   O  A00 X   3       7.637  16.067  19.7720  0.00  0.00     0.000 O
ATOM     50   O  A00 X   3       5.317  16.380  20.2730  0.00  0.00     0.000 OA
ATOM     51   O  A00 X   3       6.012  16.417  18.0130  0.00  0.00     0.000 OA
ATOM     52   O  A00 X   3       6.685  18.186  19.4280  0.00  0.00     0.000 OA
ATOM     53   S  A00 X   3       6.332  16.810  19.3630  0.00  0.00     0.000 S
ENDBRANCH 42 49
BRANCH 45 54
ATOM     54   C  A00 X   3      10.952  12.580  19.3640  0.00  0.00     0.000 C
ATOM     55   O  A00 X   3      12.142  12.477  19.5810  0.00  0.00     0.000 OA
ATOM     56   O  A00 X   3      10.488  12.029  18.3790  0.00  0.00     0.000 OA
ENDBRANCH 45 54
BRANCH 41 57
ATOM     57  O4  A00 X   4      10.730  15.396  17.9410  0.00  0.00     0.000 O
BRANCH 57 61
ATOM     58  C1  A00 X   4      14.436  17.193  16.6450  0.00  0.00     0.000 C
ATOM     59  C2  A00 X   4      14.429  16.376  17.9610  0.00  0.00     0.000 C
ATOM     60  C3  A00 X   4      13.172  15.498  18.1330  0.00  0.00     0.000 C
ATOM     61  C4  A00 X   4      11.877  16.288  17.8470  0.00  0.00     0.000 C
ATOM     62  C5  A00 X   4      12.012  16.839  16.4060  0.00  0.00     0.000 C
ATOM     63  O5  A00 X   4      13.137  17.753  16.3470  0.00  0.00     0.000 O
BRANCH 59 66
ATOM     64   N  A00 X   4      14.432  17.697  18.6160  0.00  0.00     0.000 N
ATOM     66  HD  A00 X   4      14.266  18.388  18.1230  0.00  0.00     0.000 HD
ATOM     66   O  A00 X   4      16.819  17.468  18.8380  0.00  0.00     0.000 OA
ATOM     67   S  A00 X   4      15.715  18.111  19.4780  0.00  0.00     0.000 S
ATOM     68   O  A00 X   4      15.667  19.537  19.3430  0.00  0.00     0.000 OA
ATOM     69   O  A00 X   4      15.317  17.629  20.7710  0.00  0.00     0.000 OA
ENDBRANCH 59 66
BRANCH 62 70
ATOM     70   C  A00 X   4      10.753  17.576  15.8910  0.00  0.00     0.000 C
ATOM     71   O  A00 X   4       9.393  20.754  16.9690  0.00  0.00     0.000 OA
ATOM     72   O  A00 X   4       8.351  18.665  16.6570  0.00  0.00     0.000 OA
ATOM     73   O  A00 X   4      10.732  18.910  16.4240  0.00  0.00     0.000 O
ATOM     74   O  A00 X   4       9.748  19.033  18.6200  0.00  0.00     0.000 OA
ATOM     75   S  A00 X   4       9.476  19.349  17.2540  0.00  0.00     0.000 S
ENDBRANCH 62 70
ENDBRANCH 57 61
ENDBRANCH 41 57
ENDBRANCH 40 44
ENDBRANCH 20 40
ENDBRANCH 19 23
ENDBRANCH 1 19
TORSDOF 14
ENDMDL
MODEL 55
REMARK VINA RESULT:      -2.3      7.346     13.427
ROOT
ATOM      1  C1  A00 X   1      20.531  19.448   9.6590  0.00  0.00     0.000 C
ATOM      2  C2  A00 X   1      20.729  19.756  11.1670  0.00  0.00     0.000 C
ATOM      3  C3  A00 X   1      22.207  19.951  11.6410  0.00  0.00     0.000 C
ATOM      4  C4  A00 X   1      23.296  19.459  10.6540  0.00  0.00     0.000 C
ATOM      5  C5  A00 X   1      22.760  18.410   9.6790  0.00  0.00     0.000 C
ATOM      6  O5  A00 X   1      21.733  19.096   8.9290  0.00  0.00     0.000 O
ATOM      7   O  A00 X   1      22.399  19.222  12.8510  0.00  0.00     0.000 O
ATOM      9  HD  A00 X   1      23.106  19.102  12.3660  0.00  0.00     0.000 HD
ATOM      9   O  A00 X   1      23.869  20.545   9.9260  0.00  0.00     0.000 O
ATOM     11  HD  A00 X   1      24.576  20.425   9.4410  0.00  0.00     0.000 HD
ENDROOT
BRANCH 2 11
ATOM     11   O  A00 X   1      19.976  20.946  11.4750  0.00  0.00     0.000 O
ATOM     12   O  A00 X   1      20.529  22.350  13.3420  0.00  0.00     0.000 OA
ATOM     13   O  A00 X   1      19.792  20.068  13.7460  0.00  0.00     0.000 OA
ATOM     14   O  A00 X   1      18.276  21.689  12.8920  0.00  0.00     0.000 OA
ATOM     15   S  A00 X   1      19.649  21.270  12.9730  0.00  0.00     0.000 S
ENDBRANCH 2 11
BRANCH 5 16
ATOM     16   C  A00 X   1      22.279  17.108  10.3290  0.00  0.00     0.000 C
ATOM     17   O  A00 X   1      21.715  16.287   9.6350  0.00  0.00     0.000 OA
ATOM     18   O  A00 X   1      22.448  16.867  11.5070  0.00  0.00     0.000 OA
ENDBRANCH 5 16
BRANCH 1 19
ATOM     19  O4  A00 X   2      19.467  18.497   9.4140  0.00  0.00     0.000 O
BRANCH 19 23
ATOM     20  C1  A00 X   2      17.469  17.810   5.6860  0.00  0.00     0.000 C
ATOM     21  C2  A00 X   2      18.304  16.646   6.2740  0.00  0.00     0.000 C
ATOM     22  C3  A00 X   2      18.588  16.878   7.7730  0.00  0.00     0.000 C
ATOM     23  C4  A00 X   2      19.245  18.259   7.9950  0.00  0.00     0.000 C
ATOM     24  C5  A00 X   2      18.326  19.331   7.3470  0.00  0.00     0.000 C
ATOM     25  O5  A00 X   2      18.198  19.042   5.9300  0.00  0.00     0.000 O
ATOM     26   O  A00 X   2      19.304  15.742   8.2880  0.00  0.00     0.000 O
ATOM     28  HD  A00 X   2      19.890  15.759   7.6510  0.00  0.00     0.000 HD
BRANCH 21 30
ATOM     28   N  A00 X   2      18.633  16.254   4.9010  0.00  0.00     0.000 N
ATOM     30  HD  A00 X   2      18.845  15.586   5.4100  0.00  0.00     0.000 HD
ATOM     30   O  A00 X   2      18.925  13.936   4.8570  0.00  0.00     0.000 OA
ATOM     31   S  A00 X   2      19.702  15.111   4.6740  0.00  0.00     0.000 S
ATOM     32   O  A00 X   2      20.156  15.333   3.3360  0.00  0.00     0.000 OA
ATOM     33   O  A00 X   2      20.767  15.337   5.6050  0.00  0.00     0.000 OA
ENDBRANCH 21 30
BRANCH 24 34
ATOM     34   C  A00 X   2      18.638  20.820   7.6270  0.00  0.00     0.000 C
ATOM     35   O  A00 X   2      16.191  23.224   8.8470  0.00  0.00     0.000 OA
ATOM     36   O  A00 X   2      17.428  21.593   7.7520  0.00  0.00     0.000 O
ATOM     37   O  A00 X   2      16.705  21.191   9.9400  0.00  0.00     0.000 OA
ATOM     38   S  A00 X   2      17.210  22.274   9.1530  0.00  0.00     0.000 S
ATOM     39   O  A00 X   2      18.471  22.837   9.5300  0.00  0.00     0.000 OA
ENDBRANCH 24 34
BRANCH 20 40
ATOM     40  O4  A00 X   3      16.242  17.822   6.4300  0.00  0.00     0.000 O
BRANCH 40 44
ATOM     41  C1  A00 X   3      12.959  18.125   7.9310  0.00  0.00     0.000 C
ATOM     42  C2  A00 X   3      13.302  17.201   6.7420  0.00  0.00     0.000 C
ATOM     43  C3  A00 X   3      14.041  17.983   5.6260  0.00  0.00     0.000 C
ATOM     44  C4  A00 X   3      15.231  18.802   6.1080  0.00  0.00     0.000 C
ATOM     45  C5  A00 X   3      14.807  19.708   7.2980  0.00  0.00     0.000 C
ATOM     46  O5  A00 X   3      14.105  18.931   8.3220  0.00  0.00     0.000 O
ATOM     47   O  A00 X   3      14.331  17.248   4.4390  0.00  0.00     0.000 O
ATOM     49  HD  A00 X   3      15.071  17.697   4.4760  0.00  0.00     0.000 HD
BRANCH 42 49
ATOM     49   O  A00 X   3      14.116  16.127   7.2620  0.00  0.00     0.000 O
ATOM     50   O  A00 X   3      14.116  13.736   7.1380  0.00  0.00     0.000 OA
ATOM     51   O  A00 X   3      12.058  14.864   7.4250  0.00  0.00     0.000 OA
ATOM     52   O  A00 X   3      13.618  14.898   9.2000  0.00  0.00     0.000 OA
ATOM     53   S  A00 X   3      13.452  14.822   7.7900  0.00  0.00     0.000 S
ENDBRANCH 42 49
BRANCH 45 54
ATOM     54   C  A00 X   3      14.018  20.934   6.8250  0.00  0.00     0.000 C
ATOM     55   O  A00 X   3      13.402  21.617   7.6170  0.00  0.00     0.000 OA
ATOM     56   O  A00 X   3      13.995  21.245   5.6440  0.00  0.00     0.000 OA
ENDBRANCH 45 54
BRANCH 41 57
ATOM     57  O4  A00 X   4      11.760  18.892   7.6820  0.00  0.00     0.000 O
BRANCH 57 61
ATOM     58  C1  A00 X   4       9.441  20.787  10.7930  0.00  0.00     0.000 C
ATOM     59  C2  A00 X   4      10.802  20.148  11.1670  0.00  0.00     0.000 C
ATOM     60  C3  A00 X   4      11.689  19.831   9.9460  0.00  0.00     0.000 C
ATOM     61  C4  A00 X   4      10.903  19.092   8.8420  0.00  0.00     0.000 C
ATOM     62  C5  A00 X   4       9.707  20.005   8.4740  0.00  0.00     0.000 C
ATOM     63  O5  A00 X   4       8.849  20.158   9.6330  0.00  0.00     0.000 O
BRANCH 59 66
ATOM     64   N  A00 X   4      11.854  20.462  12.1510  0.00  0.00     0.000 N
ATOM     66  HD  A00 X   4      12.493  19.886  12.2510  0.00  0.00     0.000 HD
ATOM     66   O  A00 X   4      10.212  20.095  13.8740  0.00  0.00     0.000 OA
ATOM     67   S  A00 X   4      11.409  20.840  13.6400  0.00  0.00     0.000 S
ATOM     68   O  A00 X   4      12.561  20.402  14.3730  0.00  0.00     0.000 OA
ATOM     69   O  A00 X   4      11.297  22.266  13.5170  0.00  0.00     0.000 OA
ENDBRANCH 59 66
BRANCH 62 70
ATOM     70   C  A00 X   4       8.852  19.482   7.2950  0.00  0.00     0.000 C
ATOM     71   O  A00 X   4       6.290  21.216   5.4140  0.00  0.00     0.000 OA
ATOM     72   O  A00 X   4       6.276  19.089   6.4250  0.00  0.00     0.000 OA
ATOM     73   O  A00 X   4       8.144  20.580   6.6970  0.00  0.00     0.000 O
ATOM     74   O  A00 X   4       6.068  21.083   7.8110  0.00  0.00     0.000 OA
ATOM     75   S  A00 X   4       6.581  20.490   6.6180  0.00  0.00     0.000 S
ENDBRANCH 62 70
ENDBRANCH 57 61
ENDBRANCH 41 57
ENDBRANCH 40 44
ENDBRANCH 20 40
ENDBRANCH 19 23
ENDBRANCH 1 19
TORSDOF 14
ENDMDL
MODEL 56
REMARK VINA RESULT:      -2.3      8.141     14.235
ROOT
ATOM      1  C1  A00 X   1      23.237  18.938   6.6470  0.00  0.00     0.000 C
ATOM      2  C2  A00 X   1      24.471  18.333   5.9250  0.00  0.00     0.000 C
ATOM      3  C3  A00 X   1      24.235  16.980   5.1780  0.00  0.00     0.000 C
ATOM      4  C4  A00 X   1      22.928  16.231   5.5460  0.00  0.00     0.000 C
ATOM      5  C5  A00 X   1      22.394  16.644   6.9180  0.00  0.00     0.000 C
ATOM      6  O5  A00 X   1      22.099  18.052   6.7890  0.00  0.00     0.000 O
ATOM      7   O  A00 X   1      25.309  16.094   5.4840  0.00  0.00     0.000 O
ATOM      9  HD  A00 X   1      24.580  15.627   5.5010  0.00  0.00     0.000 HD
ATOM      9   O  A00 X   1      21.918  16.427   4.5570  0.00  0.00     0.000 O
ATOM     11  HD  A00 X   1      21.189  15.960   4.5740  0.00  0.00     0.000 HD
ENDROOT
BRANCH 2 11
ATOM     11   O  A00 X   1      24.952  19.312   4.9840  0.00  0.00     0.000 O
ATOM     12   O  A00 X   1      26.694  18.811   3.4080  0.00  0.00     0.000 OA
ATOM     13   O  A00 X   1      27.194  18.773   5.7890  0.00  0.00     0.000 OA
ATOM     14   O  A00 X   1      26.705  20.827   4.6930  0.00  0.00     0.000 OA
ATOM     15   S  A00 X   1      26.492  19.405   4.7060  0.00  0.00     0.000 S
ENDBRANCH 2 11
BRANCH 5 16
ATOM     16   C  A00 X   1      23.317  16.316   8.0970  0.00  0.00     0.000 C
ATOM     17   O  A00 X   1      24.202  15.503   7.9340  0.00  0.00     0.000 OA
ATOM     18   O  A00 X   1      23.197  16.846   9.1840  0.00  0.00     0.000 OA
ENDBRANCH 5 16
BRANCH 1 19
ATOM     19  O4  A00 X   2      23.577  19.568   7.9070  0.00  0.00     0.000 O
BRANCH 19 23
ATOM     20  C1  A00 X   2      20.848  22.826   7.3600  0.00  0.00     0.000 C
ATOM     21  C2  A00 X   2      22.336  23.074   7.0120  0.00  0.00     0.000 C
ATOM     22  C3  A00 X   2      23.090  21.739   6.8410  0.00  0.00     0.000 C
ATOM     23  C4  A00 X   2      22.906  20.847   8.0900  0.00  0.00     0.000 C
ATOM     24  C5  A00 X   2      21.382  20.692   8.3420  0.00  0.00     0.000 C
ATOM     25  O5  A00 X   2      20.807  22.007   8.5580  0.00  0.00     0.000 O
ATOM     26   O  A00 X   2      24.445  22.021   6.4520  0.00  0.00     0.000 O
ATOM     28  HD  A00 X   2      24.563  22.592   7.0930  0.00  0.00     0.000 HD
BRANCH 21 30
ATOM     28   N  A00 X   2      22.178  24.453   7.4850  0.00  0.00     0.000 N
ATOM     30  HD  A00 X   2      22.911  24.428   7.0240  0.00  0.00     0.000 HD
ATOM     30   O  A00 X   2      23.604  25.818   6.2340  0.00  0.00     0.000 OA
ATOM     31   S  A00 X   2      23.459  25.375   7.5760  0.00  0.00     0.000 S
ATOM     32   O  A00 X   2      23.081  26.389   8.5100  0.00  0.00     0.000 OA
ATOM     33   O  A00 X   2      24.519  24.574   8.1130  0.00  0.00     0.000 OA
ENDBRANCH 21 30
BRANCH 24 34
ATOM     34   C  A00 X   2      20.922  19.658   9.3980  0.00  0.00     0.000 C
ATOM     35   O  A00 X   2      21.930  19.730  12.8960  0.00  0.00     0.000 OA
ATOM     36   O  A00 X   2      21.742  19.722  10.5820  0.00  0.00     0.000 O
ATOM     37   O  A00 X   2      20.885  21.537  11.7850  0.00  0.00     0.000 OA
ATOM     38   S  A00 X   2      20.982  20.114  11.9030  0.00  0.00     0.000 S
ATOM     39   O  A00 X   2      19.762  19.364  11.9060  0.00  0.00     0.000 OA
ENDBRANCH 24 34
BRANCH 20 40
ATOM     40  O4  A00 X   3      20.309  22.087   6.2540  0.00  0.00     0.000 O
BRANCH 40 44
ATOM     41  C1  A00 X   3      18.268  19.298   5.1690  0.00  0.00     0.000 C
ATOM     42  C2  A00 X   3      19.034  20.249   4.2230  0.00  0.00     0.000 C
ATOM     43  C3  A00 X   3      18.724  21.731   4.5570  0.00  0.00     0.000 C
ATOM     44  C4  A00 X   3      18.883  22.096   6.0270  0.00  0.00     0.000 C
ATOM     45  C5  A00 X   3      18.082  21.100   6.9120  0.00  0.00     0.000 C
ATOM     46  O5  A00 X   3      18.397  19.714   6.5560  0.00  0.00     0.000 O
ATOM     47   O  A00 X   3      19.311  22.700   3.6900  0.00  0.00     0.000 O
ATOM     49  HD  A00 X   3      19.420  23.133   4.4320  0.00  0.00     0.000 HD
BRANCH 42 49
ATOM     49   O  A00 X   3      20.440  19.955   4.3760  0.00  0.00     0.000 O
ATOM     50   O  A00 X   3      22.495  20.821   3.5060  0.00  0.00     0.000 OA
ATOM     51   O  A00 X   3      20.654  20.567   2.0450  0.00  0.00     0.000 OA
ATOM     52   O  A00 X   3      21.690  18.623   2.9010  0.00  0.00     0.000 OA
ATOM     53   S  A00 X   3      21.389  19.992   3.1430  0.00  0.00     0.000 S
ENDBRANCH 42 49
BRANCH 45 54
ATOM     54   C  A00 X   3      16.579  21.402   6.8880  0.00  0.00     0.000 C
ATOM     55   O  A00 X   3      15.846  20.966   7.7530  0.00  0.00     0.000 OA
ATOM     56   O  A00 X   3      16.092  22.083   5.9990  0.00  0.00     0.000 OA
ENDBRANCH 45 54
BRANCH 41 57
ATOM     57  O4  A00 X   4      16.902  19.104   4.7390  0.00  0.00     0.000 O
BRANCH 57 61
ATOM     58  C1  A00 X   4      14.082  15.871   5.2260  0.00  0.00     0.000 C
ATOM     59  C2  A00 X   4      14.297  16.851   6.4060  0.00  0.00     0.000 C
ATOM     60  C3  A00 X   4      15.033  18.146   6.0040  0.00  0.00     0.000 C
ATOM     61  C4  A00 X   4      16.293  17.851   5.1620  0.00  0.00     0.000 C
ATOM     62  C5  A00 X   4      15.814  17.044   3.9290  0.00  0.00     0.000 C
ATOM     63  O5  A00 X   4      15.247  15.785   4.3730  0.00  0.00     0.000 O
BRANCH 59 66
ATOM     64   N  A00 X   4      13.409  17.386   7.4540  0.00  0.00     0.000 N
ATOM     66  HD  A00 X   4      13.771  17.862   8.0810  0.00  0.00     0.000 HD
ATOM     66   O  A00 X   4      13.157  15.128   8.2520  0.00  0.00     0.000 OA
ATOM     67   S  A00 X   4      12.444  16.367   8.2220  0.00  0.00     0.000 S
ATOM     68   O  A00 X   4      12.314  17.035   9.4840  0.00  0.00     0.000 OA
ATOM     69   O  A00 X   4      11.277  16.448   7.3900  0.00  0.00     0.000 OA
ENDBRANCH 59 66
BRANCH 62 70
ATOM     70   C  A00 X   4      16.929  16.744   2.8980  0.00  0.00     0.000 C
ATOM     71   O  A00 X   4      19.128  13.874   2.7160  0.00  0.00     0.000 OA
ATOM     72   O  A00 X   4      19.602  16.179   2.6230  0.00  0.00     0.000 OA
ATOM     73   O  A00 X   4      17.373  15.388   3.0610  0.00  0.00     0.000 O
ATOM     74   O  A00 X   4      19.061  15.147   4.7630  0.00  0.00     0.000 OA
ATOM     75   S  A00 X   4      18.896  15.144   3.3450  0.00  0.00     0.000 S
ENDBRANCH 62 70
ENDBRANCH 57 61
ENDBRANCH 41 57
ENDBRANCH 40 44
ENDBRANCH 20 40
ENDBRANCH 19 23
ENDBRANCH 1 19
TORSDOF 14
ENDMDL
MODEL 57
REMARK VINA RESULT:      -2.2     11.453     17.630
ROOT
ATOM      1  C1  A00 X   1       5.978  20.044  25.0340  0.00  0.00     0.000 C
ATOM      2  C2  A00 X   1       5.480  21.492  25.2890  0.00  0.00     0.000 C
ATOM      3  C3  A00 X   1       6.451  22.639  24.8540  0.00  0.00     0.000 C
ATOM      4  C4  A00 X   1       7.913  22.206  24.5710  0.00  0.00     0.000 C
ATOM      5  C5  A00 X   1       8.273  20.896  25.2710  0.00  0.00     0.000 C
ATOM      6  O5  A00 X   1       7.381  19.915  24.6950  0.00  0.00     0.000 O
ATOM      7   O  A00 X   1       6.511  23.608  25.8990  0.00  0.00     0.000 O
ATOM      9  HD  A00 X   1       7.318  23.503  25.6010  0.00  0.00     0.000 HD
ATOM      9   O  A00 X   1       8.161  22.089  23.1700  0.00  0.00     0.000 O
ATOM     11  HD  A00 X   1       8.967  21.984  22.8730  0.00  0.00     0.000 HD
ENDROOT
BRANCH 2 11
ATOM     11   O  A00 X   1       4.226  21.653  24.5980  0.00  0.00     0.000 O
ATOM     12   O  A00 X   1       3.184  23.801  24.3410  0.00  0.00     0.000 OA
ATOM     13   O  A00 X   1       3.462  22.873  26.5720  0.00  0.00     0.000 OA
ATOM     14   O  A00 X   1       1.943  21.879  25.0340  0.00  0.00     0.000 OA
ATOM     15   S  A00 X   1       3.157  22.636  25.1880  0.00  0.00     0.000 S
ENDBRANCH 2 11
BRANCH 5 16
ATOM     16   C  A00 X   1       8.224  20.944  26.8020  0.00  0.00     0.000 C
ATOM     17   O  A00 X   1       8.279  19.900  27.4180  0.00  0.00     0.000 OA
ATOM     18   O  A00 X   1       8.140  21.988  27.4180  0.00  0.00     0.000 OA
ENDBRANCH 5 16
BRANCH 1 19
ATOM     19  O4  A00 X   2       5.603  19.128  26.0910  0.00  0.00     0.000 O
BRANCH 19 23
ATOM     20  C1  A00 X   2       4.133  16.161  23.3700  0.00  0.00     0.000 C
ATOM     21  C2  A00 X   2       3.088  16.992  24.1540  0.00  0.00     0.000 C
ATOM     22  C3  A00 X   2       3.728  18.270  24.7370  0.00  0.00     0.000 C
ATOM     23  C4  A00 X   2       4.972  17.917  25.5830  0.00  0.00     0.000 C
ATOM     24  C5  A00 X   2       5.927  17.074  24.6950  0.00  0.00     0.000 C
ATOM     25  O5  A00 X   2       5.232  15.871  24.2730  0.00  0.00     0.000 O
ATOM     26   O  A00 X   2       2.706  19.038  25.3940  0.00  0.00     0.000 O
ATOM     28  HD  A00 X   2       2.419  18.361  25.8500  0.00  0.00     0.000 HD
BRANCH 21 30
ATOM     28   N  A00 X   2       1.919  17.787  23.7670  0.00  0.00     0.000 N
ATOM     30  HD  A00 X   2       1.652  16.966  23.8360  0.00  0.00     0.000 HD
ATOM     30   O  A00 X   2       0.005  16.511  24.1740  0.00  0.00     0.000 OA
ATOM     31   S  A00 X   2       0.704  17.058  23.0660  0.00  0.00     0.000 S
ATOM     32   O  A00 X   2       0.023  18.114  22.3830  0.00  0.00     0.000 OA
ATOM     33   O  A00 X   2       1.254  16.130  22.1230  0.00  0.00     0.000 OA
ENDBRANCH 21 30
BRANCH 24 34
ATOM     34   C  A00 X   2       7.350  16.786  25.2290  0.00  0.00     0.000 C
ATOM     35   O  A00 X   2       8.043  15.155  28.4100  0.00  0.00     0.000 OA
ATOM     36   O  A00 X   2       7.325  16.467  26.6350  0.00  0.00     0.000 O
ATOM     37   O  A00 X   2       6.691  14.217  26.7120  0.00  0.00     0.000 OA
ATOM     38   S  A00 X   2       7.834  15.026  27.0050  0.00  0.00     0.000 S
ATOM     39   O  A00 X   2       9.020  14.805  26.2330  0.00  0.00     0.000 OA
ENDBRANCH 24 34
BRANCH 20 40
ATOM     40  O4  A00 X   3       4.593  17.015  22.3120  0.00  0.00     0.000 O
BRANCH 40 44
ATOM     41  C1  A00 X   3       6.342  18.671  19.6060  0.00  0.00     0.000 C
ATOM     42  C2  A00 X   3       4.811  18.684  19.8030  0.00  0.00     0.000 C
ATOM     43  C3  A00 X   3       4.264  17.246  19.9980  0.00  0.00     0.000 C
ATOM     44  C4  A00 X   3       4.995  16.429  21.0550  0.00  0.00     0.000 C
ATOM     45  C5  A00 X   3       6.526  16.460  20.7880  0.00  0.00     0.000 C
ATOM     46  O5  A00 X   3       6.996  17.834  20.5990  0.00  0.00     0.000 O
ATOM     47   O  A00 X   3       2.846  17.128  20.1030  0.00  0.00     0.000 O
ATOM     49  HD  A00 X   3       3.053  16.535  20.6990  0.00  0.00     0.000 HD
BRANCH 42 49
ATOM     49   O  A00 X   3       4.539  19.513  20.9540  0.00  0.00     0.000 O
ATOM     50   O  A00 X   3       2.592  20.255  22.1340  0.00  0.00     0.000 OA
ATOM     51   O  A00 X   3       2.550  20.221  19.7700  0.00  0.00     0.000 OA
ATOM     52   O  A00 X   3       3.955  21.785  20.8500  0.00  0.00     0.000 OA
ATOM     53   S  A00 X   3       3.340  20.506  20.9420  0.00  0.00     0.000 S
ENDBRANCH 42 49
BRANCH 45 54
ATOM     54   C  A00 X   3       6.920  15.525  19.6380  0.00  0.00     0.000 C
ATOM     55   O  A00 X   3       6.074  15.054  18.9050  0.00  0.00     0.000 OA
ATOM     56   O  A00 X   3       8.090  15.235  19.4410  0.00  0.00     0.000 OA
ENDBRANCH 45 54
BRANCH 41 57
ATOM     57  O4  A00 X   4       6.703  18.355  18.2430  0.00  0.00     0.000 O
BRANCH 57 61
ATOM     58  C1  A00 X   4      10.236  19.282  15.9420  0.00  0.00     0.000 C
ATOM     59  C2  A00 X   4      10.060  17.841  16.4820  0.00  0.00     0.000 C
ATOM     60  C3  A00 X   4       8.627  17.536  16.9640  0.00  0.00     0.000 C
ATOM     61  C4  A00 X   4       8.083  18.649  17.8840  0.00  0.00     0.000 C
ATOM     62  C5  A00 X   4       8.157  19.964  17.0690  0.00  0.00     0.000 C
ATOM     63  O5  A00 X   4       9.543  20.255  16.7570  0.00  0.00     0.000 O
BRANCH 59 66
ATOM     64   N  A00 X   4      10.909  17.567  17.6550  0.00  0.00     0.000 N
ATOM     66  HD  A00 X   4      11.106  18.235  18.1710  0.00  0.00     0.000 HD
ATOM     66   O  A00 X   4      12.735  17.212  16.1260  0.00  0.00     0.000 OA
ATOM     67   S  A00 X   4      12.297  16.807  17.4250  0.00  0.00     0.000 S
ATOM     68   O  A00 X   4      13.060  17.323  18.5230  0.00  0.00     0.000 OA
ATOM     69   O  A00 X   4      11.871  15.446  17.5930  0.00  0.00     0.000 OA
ENDBRANCH 59 66
BRANCH 62 70
ATOM     70   C  A00 X   4       7.547  21.190  17.7900  0.00  0.00     0.000 C
ATOM     71   O  A00 X   4       9.195  23.612  19.9180  0.00  0.00     0.000 OA
ATOM     72   O  A00 X   4       7.214  22.382  20.2420  0.00  0.00     0.000 OA
ATOM     73   O  A00 X   4       8.606  22.006  18.3170  0.00  0.00     0.000 O
ATOM     74   O  A00 X   4       9.371  21.274  20.4820  0.00  0.00     0.000 OA
ATOM     75   S  A00 X   4       8.605  22.304  19.8570  0.00  0.00     0.000 S
ENDBRANCH 62 70
ENDBRANCH 57 61
ENDBRANCH 41 57
ENDBRANCH 40 44
ENDBRANCH 20 40
ENDBRANCH 19 23
ENDBRANCH 1 19
TORSDOF 14
ENDMDL
MODEL 58
REMARK VINA RESULT:      -2.0      9.820     14.527
ROOT
ATOM      1  C1  A00 X   1      10.684  12.662  23.0420  0.00  0.00     0.000 C
ATOM      2  C2  A00 X   1      12.124  12.728  23.6180  0.00  0.00     0.000 C
ATOM      3  C3  A00 X   1      12.592  11.483  24.4410  0.00  0.00     0.000 C
ATOM      4  C4  A00 X   1      11.466  10.517  24.8910  0.00  0.00     0.000 C
ATOM      5  C5  A00 X   1      10.100  11.202  24.9320  0.00  0.00     0.000 C
ATOM      6  O5  A00 X   1       9.848  11.601  23.5660  0.00  0.00     0.000 O
ATOM      7   O  A00 X   1      13.235  11.937  25.6310  0.00  0.00     0.000 O
ATOM      9  HD  A00 X   1      12.741  11.260  25.8500  0.00  0.00     0.000 HD
ATOM      9   O  A00 X   1      11.402   9.364  24.0520  0.00  0.00     0.000 O
ATOM     11  HD  A00 X   1      10.909   8.687  24.2710  0.00  0.00     0.000 HD
ENDROOT
BRANCH 2 11
ATOM     11   O  A00 X   1      13.029  12.928  22.5140  0.00  0.00     0.000 O
ATOM     12   O  A00 X   1      15.335  13.505  22.8520  0.00  0.00     0.000 OA
ATOM     13   O  A00 X   1      13.603  15.059  23.5600  0.00  0.00     0.000 OA
ATOM     14   O  A00 X   1      13.978  14.645  21.2480  0.00  0.00     0.000 OA
ATOM     15   S  A00 X   1      14.056  14.110  22.5810  0.00  0.00     0.000 S
ENDBRANCH 2 11
BRANCH 5 16
ATOM     16   C  A00 X   1       9.982  12.351  25.9390  0.00  0.00     0.000 C
ATOM     17   O  A00 X   1      10.815  12.443  26.8170  0.00  0.00     0.000 OA
ATOM     18   O  A00 X   1       9.091  13.175  25.8850  0.00  0.00     0.000 OA
ENDBRANCH 5 16
BRANCH 1 19
ATOM     19  O4  A00 X   2      10.004  13.940  23.0840  0.00  0.00     0.000 O
BRANCH 19 23
ATOM     20  C1  A00 X   2       7.589  13.185  19.6250  0.00  0.00     0.000 C
ATOM     21  C2  A00 X   2       8.964  13.861  19.4030  0.00  0.00     0.000 C
ATOM     22  C3  A00 X   2       9.874  13.673  20.6350  0.00  0.00     0.000 C
ATOM     23  C4  A00 X   2       9.163  14.165  21.9160  0.00  0.00     0.000 C
ATOM     24  C5  A00 X   2       7.798  13.431  22.0130  0.00  0.00     0.000 C
ATOM     25  O5  A00 X   2       7.013  13.748  20.8340  0.00  0.00     0.000 O
ATOM     26   O  A00 X   2      11.158  14.255  20.3540  0.00  0.00     0.000 O
ATOM     28  HD  A00 X   2      10.815  15.004  20.0860  0.00  0.00     0.000 HD
BRANCH 21 30
ATOM     28   N  A00 X   2       8.371  14.631  18.3060  0.00  0.00     0.000 N
ATOM     30  HD  A00 X   2       9.230  14.692  18.2190  0.00  0.00     0.000 HD
ATOM     30   O  A00 X   2      10.028  15.008  16.7030  0.00  0.00     0.000 OA
ATOM     31   S  A00 X   2       9.238  15.757  17.6150  0.00  0.00     0.000 S
ATOM     32   O  A00 X   2       8.263  16.611  17.0090  0.00  0.00     0.000 OA
ATOM     33   O  A00 X   2       9.933  16.455  18.6550  0.00  0.00     0.000 OA
ENDBRANCH 21 30
BRANCH 24 34
ATOM     34   C  A00 X   2       6.989  13.573  23.3240  0.00  0.00     0.000 C
ATOM     35   O  A00 X   2       5.798  16.747  24.6540  0.00  0.00     0.000 OA
ATOM     36   O  A00 X   2       6.965  14.942  23.7780  0.00  0.00     0.000 O
ATOM     37   O  A00 X   2       5.303  15.955  22.4810  0.00  0.00     0.000 OA
ATOM     38   S  A00 X   2       5.539  15.600  23.8470  0.00  0.00     0.000 S
ATOM     39   O  A00 X   2       4.671  14.626  24.4390  0.00  0.00     0.000 OA
ENDBRANCH 24 34
BRANCH 20 40
ATOM     40  O4  A00 X   3       7.869  11.793  19.8300  0.00  0.00     0.000 O
BRANCH 40 44
ATOM     41  C1  A00 X   3       8.121   8.238  20.4790  0.00  0.00     0.000 C
ATOM     42  C2  A00 X   3       7.921   8.866  19.0820  0.00  0.00     0.000 C
ATOM     43  C3  A00 X   3       6.740   9.870  19.0890  0.00  0.00     0.000 C
ATOM     44  C4  A00 X   3       6.795  10.905  20.2070  0.00  0.00     0.000 C
ATOM     45  C5  A00 X   3       6.993  10.197  21.5770  0.00  0.00     0.000 C
ATOM     46  O5  A00 X   3       8.110   9.252  21.5210  0.00  0.00     0.000 O
ATOM     47   O  A00 X   3       6.407  10.449  17.8290  0.00  0.00     0.000 O
ATOM     49  HD  A00 X   3       6.289  11.157  18.3120  0.00  0.00     0.000 HD
BRANCH 42 49
ATOM     49   O  A00 X   3       9.163   9.513  18.7270  0.00  0.00     0.000 O
ATOM     50   O  A00 X   3      10.481   9.763  16.7450  0.00  0.00     0.000 OA
ATOM     51   O  A00 X   3       9.505   7.660  17.2080  0.00  0.00     0.000 OA
ATOM     52   O  A00 X   3      11.243   8.429  18.6120  0.00  0.00     0.000 OA
ATOM     53   S  A00 X   3      10.167   8.813  17.7650  0.00  0.00     0.000 S
ENDBRANCH 42 49
BRANCH 45 54
ATOM     54   C  A00 X   3       5.690   9.564  22.0810  0.00  0.00     0.000 C
ATOM     55   O  A00 X   3       5.649   9.010  23.1610  0.00  0.00     0.000 OA
ATOM     56   O  A00 X   3       4.673   9.604  21.4060  0.00  0.00     0.000 OA
ENDBRANCH 45 54
BRANCH 41 57
ATOM     57  O4  A00 X   4       7.202   7.147  20.7100  0.00  0.00     0.000 O
BRANCH 57 61
ATOM     58  C1  A00 X   4       7.533   3.636  23.2000  0.00  0.00     0.000 C
ATOM     59  C2  A00 X   4       8.004   4.996  23.7710  0.00  0.00     0.000 C
ATOM     60  C3  A00 X   4       7.514   6.209  22.9540  0.00  0.00     0.000 C
ATOM     61  C4  A00 X   4       7.756   6.016  21.4410  0.00  0.00     0.000 C
ATOM     62  C5  A00 X   4       7.023   4.711  21.0450  0.00  0.00     0.000 C
ATOM     63  O5  A00 X   4       7.617   3.595  21.7570  0.00  0.00     0.000 O
BRANCH 59 66
ATOM     64   N  A00 X   4       9.476   5.062  23.7390  0.00  0.00     0.000 N
ATOM     66  HD  A00 X   4       9.884   4.595  23.1340  0.00  0.00     0.000 HD
ATOM     66   O  A00 X   4       9.476   3.815  25.8000  0.00  0.00     0.000 OA
ATOM     67   S  A00 X   4      10.277   4.764  25.0920  0.00  0.00     0.000 S
ATOM     68   O  A00 X   4      11.507   4.257  24.5570  0.00  0.00     0.000 OA
ATOM     69   O  A00 X   4      10.371   6.093  25.6270  0.00  0.00     0.000 OA
ENDBRANCH 59 66
BRANCH 62 70
ATOM     70   C  A00 X   4       7.058   4.401  19.5290  0.00  0.00     0.000 C
ATOM     71   O  A00 X   4       6.212   1.317  17.8310  0.00  0.00     0.000 OA
ATOM     72   O  A00 X   4       8.102   2.709  17.6340  0.00  0.00     0.000 OA
ATOM     73   O  A00 X   4       6.408   3.143  19.2870  0.00  0.00     0.000 O
ATOM     74   O  A00 X   4       7.876   1.254  19.5760  0.00  0.00     0.000 OA
ATOM     75   S  A00 X   4       7.230   2.021  18.5600  0.00  0.00     0.000 S
ENDBRANCH 62 70
ENDBRANCH 57 61
ENDBRANCH 41 57
ENDBRANCH 40 44
ENDBRANCH 20 40
ENDBRANCH 19 23
ENDBRANCH 1 19
TORSDOF 14
ENDMDL
MODEL 59
REMARK VINA RESULT:      -2.0     10.035     14.615
ROOT
ATOM      1  C1  A00 X   1      10.290  10.223  25.4250  0.00  0.00     0.000 C
ATOM      2  C2  A00 X   1      10.783  11.092  26.6120  0.00  0.00     0.000 C
ATOM      3  C3  A00 X   1      10.507  10.523  28.0430  0.00  0.00     0.000 C
ATOM      4  C4  A00 X   1       9.471   9.372  28.1160  0.00  0.00     0.000 C
ATOM      5  C5  A00 X   1       8.528   9.367  26.9130  0.00  0.00     0.000 C
ATOM      6  O5  A00 X   1       9.388   9.143  25.7730  0.00  0.00     0.000 O
ATOM      7   O  A00 X   1      10.003  11.574  28.8640  0.00  0.00     0.000 O
ATOM      9  HD  A00 X   1       9.542  10.864  29.0460  0.00  0.00     0.000 HD
ATOM      9   O  A00 X   1      10.111   8.101  28.2330  0.00  0.00     0.000 O
ATOM     11  HD  A00 X   1       9.649   7.391  28.4150  0.00  0.00     0.000 HD
ENDROOT
BRANCH 2 11
ATOM     11   O  A00 X   1      12.202  11.290  26.4510  0.00  0.00     0.000 O
ATOM     12   O  A00 X   1      13.412  12.917  27.7370  0.00  0.00     0.000 OA
ATOM     13   O  A00 X   1      11.695  13.664  26.1840  0.00  0.00     0.000 OA
ATOM     14   O  A00 X   1      13.715  12.705  25.3760  0.00  0.00     0.000 OA
ATOM     15   S  A00 X   1      12.770  12.751  26.4580  0.00  0.00     0.000 S
ENDBRANCH 2 11
BRANCH 5 16
ATOM     16   C  A00 X   1       7.644  10.611  26.7780  0.00  0.00     0.000 C
ATOM     17   O  A00 X   1       7.019  10.771  25.7500  0.00  0.00     0.000 OA
ATOM     18   O  A00 X   1       7.540  11.436  27.6640  0.00  0.00     0.000 OA
ENDBRANCH 5 16
BRANCH 1 19
ATOM     19  O4  A00 X   2       9.768  11.013  24.3290  0.00  0.00     0.000 O
BRANCH 19 23
ATOM     20  C1  A00 X   2       9.306  10.124  20.1620  0.00  0.00     0.000 C
ATOM     21  C2  A00 X   2       8.566   9.215  21.1740  0.00  0.00     0.000 C
ATOM     22  C3  A00 X   2       8.469   9.895  22.5550  0.00  0.00     0.000 C
ATOM     23  C4  A00 X   2       9.868  10.327  23.0480  0.00  0.00     0.000 C
ATOM     24  C5  A00 X   2      10.508  11.213  21.9440  0.00  0.00     0.000 C
ATOM     25  O5  A00 X   2      10.609  10.436  20.7220  0.00  0.00     0.000 O
ATOM     26   O  A00 X   2       7.717   9.043  23.4360  0.00  0.00     0.000 O
ATOM     28  HD  A00 X   2       8.191   8.344  23.2470  0.00  0.00     0.000 HD
BRANCH 21 30
ATOM     28   N  A00 X   2       7.174   8.778  21.3130  0.00  0.00     0.000 N
ATOM     30  HD  A00 X   2       7.553   8.231  20.7600  0.00  0.00     0.000 HD
ATOM     30   O  A00 X   2       7.008   6.599  20.4870  0.00  0.00     0.000 OA
ATOM     31   S  A00 X   2       6.535   7.899  20.1650  0.00  0.00     0.000 S
ATOM     32   O  A00 X   2       5.128   8.089  20.3350  0.00  0.00     0.000 OA
ATOM     33   O  A00 X   2       6.965   8.455  18.9170  0.00  0.00     0.000 OA
ENDBRANCH 21 30
BRANCH 24 34
ATOM     34   C  A00 X   2      11.817  11.964  22.2850  0.00  0.00     0.000 C
ATOM     35   O  A00 X   2      12.806  15.127  20.7760  0.00  0.00     0.000 OA
ATOM     36   O  A00 X   2      12.110  12.975  21.3000  0.00  0.00     0.000 O
ATOM     37   O  A00 X   2      10.754  14.784  21.9010  0.00  0.00     0.000 OA
ATOM     38   S  A00 X   2      12.144  14.450  21.8430  0.00  0.00     0.000 S
ATOM     39   O  A00 X   2      12.869  14.410  23.0780  0.00  0.00     0.000 OA
ENDBRANCH 24 34
BRANCH 20 40
ATOM     40  O4  A00 X   3       8.522  11.323  20.0740  0.00  0.00     0.000 O
BRANCH 40 44
ATOM     41  C1  A00 X   3       7.210  14.658  19.5460  0.00  0.00     0.000 C
ATOM     42  C2  A00 X   3       6.365  13.366  19.5200  0.00  0.00     0.000 C
ATOM     43  C3  A00 X   3       6.999  12.308  18.5800  0.00  0.00     0.000 C
ATOM     44  C4  A00 X   3       8.480  12.048  18.8260  0.00  0.00     0.000 C
ATOM     45  C5  A00 X   3       9.262  13.392  18.8340  0.00  0.00     0.000 C
ATOM     46  O5  A00 X   3       8.623  14.363  19.7250  0.00  0.00     0.000 O
ATOM     47   O  A00 X   3       6.257  11.102  18.4100  0.00  0.00     0.000 O
ATOM     49  HD  A00 X   3       7.046  10.746  18.4320  0.00  0.00     0.000 HD
BRANCH 42 49
ATOM     49   O  A00 X   3       6.285  12.884  20.8790  0.00  0.00     0.000 O
ATOM     50   O  A00 X   3       5.257  11.040  22.0060  0.00  0.00     0.000 OA
ATOM     51   O  A00 X   3       4.042  12.169  20.3220  0.00  0.00     0.000 OA
ATOM     52   O  A00 X   3       4.497  13.312  22.3400  0.00  0.00     0.000 OA
ATOM     53   S  A00 X   3       4.948  12.313  21.4330  0.00  0.00     0.000 S
ENDBRANCH 42 49
BRANCH 45 54
ATOM     54   C  A00 X   3       9.481  13.929  17.4140  0.00  0.00     0.000 C
ATOM     55   O  A00 X   3      10.292  14.807  17.2030  0.00  0.00     0.000 OA
ATOM     56   O  A00 X   3       8.844  13.485  16.4720  0.00  0.00     0.000 OA
ENDBRANCH 45 54
BRANCH 41 57
ATOM     57  O4  A00 X   4       6.926  15.505  18.4100  0.00  0.00     0.000 O
BRANCH 57 61
ATOM     58  C1  A00 X   4       7.326  19.759  17.7880  0.00  0.00     0.000 C
ATOM     59  C2  A00 X   4       8.472  18.829  17.3150  0.00  0.00     0.000 C
ATOM     60  C3  A00 X   4       8.072  17.341  17.2580  0.00  0.00     0.000 C
ATOM     61  C4  A00 X   4       7.355  16.889  18.5490  0.00  0.00     0.000 C
ATOM     62  C5  A00 X   4       6.126  17.818  18.7130  0.00  0.00     0.000 C
ATOM     63  O5  A00 X   4       6.581  19.185  18.8860  0.00  0.00     0.000 O
BRANCH 59 66
ATOM     64   N  A00 X   4       9.581  18.744  16.3490  0.00  0.00     0.000 N
ATOM     66  HD  A00 X   4      10.210  18.171  16.5110  0.00  0.00     0.000 HD
ATOM     66   O  A00 X   4      10.295  20.908  17.1300  0.00  0.00     0.000 OA
ATOM     67   S  A00 X   4      10.350  20.092  15.9570  0.00  0.00     0.000 S
ATOM     68   O  A00 X   4      11.643  19.566  15.6310  0.00  0.00     0.000 OA
ATOM     69   O  A00 X   4       9.577  20.502  14.8190  0.00  0.00     0.000 OA
ENDBRANCH 59 66
BRANCH 62 70
ATOM     70   C  A00 X   4       5.210  17.450  19.9040  0.00  0.00     0.000 C
ATOM     71   O  A00 X   4       1.748  18.352  20.4580  0.00  0.00     0.000 OA
ATOM     72   O  A00 X   4       3.617  18.493  21.8830  0.00  0.00     0.000 OA
ATOM     73   O  A00 X   4       3.855  17.809  19.5900  0.00  0.00     0.000 O
ATOM     74   O  A00 X   4       3.352  20.113  20.0820  0.00  0.00     0.000 OA
ATOM     75   S  A00 X   4       3.112  18.790  20.5610  0.00  0.00     0.000 S
ENDBRANCH 62 70
ENDBRANCH 57 61
ENDBRANCH 41 57
ENDBRANCH 40 44
ENDBRANCH 20 40
ENDBRANCH 19 23
ENDBRANCH 1 19
TORSDOF 14
ENDMDL
MODEL 60
REMARK VINA RESULT:      -1.5      7.100     12.681
ROOT
ATOM      1  C1  A00 X   1      24.360   6.083  16.6710  0.00  0.00     0.000 C
ATOM      2  C2  A00 X   1      24.235   6.031  18.2170  0.00  0.00     0.000 C
ATOM      3  C3  A00 X   1      25.572   5.846  19.0080  0.00  0.00     0.000 C
ATOM      4  C4  A00 X   1      26.787   5.375  18.1680  0.00  0.00     0.000 C
ATOM      5  C5  A00 X   1      26.359   4.667  16.8820  0.00  0.00     0.000 C
ATOM      6  O5  A00 X   1      25.640   5.671  16.1320  0.00  0.00     0.000 O
ATOM      7   O  A00 X   1      25.373   4.861  20.0200  0.00  0.00     0.000 O
ATOM      9  HD  A00 X   1      26.152   4.715  19.6700  0.00  0.00     0.000 HD
ATOM      9   O  A00 X   1      27.657   6.461  17.8530  0.00  0.00     0.000 O
ATOM     11  HD  A00 X   1      28.436   6.315  17.5040  0.00  0.00     0.000 HD
ENDROOT
BRANCH 2 11
ATOM     11   O  A00 X   1      23.600   7.251  18.6470  0.00  0.00     0.000 O
ATOM     12   O  A00 X   1      22.772   7.531  20.8840  0.00  0.00     0.000 OA
ATOM     13   O  A00 X   1      21.769   5.845  19.4460  0.00  0.00     0.000 OA
ATOM     14   O  A00 X   1      21.475   8.158  18.9770  0.00  0.00     0.000 OA
ATOM     15   S  A00 X   1      22.331   7.163  19.5630  0.00  0.00     0.000 S
ENDBRANCH 2 11
BRANCH 5 16
ATOM     16   C  A00 X   1      25.567   3.372  17.0890  0.00  0.00     0.000 C
ATOM     17   O  A00 X   1      25.612   2.830  18.1740  0.00  0.00     0.000 OA
ATOM     18   O  A00 X   1      24.892   2.873  16.2100  0.00  0.00     0.000 OA
ENDBRANCH 5 16
BRANCH 1 19
ATOM     19  O4  A00 X   2      23.264   5.416  15.9970  0.00  0.00     0.000 O
BRANCH 19 23
ATOM     20  C1  A00 X   2      21.532   6.026  12.1250  0.00  0.00     0.000 C
ATOM     21  C2  A00 X   2      22.854   5.225  12.1980  0.00  0.00     0.000 C
ATOM     22  C3  A00 X   2      23.114   4.723  13.6340  0.00  0.00     0.000 C
ATOM     23  C4  A00 X   2      23.068   5.898  14.6370  0.00  0.00     0.000 C
ATOM     24  C5  A00 X   2      21.709   6.628  14.4520  0.00  0.00     0.000 C
ATOM     25  O5  A00 X   2      21.621   7.111  13.0860  0.00  0.00     0.000 O
ATOM     26   O  A00 X   2      24.313   3.930  13.6360  0.00  0.00     0.000 O
ATOM     28  HD  A00 X   2      24.773   4.533  13.2180  0.00  0.00     0.000 HD
BRANCH 21 30
ATOM     28   N  A00 X   2      23.283   3.917  11.6930  0.00  0.00     0.000 N
ATOM     30  HD  A00 X   2      23.400   4.485  11.0500  0.00  0.00     0.000 HD
ATOM     30   O  A00 X   2      24.552   4.264   9.7620  0.00  0.00     0.000 OA
ATOM     31   S  A00 X   2      23.312   3.679  10.1310  0.00  0.00     0.000 S
ATOM     32   O  A00 X   2      23.253   2.256  10.0030  0.00  0.00     0.000 OA
ATOM     33   O  A00 X   2      22.127   4.276   9.5900  0.00  0.00     0.000 OA
ENDBRANCH 21 30
BRANCH 24 34
ATOM     34   C  A00 X   2      21.315   7.702  15.4930  0.00  0.00     0.000 C
ATOM     35   O  A00 X   2      20.007  10.990  14.6350  0.00  0.00     0.000 OA
ATOM     36   O  A00 X   2      21.174   8.998  14.8780  0.00  0.00     0.000 O
ATOM     37   O  A00 X   2      19.045   8.955  13.9100  0.00  0.00     0.000 OA
ATOM     38   S  A00 X   2      19.736   9.630  14.9660  0.00  0.00     0.000 S
ATOM     39   O  A00 X   2      19.279   9.410  16.3050  0.00  0.00     0.000 OA
ENDBRANCH 24 34
BRANCH 20 40
ATOM     40  O4  A00 X   3      20.502   5.112  12.5280  0.00  0.00     0.000 O
BRANCH 40 44
ATOM     41  C1  A00 X   3      17.480   3.475  13.6750  0.00  0.00     0.000 C
ATOM     42  C2  A00 X   3      18.494   2.859  12.6850  0.00  0.00     0.000 C
ATOM     43  C3  A00 X   3      18.801   3.840  11.5240  0.00  0.00     0.000 C
ATOM     44  C4  A00 X   3      19.178   5.248  11.9670  0.00  0.00     0.000 C
ATOM     45  C5  A00 X   3      18.111   5.799  12.9540  0.00  0.00     0.000 C
ATOM     46  O5  A00 X   3      17.845   4.838  14.0270  0.00  0.00     0.000 O
ATOM     47   O  A00 X   3      19.661   3.342  10.5010  0.00  0.00     0.000 O
ATOM     49  HD  A00 X   3      19.974   4.149  10.5280  0.00  0.00     0.000 HD
BRANCH 42 49
ATOM     49   O  A00 X   3      19.684   2.545  13.4400  0.00  0.00     0.000 O
ATOM     50   O  A00 X   3      21.829   1.590  12.9740  0.00  0.00     0.000 OA
ATOM     51   O  A00 X   3      19.913   0.634  11.9730  0.00  0.00     0.000 OA
ATOM     52   O  A00 X   3      20.187   0.423  14.3110  0.00  0.00     0.000 OA
ATOM     53   S  A00 X   3      20.462   1.224  13.1680  0.00  0.00     0.000 S
ENDBRANCH 42 49
BRANCH 45 54
ATOM     54   C  A00 X   3      16.842   6.253  12.2220  0.00  0.00     0.000 C
ATOM     55   O  A00 X   3      16.035   6.973  12.7730  0.00  0.00     0.000 OA
ATOM     56   O  A00 X   3      16.621   5.898  11.0750  0.00  0.00     0.000 OA
ENDBRANCH 45 54
BRANCH 41 57
ATOM     57  O4  A00 X   4      16.121   3.334  13.2040  0.00  0.00     0.000 O
BRANCH 57 61
ATOM     58  C1  A00 X   4      12.371   3.358  15.3420  0.00  0.00     0.000 C
ATOM     59  C2  A00 X   4      12.738   4.589  14.4760  0.00  0.00     0.000 C
ATOM     60  C3  A00 X   4      13.898   4.325  13.4940  0.00  0.00     0.000 C
ATOM     61  C4  A00 X   4      15.092   3.635  14.1880  0.00  0.00     0.000 C
ATOM     62  C5  A00 X   4      14.540   2.326  14.8050  0.00  0.00     0.000 C
ATOM     63  O5  A00 X   4      13.544   2.654  15.8080  0.00  0.00     0.000 O
BRANCH 59 66
ATOM     64   N  A00 X   4      13.190   5.777  15.2230  0.00  0.00     0.000 N
ATOM     66  HD  A00 X   4      13.613   5.644  15.9670  0.00  0.00     0.000 HD
ATOM     66   O  A00 X   4      10.876   6.220  15.7210  0.00  0.00     0.000 OA
ATOM     67   S  A00 X   4      12.116   6.913  15.5600  0.00  0.00     0.000 S
ATOM     68   O  A00 X   4      12.681   7.454  16.7620  0.00  0.00     0.000 OA
ATOM     69   O  A00 X   4      12.268   7.755  14.4080  0.00  0.00     0.000 OA
ENDBRANCH 59 66
BRANCH 62 70
ATOM     70   C  A00 X   4      15.620   1.431  15.4580  0.00  0.00     0.000 C
ATOM     71   O  A00 X   4      17.140   1.744  18.7290  0.00  0.00     0.000 OA
ATOM     72   O  A00 X   4      18.115   1.445  16.6070  0.00  0.00     0.000 OA
ATOM     73   O  A00 X   4      15.745   1.775  16.8480  0.00  0.00     0.000 O
ATOM     74   O  A00 X   4      17.234   3.630  17.2300  0.00  0.00     0.000 OA
ATOM     75   S  A00 X   4      17.157   2.212  17.3720  0.00  0.00     0.000 S
ENDBRANCH 62 70
ENDBRANCH 57 61
ENDBRANCH 41 57
ENDBRANCH 40 44
ENDBRANCH 20 40
ENDBRANCH 19 23
ENDBRANCH 1 19
TORSDOF 14
ENDMDL
MODEL 61
REMARK VINA RESULT:      -1.4      9.659     16.214
ROOT
ATOM      1  C1  A00 X   1      13.230  22.293  23.8920  0.00  0.00     0.000 C
ATOM      2  C2  A00 X   1      12.264  23.008  24.8740  0.00  0.00     0.000 C
ATOM      3  C3  A00 X   1      12.767  23.155  26.3480  0.00  0.00     0.000 C
ATOM      4  C4  A00 X   1      13.976  22.263  26.7340  0.00  0.00     0.000 C
ATOM      5  C5  A00 X   1      14.110  21.045  25.8200  0.00  0.00     0.000 C
ATOM      6  O5  A00 X   1      14.344  21.597  24.5050  0.00  0.00     0.000 O
ATOM      7   O  A00 X   1      11.706  22.800  27.2310  0.00  0.00     0.000 O
ATOM      9  HD  A00 X   1      12.432  22.457  27.5550  0.00  0.00     0.000 HD
ATOM      9   O  A00 X   1      15.195  23.006  26.7280  0.00  0.00     0.000 O
ATOM     11  HD  A00 X   1      15.921  22.663  27.0520  0.00  0.00     0.000 HD
ENDROOT
BRANCH 2 11
ATOM     11   O  A00 X   1      11.987  24.318  24.3410  0.00  0.00     0.000 O
ATOM     12   O  A00 X   1      11.008  26.054  25.6810  0.00  0.00     0.000 OA
ATOM     13   O  A00 X   1       9.725  24.038  25.2210  0.00  0.00     0.000 OA
ATOM     14   O  A00 X   1      10.221  25.576  23.4750  0.00  0.00     0.000 OA
ATOM     15   S  A00 X   1      10.646  25.028  24.7350  0.00  0.00     0.000 S
ENDBRANCH 2 11
BRANCH 5 16
ATOM     16   C  A00 X   1      12.935  20.064  25.8730  0.00  0.00     0.000 C
ATOM     17   O  A00 X   1      12.144  20.152  26.7900  0.00  0.00     0.000 OA
ATOM     18   O  A00 X   1      12.762  19.207  25.0280  0.00  0.00     0.000 OA
ENDBRANCH 5 16
BRANCH 1 19
ATOM     19  O4  A00 X   2      12.538  21.449  22.9400  0.00  0.00     0.000 O
BRANCH 19 23
ATOM     20  C1  A00 X   2      10.865  22.303  19.0880  0.00  0.00     0.000 C
ATOM     21  C2  A00 X   2      12.376  22.578  19.2880  0.00  0.00     0.000 C
ATOM     22  C3  A00 X   2      12.909  21.837  20.5320  0.00  0.00     0.000 C
ATOM     23  C4  A00 X   2      12.065  22.188  21.7780  0.00  0.00     0.000 C
ATOM     24  C5  A00 X   2      10.578  21.887  21.4440  0.00  0.00     0.000 C
ATOM     25  O5  A00 X   2      10.181  22.697  20.3070  0.00  0.00     0.000 O
ATOM     26   O  A00 X   2      14.324  22.067  20.6350  0.00  0.00     0.000 O
ATOM     28  HD  A00 X   2      14.241  22.926  20.5530  0.00  0.00     0.000 HD
BRANCH 21 30
ATOM     28   N  A00 X   2      13.577  22.176  18.5510  0.00  0.00     0.000 N
ATOM     30  HD  A00 X   2      13.276  22.892  18.1680  0.00  0.00     0.000 HD
ATOM     30   O  A00 X   2      14.269  23.986  17.2450  0.00  0.00     0.000 OA
ATOM     31   S  A00 X   2      13.755  22.675  17.0610  0.00  0.00     0.000 S
ATOM     32   O  A00 X   2      14.678  21.738  16.4990  0.00  0.00     0.000 OA
ATOM     33   O  A00 X   2      12.479  22.561  16.4210  0.00  0.00     0.000 OA
ENDBRANCH 21 30
BRANCH 24 34
ATOM     34   C  A00 X   2       9.550  21.935  22.5990  0.00  0.00     0.000 C
ATOM     35   O  A00 X   2       7.524  19.098  23.6490  0.00  0.00     0.000 OA
ATOM     36   O  A00 X   2       8.662  20.801  22.5570  0.00  0.00     0.000 O
ATOM     37   O  A00 X   2       9.886  19.065  23.5340  0.00  0.00     0.000 OA
ATOM     38   S  A00 X   2       8.724  19.852  23.8090  0.00  0.00     0.000 S
ATOM     39   O  A00 X   2       8.756  20.704  24.9600  0.00  0.00     0.000 OA
ENDBRANCH 24 34
BRANCH 20 40
ATOM     40  O4  A00 X   3      10.750  20.884  18.9100  0.00  0.00     0.000 O
BRANCH 40 44
ATOM     41  C1  A00 X   3       9.643  17.436  18.8220  0.00  0.00     0.000 C
ATOM     42  C2  A00 X   3      10.738  18.032  17.9110  0.00  0.00     0.000 C
ATOM     43  C3  A00 X   3      10.242  19.330  17.2230  0.00  0.00     0.000 C
ATOM     44  C4  A00 X   3       9.629  20.354  18.1700  0.00  0.00     0.000 C
ATOM     45  C5  A00 X   3       8.536  19.681  19.0460  0.00  0.00     0.000 C
ATOM     46  O5  A00 X   3       9.044  18.456  19.6670  0.00  0.00     0.000 O
ATOM     47   O  A00 X   3      11.142  19.923  16.2890  0.00  0.00     0.000 O
ATOM     49  HD  A00 X   3      10.847  20.656  16.6420  0.00  0.00     0.000 HD
BRANCH 42 49
ATOM     49   O  A00 X   3      11.891  18.284  18.7450  0.00  0.00     0.000 O
ATOM     50   O  A00 X   3      14.087  19.186  18.4380  0.00  0.00     0.000 OA
ATOM     51   O  A00 X   3      13.217  17.719  16.8010  0.00  0.00     0.000 OA
ATOM     52   O  A00 X   3      13.737  16.845  18.9340  0.00  0.00     0.000 OA
ATOM     53   S  A00 X   3      13.325  17.998  18.2110  0.00  0.00     0.000 S
ENDBRANCH 42 49
BRANCH 45 54
ATOM     54   C  A00 X   3       7.234  19.466  18.2640  0.00  0.00     0.000 C
ATOM     55   O  A00 X   3       6.315  18.843  18.7530  0.00  0.00     0.000 OA
ATOM     56   O  A00 X   3       7.101  19.916  17.1370  0.00  0.00     0.000 OA
ENDBRANCH 45 54
BRANCH 41 57
ATOM     57  O4  A00 X   4       8.684  16.662  18.0670  0.00  0.00     0.000 O
BRANCH 57 61
ATOM     58  C1  A00 X   4       6.383  13.127  18.9890  0.00  0.00     0.000 C
ATOM     59  C2  A00 X   4       6.159  14.400  19.8410  0.00  0.00     0.000 C
ATOM     60  C3  A00 X   4       6.751  15.676  19.2080  0.00  0.00     0.000 C
ATOM     61  C4  A00 X   4       8.202  15.458  18.7290  0.00  0.00     0.000 C
ATOM     62  C5  A00 X   4       8.158  14.277  17.7290  0.00  0.00     0.000 C
ATOM     63  O5  A00 X   4       7.712  13.082  18.4200  0.00  0.00     0.000 O
BRANCH 59 66
ATOM     64   N  A00 X   4       5.820  15.092  21.0980  0.00  0.00     0.000 N
ATOM     66  HD  A00 X   4       6.474  15.322  21.6170  0.00  0.00     0.000 HD
ATOM     66   O  A00 X   4       4.913  13.004  21.8850  0.00  0.00     0.000 OA
ATOM     67   S  A00 X   4       4.747  14.412  22.0710  0.00  0.00     0.000 S
ATOM     68   O  A00 X   4       5.186  14.922  23.3370  0.00  0.00     0.000 OA
ATOM     69   O  A00 X   4       3.541  15.015  21.5790  0.00  0.00     0.000 OA
ENDBRANCH 59 66
BRANCH 62 70
ATOM     70   C  A00 X   4       9.514  13.973  17.0480  0.00  0.00     0.000 C
ATOM     71   O  A00 X   4      12.503  12.538  18.5030  0.00  0.00     0.000 OA
ATOM     72   O  A00 X   4      12.215  14.458  17.1700  0.00  0.00     0.000 OA
ATOM     73   O  A00 X   4      10.324  13.183  17.9340  0.00  0.00     0.000 O
ATOM     74   O  A00 X   4      11.562  14.513  19.5170  0.00  0.00     0.000 OA
ATOM     75   S  A00 X   4      11.736  13.740  18.3300  0.00  0.00     0.000 S
ENDBRANCH 62 70
ENDBRANCH 57 61
ENDBRANCH 41 57
ENDBRANCH 40 44
ENDBRANCH 20 40
ENDBRANCH 19 23
ENDBRANCH 1 19
TORSDOF 14
ENDMDL
MODEL 62
REMARK VINA RESULT:      -0.7     45.236     49.707
ROOT
ATOM      1  C1  A00 X   1      45.520  33.697  41.1140  0.00  0.00     0.000 C
ATOM      2  C2  A00 X   1      46.282  33.938  39.7840  0.00  0.00     0.000 C
ATOM      3  C3  A00 X   1      47.757  33.422  39.7330  0.00  0.00     0.000 C
ATOM      4  C4  A00 X   1      48.391  33.075  41.1050  0.00  0.00     0.000 C
ATOM      5  C5  A00 X   1      47.693  33.791  42.2610  0.00  0.00     0.000 C
ATOM      6  O5  A00 X   1      46.338  33.289  42.2390  0.00  0.00     0.000 O
ATOM      7   O  A00 X   1      48.576  34.435  39.1530  0.00  0.00     0.000 O
ATOM      9  HD  A00 X   1      49.018  34.099  39.8180  0.00  0.00     0.000 HD
ATOM      9   O  A00 X   1      48.391  31.667  41.3380  0.00  0.00     0.000 O
ATOM     11  HD  A00 X   1      48.833  31.331  42.0030  0.00  0.00     0.000 HD
ENDROOT
BRANCH 2 11
ATOM     11   O  A00 X   1      45.529  33.311  38.7280  0.00  0.00     0.000 O
ATOM     12   O  A00 X   1      46.376  33.149  36.4860  0.00  0.00     0.000 OA
ATOM     13   O  A00 X   1      45.925  35.344  37.4330  0.00  0.00     0.000 OA
ATOM     14   O  A00 X   1      44.137  33.857  36.9340  0.00  0.00     0.000 OA
ATOM     15   S  A00 X   1      45.521  33.971  37.3060  0.00  0.00     0.000 S
ENDBRANCH 2 11
BRANCH 5 16
ATOM     16   C  A00 X   1      47.782  35.320  42.2240  0.00  0.00     0.000 C
ATOM     17   O  A00 X   1      47.083  35.961  42.9830  0.00  0.00     0.000 OA
ATOM     18   O  A00 X   1      48.529  35.912  41.4710  0.00  0.00     0.000 OA
ENDBRANCH 5 16
BRANCH 1 19
ATOM     19  O4  A00 X   2      44.647  34.797  41.4680  0.00  0.00     0.000 O
BRANCH 19 23
ATOM     20  C1  A00 X   2      41.515  32.249  42.9060  0.00  0.00     0.000 C
ATOM     21  C2  A00 X   2      41.384  32.798  41.4650  0.00  0.00     0.000 C
ATOM     22  C3  A00 X   2      42.743  33.316  40.9490  0.00  0.00     0.000 C
ATOM     23  C4  A00 X   2      43.341  34.347  41.9320  0.00  0.00     0.000 C
ATOM     24  C5  A00 X   2      43.402  33.684  43.3350  0.00  0.00     0.000 C
ATOM     25  O5  A00 X   2      42.058  33.311  43.7350  0.00  0.00     0.000 O
ATOM     26   O  A00 X   2      42.584  33.751  39.5870  0.00  0.00     0.000 O
ATOM     28  HD  A00 X   2      41.892  34.238  39.7710  0.00  0.00     0.000 HD
BRANCH 21 30
ATOM     28   N  A00 X   2      39.933  32.862  41.6610  0.00  0.00     0.000 N
ATOM     30  HD  A00 X   2      40.073  32.926  40.8090  0.00  0.00     0.000 HD
ATOM     30   O  A00 X   2      38.902  32.478  39.6000  0.00  0.00     0.000 OA
ATOM     31   S  A00 X   2      39.044  33.533  40.5400  0.00  0.00     0.000 S
ATOM     32   O  A00 X   2      37.844  33.894  41.2290  0.00  0.00     0.000 OA
ATOM     33   O  A00 X   2      39.736  34.708  40.0980  0.00  0.00     0.000 OA
ENDBRANCH 21 30
BRANCH 24 34
ATOM     34   C  A00 X   2      44.174  34.424  44.4540  0.00  0.00     0.000 C
ATOM     35   O  A00 X   2      42.625  35.738  47.4750  0.00  0.00     0.000 OA
ATOM     36   O  A00 X   2      43.273  35.129  45.3320  0.00  0.00     0.000 O
ATOM     37   O  A00 X   2      42.469  33.482  46.7850  0.00  0.00     0.000 OA
ATOM     38   S  A00 X   2      43.289  34.654  46.8310  0.00  0.00     0.000 S
ATOM     39   O  A00 X   2      44.666  34.486  47.1880  0.00  0.00     0.000 OA
ENDBRANCH 24 34
BRANCH 20 40
ATOM     40  O4  A00 X   3      42.461  31.172  42.8260  0.00  0.00     0.000 O
BRANCH 40 44
ATOM     41  C1  A00 X   3      45.369  29.578  44.2840  0.00  0.00     0.000 C
ATOM     42  C2  A00 X   3      44.669  29.115  42.9880  0.00  0.00     0.000 C
ATOM     43  C3  A00 X   3      43.142  28.957  43.2080  0.00  0.00     0.000 C
ATOM     44  C4  A00 X   3      42.467  30.159  43.8540  0.00  0.00     0.000 C
ATOM     45  C5  A00 X   3      43.224  30.560  45.1520  0.00  0.00     0.000 C
ATOM     46  O5  A00 X   3      44.661  30.689  44.9000  0.00  0.00     0.000 O
ATOM     47   O  A00 X   3      42.402  28.449  42.0990  0.00  0.00     0.000 O
ATOM     49  HD  A00 X   3      41.820  29.032  42.3650  0.00  0.00     0.000 HD
BRANCH 42 49
ATOM     49   O  A00 X   3      44.956  30.104  41.9750  0.00  0.00     0.000 O
ATOM     50   O  A00 X   3      44.352  30.469  39.6880  0.00  0.00     0.000 OA
ATOM     51   O  A00 X   3      44.873  28.274  40.3940  0.00  0.00     0.000 OA
ATOM     52   O  A00 X   3      46.609  29.876  40.3220  0.00  0.00     0.000 OA
ATOM     53   S  A00 X   3      45.213  29.670  40.5020  0.00  0.00     0.000 S
ENDBRANCH 42 49
BRANCH 45 54
ATOM     54   C  A00 X   3      42.897  29.616  46.3150  0.00  0.00     0.000 C
ATOM     55   O  A00 X   3      43.277  29.866  47.4400  0.00  0.00     0.000 OA
ATOM     56   O  A00 X   3      42.251  28.596  46.1290  0.00  0.00     0.000 OA
ENDBRANCH 45 54
BRANCH 41 57
ATOM     57  O4  A00 X   4      45.619  28.471  45.1790  0.00  0.00     0.000 O
BRANCH 57 61
ATOM     58  C1  A00 X   4      48.796  27.611  47.9730  0.00  0.00     0.000 C
ATOM     59  C2  A00 X   4      47.926  28.872  48.2050  0.00  0.00     0.000 C
ATOM     60  C3  A00 X   4      46.625  28.882  47.3770  0.00  0.00     0.000 C
ATOM     61  C4  A00 X   4      46.885  28.530  45.8960  0.00  0.00     0.000 C
ATOM     62  C5  A00 X   4      47.569  27.141  45.8920  0.00  0.00     0.000 C
ATOM     63  O5  A00 X   4      48.843  27.234  46.5780  0.00  0.00     0.000 O
BRANCH 59 66
ATOM     64   N  A00 X   4      48.642  30.097  47.8040  0.00  0.00     0.000 N
ATOM     66  HD  A00 X   4      49.234  30.027  47.1760  0.00  0.00     0.000 HD
ATOM     66   O  A00 X   4      49.765  30.016  49.9330  0.00  0.00     0.000 OA
ATOM     67   S  A00 X   4      49.356  30.964  48.9440  0.00  0.00     0.000 S
ATOM     68   O  A00 X   4      50.416  31.563  48.1870  0.00  0.00     0.000 OA
ATOM     69   O  A00 X   4      48.291  31.866  49.2800  0.00  0.00     0.000 OA
ENDBRANCH 59 66
BRANCH 62 70
ATOM     70   C  A00 X   4      47.813  26.561  44.4780  0.00  0.00     0.000 C
ATOM     71   O  A00 X   4      50.143  27.684  41.9450  0.00  0.00     0.000 OA
ATOM     72   O  A00 X   4      47.847  27.180  41.8020  0.00  0.00     0.000 OA
ATOM     73   O  A00 X   4      48.993  27.159  43.9170  0.00  0.00     0.000 O
ATOM     74   O  A00 X   4      48.559  29.268  42.8370  0.00  0.00     0.000 OA
ATOM     75   S  A00 X   4      48.856  27.903  42.5440  0.00  0.00     0.000 S
ENDBRANCH 62 70
ENDBRANCH 57 61
ENDBRANCH 41 57
ENDBRANCH 40 44
ENDBRANCH 20 40
ENDBRANCH 19 23
ENDBRANCH 1 19
TORSDOF 14
ENDMDL
MODEL 63
REMARK VINA RESULT:      -0.7     48.108     52.626
ROOT
ATOM      1  C1  A00 X   1      29.478  50.301  43.3160  0.00  0.00     0.000 C
ATOM      2  C2  A00 X   1      28.379  51.366  43.5740  0.00  0.00     0.000 C
ATOM      3  C3  A00 X   1      28.744  52.838  43.1920  0.00  0.00     0.000 C
ATOM      4  C4  A00 X   1      30.252  53.113  42.9550  0.00  0.00     0.000 C
ATOM      5  C5  A00 X   1      31.142  52.081  43.6480  0.00  0.00     0.000 C
ATOM      6  O5  A00 X   1      30.799  50.823  43.0260  0.00  0.00     0.000 O
ATOM      7   O  A00 X   1      28.337  53.701  44.2510  0.00  0.00     0.000 O
ATOM      9  HD  A00 X   1      29.113  53.976  43.9820  0.00  0.00     0.000 HD
ATOM      9   O  A00 X   1      30.562  53.159  41.5620  0.00  0.00     0.000 O
ATOM     11  HD  A00 X   1      31.337  53.434  41.2930  0.00  0.00     0.000 HD
ENDROOT
BRANCH 2 11
ATOM     11   O  A00 X   1      27.203  50.969  42.8420  0.00  0.00     0.000 O
ATOM     12   O  A00 X   1      25.277  52.391  42.6650  0.00  0.00     0.000 OA
ATOM     13   O  A00 X   1      25.935  51.546  44.8480  0.00  0.00     0.000 OA
ATOM     14   O  A00 X   1      25.078  50.069  43.1930  0.00  0.00     0.000 OA
ATOM     15   S  A00 X   1      25.791  51.292  43.4410  0.00  0.00     0.000 S
ENDBRANCH 2 11
BRANCH 5 16
ATOM     16   C  A00 X   1      31.038  52.058  45.1770  0.00  0.00     0.000 C
ATOM     17   O  A00 X   1      31.542  51.133  45.7800  0.00  0.00     0.000 OA
ATOM     18   O  A00 X   1      30.476  52.934  45.8050  0.00  0.00     0.000 OA
ENDBRANCH 5 16
BRANCH 1 19
ATOM     19  O4  A00 X   2      29.527  49.283  44.3460  0.00  0.00     0.000 O
BRANCH 19 23
ATOM     20  C1  A00 X   2      30.271  46.089  41.5870  0.00  0.00     0.000 C
ATOM     21  C2  A00 X   2      28.809  46.309  42.0490  0.00  0.00     0.000 C
ATOM     22  C3  A00 X   2      28.634  47.712  42.6660  0.00  0.00     0.000 C
ATOM     23  C4  A00 X   2      29.661  47.941  43.7980  0.00  0.00     0.000 C
ATOM     24  C5  A00 X   2      31.076  47.673  43.2160  0.00  0.00     0.000 C
ATOM     25  O5  A00 X   2      31.132  46.304  42.7370  0.00  0.00     0.000 O
ATOM     26   O  A00 X   2      27.250  47.892  43.0150  0.00  0.00     0.000 O
ATOM     28  HD  A00 X   2      27.208  47.141  43.4430  0.00  0.00     0.000 HD
BRANCH 21 30
ATOM     28   N  A00 X   2      28.610  44.858  41.9830  0.00  0.00     0.000 N
ATOM     30  HD  A00 X   2      27.823  45.218  42.0180  0.00  0.00     0.000 HD
ATOM     30   O  A00 X   2      26.384  44.455  41.4000  0.00  0.00     0.000 OA
ATOM     31   S  A00 X   2      27.247  44.255  42.5100  0.00  0.00     0.000 S
ATOM     32   O  A00 X   2      27.566  42.889  42.7890  0.00  0.00     0.000 OA
ATOM     33   O  A00 X   2      26.918  44.946  43.7210  0.00  0.00     0.000 OA
ENDBRANCH 21 30
BRANCH 24 34
ATOM     34   C  A00 X   2      32.301  48.054  44.0800  0.00  0.00     0.000 C
ATOM     35   O  A00 X   2      34.715  45.652  45.3700  0.00  0.00     0.000 OA
ATOM     36   O  A00 X   2      32.862  46.896  44.7300  0.00  0.00     0.000 O
ATOM     37   O  A00 X   2      34.170  45.879  43.0800  0.00  0.00     0.000 OA
ATOM     38   S  A00 X   2      34.344  46.554  44.3290  0.00  0.00     0.000 S
ATOM     39   O  A00 X   2      35.057  47.795  44.3190  0.00  0.00     0.000 OA
ENDBRANCH 24 34
BRANCH 20 40
ATOM     40  O4  A00 X   3      30.523  47.102  40.6030  0.00  0.00     0.000 O
BRANCH 40 44
ATOM     41  C1  A00 X   3      32.789  49.619  39.3160  0.00  0.00     0.000 C
ATOM     42  C2  A00 X   3      31.387  49.321  38.7420  0.00  0.00     0.000 C
ATOM     43  C3  A00 X   3      31.210  47.805  38.4690  0.00  0.00     0.000 C
ATOM     44  C4  A00 X   3      31.580  46.903  39.6400  0.00  0.00     0.000 C
ATOM     45  C5  A00 X   3      33.002  47.260  40.1570  0.00  0.00     0.000 C
ATOM     46  O5  A00 X   3      33.127  48.700  40.3920  0.00  0.00     0.000 O
ATOM     47   O  A00 X   3      29.981  47.422  37.8550  0.00  0.00     0.000 O
ATOM     49  HD  A00 X   3      30.048  46.752  38.3990  0.00  0.00     0.000 HD
BRANCH 42 49
ATOM     49   O  A00 X   3      30.424  49.800  39.7070  0.00  0.00     0.000 O
ATOM     50   O  A00 X   3      28.039  49.803  39.9190  0.00  0.00     0.000 OA
ATOM     51   O  A00 X   3      28.997  50.265  37.8080  0.00  0.00     0.000 OA
ATOM     52   O  A00 X   3      29.280  51.844  39.5440  0.00  0.00     0.000 OA
ATOM     53   S  A00 X   3      29.101  50.468  39.2320  0.00  0.00     0.000 S
ENDBRANCH 42 49
BRANCH 45 54
ATOM     54   C  A00 X   3      34.096  46.701  39.2410  0.00  0.00     0.000 C
ATOM     55   O  A00 X   3      35.263  46.744  39.5730  0.00  0.00     0.000 OA
ATOM     56   O  A00 X   3      33.814  46.203  38.1610  0.00  0.00     0.000 OA
ENDBRANCH 45 54
BRANCH 41 57
ATOM     57  O4  A00 X   4      33.787  49.697  38.2740  0.00  0.00     0.000 O
BRANCH 57 61
ATOM     58  C1  A00 X   4      37.366  52.064  37.8020  0.00  0.00     0.000 C
ATOM     59  C2  A00 X   4      37.280  51.080  38.9960  0.00  0.00     0.000 C
ATOM     60  C3  A00 X   4      36.141  50.049  38.8620  0.00  0.00     0.000 C
ATOM     61  C4  A00 X   4      34.806  50.718  38.4690  0.00  0.00     0.000 C
ATOM     62  C5  A00 X   4      35.070  51.472  37.1420  0.00  0.00     0.000 C
ATOM     63  O5  A00 X   4      36.060  52.507  37.3700  0.00  0.00     0.000 O
BRANCH 59 66
ATOM     64   N  A00 X   4      37.002  51.806  40.2490  0.00  0.00     0.000 N
ATOM     66  HD  A00 X   4      36.562  52.550  40.1910  0.00  0.00     0.000 HD
ATOM     66   O  A00 X   4      39.354  52.309  40.3630  0.00  0.00     0.000 OA
ATOM     67   S  A00 X   4      38.227  52.131  41.2240  0.00  0.00     0.000 S
ATOM     68   O  A00 X   4      37.742  53.321  41.8600  0.00  0.00     0.000 OA
ATOM     69   O  A00 X   4      38.201  50.964  42.0600  0.00  0.00     0.000 OA
ENDBRANCH 59 66
BRANCH 62 70
ATOM     70   C  A00 X   4      33.810  52.123  36.5230  0.00  0.00     0.000 C
ATOM     71   O  A00 X   4      31.908  54.958  37.7280  0.00  0.00     0.000 OA
ATOM     72   O  A00 X   4      31.203  52.824  37.0240  0.00  0.00     0.000 OA
ATOM     73   O  A00 X   4      33.540  53.365  37.1940  0.00  0.00     0.000 O
ATOM     74   O  A00 X   4      32.249  53.086  39.2090  0.00  0.00     0.000 OA
ATOM     75   S  A00 X   4      32.133  53.546  37.8630  0.00  0.00     0.000 S
ENDBRANCH 62 70
ENDBRANCH 57 61
ENDBRANCH 41 57
ENDBRANCH 40 44
ENDBRANCH 20 40
ENDBRANCH 19 23
ENDBRANCH 1 19
TORSDOF 14
ENDMDL
MODEL 64
REMARK VINA RESULT:      -0.7     41.836     46.319
ROOT
ATOM      1  C1  A00 X   1      45.707  20.276  39.9360  0.00  0.00     0.000 C
ATOM      2  C2  A00 X   1      44.710  19.934  38.7970  0.00  0.00     0.000 C
ATOM      3  C3  A00 X   1      43.450  20.854  38.6870  0.00  0.00     0.000 C
ATOM      4  C4  A00 X   1      43.161  21.742  39.9240  0.00  0.00     0.000 C
ATOM      5  C5  A00 X   1      43.801  21.187  41.1960  0.00  0.00     0.000 C
ATOM      6  O5  A00 X   1      45.222  21.211  40.9320  0.00  0.00     0.000 O
ATOM      7   O  A00 X   1      42.299  20.032  38.5010  0.00  0.00     0.000 O
ATOM      9  HD  A00 X   1      42.079  20.658  39.0580  0.00  0.00     0.000 HD
ATOM      9   O  A00 X   1      43.593  23.086  39.7140  0.00  0.00     0.000 O
ATOM     11  HD  A00 X   1      43.373  23.712  40.2700  0.00  0.00     0.000 HD
ENDROOT
BRANCH 2 11
ATOM     11   O  A00 X   1      45.435  19.980  37.5520  0.00  0.00     0.000 O
ATOM     12   O  A00 X   1      44.327  19.789  35.4300  0.00  0.00     0.000 OA
ATOM     13   O  A00 X   1      44.281  17.907  36.9710  0.00  0.00     0.000 OA
ATOM     14   O  A00 X   1      46.315  18.558  35.9240  0.00  0.00     0.000 OA
ATOM     15   S  A00 X   1      45.031  18.993  36.4030  0.00  0.00     0.000 S
ENDBRANCH 2 11
BRANCH 5 16
ATOM     16   C  A00 X   1      43.282  19.814  41.6370  0.00  0.00     0.000 C
ATOM     17   O  A00 X   1      43.885  19.216  42.5040  0.00  0.00     0.000 OA
ATOM     18   O  A00 X   1      42.289  19.308  41.1550  0.00  0.00     0.000 OA
ENDBRANCH 5 16
BRANCH 1 19
ATOM     19  O4  A00 X   2      46.280  19.097  40.5530  0.00  0.00     0.000 O
BRANCH 19 23
ATOM     20  C1  A00 X   2      50.204  20.795  40.8480  0.00  0.00     0.000 C
ATOM     21  C2  A00 X   2      49.929  19.833  39.6670  0.00  0.00     0.000 C
ATOM     22  C3  A00 X   2      48.412  19.656  39.4450  0.00  0.00     0.000 C
ATOM     23  C4  A00 X   2      47.718  19.215  40.7530  0.00  0.00     0.000 C
ATOM     24  C5  A00 X   2      48.086  20.244  41.8560  0.00  0.00     0.000 C
ATOM     25  O5  A00 X   2      49.528  20.261  42.0180  0.00  0.00     0.000 O
ATOM     26   O  A00 X   2      48.209  18.812  38.2980  0.00  0.00     0.000 O
ATOM     28  HD  A00 X   2      48.754  18.204  38.5870  0.00  0.00     0.000 HD
BRANCH 21 30
ATOM     28   N  A00 X   2      51.313  19.362  39.7770  0.00  0.00     0.000 N
ATOM     30  HD  A00 X   2      51.019  19.099  39.0060  0.00  0.00     0.000 HD
ATOM     30   O  A00 X   2      52.049  18.764  37.6410  0.00  0.00     0.000 OA
ATOM     31   S  A00 X   2      51.770  18.139  38.8850  0.00  0.00     0.000 S
ATOM     32   O  A00 X   2      52.915  17.628  39.5740  0.00  0.00     0.000 OA
ATOM     33   O  A00 X   2      50.708  17.179  38.9060  0.00  0.00     0.000 OA
ENDBRANCH 21 30
BRANCH 24 34
ATOM     34   C  A00 X   2      47.335  20.161  43.2060  0.00  0.00     0.000 C
ATOM     35   O  A00 X   2      47.283  17.206  45.3330  0.00  0.00     0.000 OA
ATOM     36   O  A00 X   2      47.194  18.794  43.6420  0.00  0.00     0.000 O
ATOM     37   O  A00 X   2      49.263  18.275  44.6040  0.00  0.00     0.000 OA
ATOM     38   S  A00 X   2      47.900  18.449  45.0050  0.00  0.00     0.000 S
ATOM     39   O  A00 X   2      47.604  19.528  45.8980  0.00  0.00     0.000 OA
ENDBRANCH 24 34
BRANCH 20 40
ATOM     40  O4  A00 X   3      49.606  22.045  40.4770  0.00  0.00     0.000 O
BRANCH 40 44
ATOM     41  C1  A00 X   3      47.544  24.843  41.5000  0.00  0.00     0.000 C
ATOM     42  C2  A00 X   3      48.136  24.657  40.0870  0.00  0.00     0.000 C
ATOM     43  C3  A00 X   3      49.659  24.372  40.1550  0.00  0.00     0.000 C
ATOM     44  C4  A00 X   3      50.052  23.259  41.1190  0.00  0.00     0.000 C
ATOM     45  C5  A00 X   3      49.424  23.520  42.5170  0.00  0.00     0.000 C
ATOM     46  O5  A00 X   3      47.990  23.794  42.4030  0.00  0.00     0.000 O
ATOM     47   O  A00 X   3      50.330  24.268  38.9010  0.00  0.00     0.000 O
ATOM     49  HD  A00 X   3      50.755  23.633  39.3090  0.00  0.00     0.000 HD
BRANCH 42 49
ATOM     49   O  A00 X   3      47.422  23.563  39.4700  0.00  0.00     0.000 O
ATOM     50   O  A00 X   3      47.517  22.389  37.3860  0.00  0.00     0.000 OA
ATOM     51   O  A00 X   3      47.752  24.741  37.3810  0.00  0.00     0.000 OA
ATOM     52   O  A00 X   3      45.651  23.820  37.9490  0.00  0.00     0.000 OA
ATOM     53   S  A00 X   3      47.058  23.616  37.9570  0.00  0.00     0.000 S
ENDBRANCH 42 49
BRANCH 45 54
ATOM     54   C  A00 X   3      50.187  24.604  43.2880  0.00  0.00     0.000 C
ATOM     55   O  A00 X   3      49.939  24.822  44.4570  0.00  0.00     0.000 OA
ATOM     56   O  A00 X   3      51.054  25.268  42.7420  0.00  0.00     0.000 OA
ENDBRANCH 45 54
BRANCH 41 57
ATOM     57  O4  A00 X   4      47.766  26.181  42.0000  0.00  0.00     0.000 O
BRANCH 57 61
ATOM     58  C1  A00 X   4      45.458  28.783  44.5580  0.00  0.00     0.000 C
ATOM     59  C2  A00 X   4      45.958  27.433  45.1310  0.00  0.00     0.000 C
ATOM     60  C3  A00 X   4      47.052  26.768  44.2710  0.00  0.00     0.000 C
ATOM     61  C4  A00 X   4      46.668  26.741  42.7760  0.00  0.00     0.000 C
ATOM     62  C5  A00 X   4      46.417  28.213  42.3640  0.00  0.00     0.000 C
ATOM     63  O5  A00 X   4      45.296  28.735  43.1220  0.00  0.00     0.000 O
BRANCH 59 66
ATOM     64   N  A00 X   4      44.842  26.472  45.1720  0.00  0.00     0.000 N
ATOM     66  HD  A00 X   4      44.204  26.575  44.5950  0.00  0.00     0.000 HD
ATOM     66   O  A00 X   4      44.173  27.490  47.2490  0.00  0.00     0.000 OA
ATOM     67   S  A00 X   4      44.096  26.236  46.5670  0.00  0.00     0.000 S
ATOM     68   O  A00 X   4      42.791  25.865  46.1030  0.00  0.00     0.000 OA
ATOM     69   O  A00 X   4      44.869  25.143  47.0850  0.00  0.00     0.000 OA
ENDBRANCH 59 66
BRANCH 62 70
ATOM     70   C  A00 X   4      46.124  28.406  40.8570  0.00  0.00     0.000 C
ATOM     71   O  A00 X   4      43.195  27.407  38.9770  0.00  0.00     0.000 OA
ATOM     72   O  A00 X   4      45.486  27.087  38.5340  0.00  0.00     0.000 OA
ATOM     73   O  A00 X   4      44.748  28.082  40.5950  0.00  0.00     0.000 O
ATOM     74   O  A00 X   4      44.387  25.728  40.2320  0.00  0.00     0.000 OA
ATOM     75   S  A00 X   4      44.446  26.970  39.5320  0.00  0.00     0.000 S
ENDBRANCH 62 70
ENDBRANCH 57 61
ENDBRANCH 41 57
ENDBRANCH 40 44
ENDBRANCH 20 40
ENDBRANCH 19 23
ENDBRANCH 1 19
TORSDOF 14
ENDMDL
MODEL 65
REMARK VINA RESULT:      -0.7     42.261     47.298
ROOT
ATOM      1  C1  A00 X   1      60.709  19.931  18.7360  0.00  0.00     0.000 C
ATOM      2  C2  A00 X   1      61.274  20.359  20.1170  0.00  0.00     0.000 C
ATOM      3  C3  A00 X   1      62.373  21.471  20.0950  0.00  0.00     0.000 C
ATOM      4  C4  A00 X   1      63.021  21.744  18.7130  0.00  0.00     0.000 C
ATOM      5  C5  A00 X   1      62.881  20.553  17.7650  0.00  0.00     0.000 C
ATOM      6  O5  A00 X   1      61.455  20.394  17.5840  0.00  0.00     0.000 O
ATOM      7   O  A00 X   1      63.432  21.086  20.9690  0.00  0.00     0.000 O
ATOM      9  HD  A00 X   1      63.796  21.423  20.2590  0.00  0.00     0.000 HD
ATOM      9   O  A00 X   1      62.475  22.913  18.1020  0.00  0.00     0.000 O
ATOM     11  HD  A00 X   1      62.840  23.251  17.3930  0.00  0.00     0.000 HD
ENDROOT
BRANCH 2 11
ATOM     11   O  A00 X   1      60.167  20.809  20.9230  0.00  0.00     0.000 O
ATOM     12   O  A00 X   1      60.495  21.841  23.0670  0.00  0.00     0.000 OA
ATOM     13   O  A00 X   1      61.161  19.524  22.7470  0.00  0.00     0.000 OA
ATOM     14   O  A00 X   1      58.861  20.128  22.7340  0.00  0.00     0.000 OA
ATOM     15   S  A00 X   1      60.206  20.561  22.4700  0.00  0.00     0.000 S
ENDBRANCH 2 11
BRANCH 5 16
ATOM     16   C  A00 X   1      63.587  19.273  18.2230  0.00  0.00     0.000 C
ATOM     17   O  A00 X   1      63.348  18.237  17.6390  0.00  0.00     0.000 OA
ATOM     18   O  A00 X   1      64.380  19.261  19.1430  0.00  0.00     0.000 OA
ENDBRANCH 5 16
BRANCH 1 19
ATOM     19  O4  A00 X   2      60.440  18.510  18.6560  0.00  0.00     0.000 O
BRANCH 19 23
ATOM     20  C1  A00 X   2      56.810  19.013  16.4340  0.00  0.00     0.000 C
ATOM     21  C2  A00 X   2      56.689  18.802  17.9620  0.00  0.00     0.000 C
ATOM     22  C3  A00 X   2      58.037  19.070  18.6630  0.00  0.00     0.000 C
ATOM     23  C4  A00 X   2      59.159  18.218  18.0270  0.00  0.00     0.000 C
ATOM     24  C5  A00 X   2      59.165  18.504  16.5000  0.00  0.00     0.000 C
ATOM     25  O5  A00 X   2      57.870  18.144  15.9520  0.00  0.00     0.000 O
ATOM     26   O  A00 X   2      57.856  18.930  20.0820  0.00  0.00     0.000 O
ATOM     28  HD  A00 X   2      57.468  18.159  20.0070  0.00  0.00     0.000 HD
BRANCH 21 30
ATOM     28   N  A00 X   2      55.446  18.061  17.7240  0.00  0.00     0.000 N
ATOM     30  HD  A00 X   2      55.462  18.260  18.5670  0.00  0.00     0.000 HD
ATOM     30   O  A00 X   2      54.033  18.403  19.5520  0.00  0.00     0.000 OA
ATOM     31   S  A00 X   2      54.749  17.338  18.9440  0.00  0.00     0.000 S
ATOM     32   O  A00 X   2      53.934  16.339  18.3250  0.00  0.00     0.000 OA
ATOM     33   O  A00 X   2      55.784  16.724  19.7210  0.00  0.00     0.000 OA
ENDBRANCH 21 30
BRANCH 24 34
ATOM     34   C  A00 X   2      60.342  17.952  15.6630  0.00  0.00     0.000 C
ATOM     35   O  A00 X   2      59.988  15.434  13.0570  0.00  0.00     0.000 OA
ATOM     36   O  A00 X   2      59.971  16.740  14.9750  0.00  0.00     0.000 O
ATOM     37   O  A00 X   2      58.796  17.476  13.0910  0.00  0.00     0.000 OA
ATOM     38   S  A00 X   2      60.026  16.816  13.4060  0.00  0.00     0.000 S
ATOM     39   O  A00 X   2      61.245  17.491  13.0750  0.00  0.00     0.000 OA
ENDBRANCH 24 34
BRANCH 20 40
ATOM     40  O4  A00 X   3      57.198  20.383  16.2600  0.00  0.00     0.000 O
BRANCH 40 44
ATOM     41  C1  A00 X   3      59.364  22.742  14.5660  0.00  0.00     0.000 C
ATOM     42  C2  A00 X   3      58.331  23.117  15.6510  0.00  0.00     0.000 C
ATOM     43  C3  A00 X   3      56.938  22.521  15.3220  0.00  0.00     0.000 C
ATOM     44  C4  A00 X   3      56.947  21.033  14.9960  0.00  0.00     0.000 C
ATOM     45  C5  A00 X   3      58.005  20.736  13.8960  0.00  0.00     0.000 C
ATOM     46  O5  A00 X   3      59.300  21.325  14.2430  0.00  0.00     0.000 O
ATOM     47   O  A00 X   3      55.883  22.877  16.2130  0.00  0.00     0.000 O
ATOM     49  HD  A00 X   3      55.651  22.052  16.0880  0.00  0.00     0.000 HD
BRANCH 42 49
ATOM     49   O  A00 X   3      58.837  22.616  16.9080  0.00  0.00     0.000 O
ATOM     50   O  A00 X   3      58.083  22.558  19.1790  0.00  0.00     0.000 OA
ATOM     51   O  A00 X   3      57.760  24.533  17.9190  0.00  0.00     0.000 OA
ATOM     52   O  A00 X   3      59.966  23.917  18.5040  0.00  0.00     0.000 OA
ATOM     53   S  A00 X   3      58.657  23.443  18.2140  0.00  0.00     0.000 S
ENDBRANCH 42 49
BRANCH 45 54
ATOM     54   C  A00 X   3      57.508  21.148  12.5050  0.00  0.00     0.000 C
ATOM     55   O  A00 X   3      56.477  21.775  12.3770  0.00  0.00     0.000 OA
ATOM     56   O  A00 X   3      58.139  20.851  11.5020  0.00  0.00     0.000 OA
ENDBRANCH 45 54
BRANCH 41 57
ATOM     57  O4  A00 X   4      59.270  23.612  13.4160  0.00  0.00     0.000 O
BRANCH 57 61
ATOM     58  C1  A00 X   4      62.204  25.141  10.6420  0.00  0.00     0.000 C
ATOM     59  C2  A00 X   4      61.994  23.609  10.7290  0.00  0.00     0.000 C
ATOM     60  C3  A00 X   4      60.700  23.206  11.4660  0.00  0.00     0.000 C
ATOM     61  C4  A00 X   4      60.543  23.964  12.8020  0.00  0.00     0.000 C
ATOM     62  C5  A00 X   4      60.570  25.473  12.4530  0.00  0.00     0.000 C
ATOM     63  O5  A00 X   4      61.860  25.806  11.8790  0.00  0.00     0.000 O
BRANCH 59 66
ATOM     64   N  A00 X   4      63.087  22.977  11.4900  0.00  0.00     0.000 N
ATOM     66  HD  A00 X   4      63.482  23.455  12.0930  0.00  0.00     0.000 HD
ATOM     66   O  A00 X   4      64.398  23.049   9.4710  0.00  0.00     0.000 OA
ATOM     67   S  A00 X   4      64.276  22.285  10.6740  0.00  0.00     0.000 S
ATOM     68   O  A00 X   4      65.352  22.433  11.6100  0.00  0.00     0.000 OA
ATOM     69   O  A00 X   4      63.767  20.947  10.5690  0.00  0.00     0.000 OA
ENDBRANCH 59 66
BRANCH 62 70
ATOM     70   C  A00 X   4      60.314  26.405  13.6610  0.00  0.00     0.000 C
ATOM     71   O  A00 X   4      62.455  27.061  16.5060  0.00  0.00     0.000 OA
ATOM     72   O  A00 X   4      60.172  26.497  16.4030  0.00  0.00     0.000 OA
ATOM     73   O  A00 X   4      61.528  26.548  14.4170  0.00  0.00     0.000 O
ATOM     74   O  A00 X   4      61.855  24.777  16.0180  0.00  0.00     0.000 OA
ATOM     75   S  A00 X   4      61.497  26.157  15.9350  0.00  0.00     0.000 S
ENDBRANCH 62 70
ENDBRANCH 57 61
ENDBRANCH 41 57
ENDBRANCH 40 44
ENDBRANCH 20 40
ENDBRANCH 19 23
ENDBRANCH 1 19
TORSDOF 14
ENDMDL
MODEL 66
REMARK VINA RESULT:      -0.7     36.833     41.220
ROOT
ATOM      1  C1  A00 X   1      52.513  10.259  27.6410  0.00  0.00     0.000 C
ATOM      2  C2  A00 X   1      53.167   8.873  27.8860  0.00  0.00     0.000 C
ATOM      3  C3  A00 X   1      53.747   8.630  29.3180  0.00  0.00     0.000 C
ATOM      4  C4  A00 X   1      53.931   9.900  30.1890  0.00  0.00     0.000 C
ATOM      5  C5  A00 X   1      54.036  11.169  29.3430  0.00  0.00     0.000 C
ATOM      6  O5  A00 X   1      52.767  11.260  28.6580  0.00  0.00     0.000 O
ATOM      7   O  A00 X   1      55.037   8.034  29.1940  0.00  0.00     0.000 O
ATOM      9  HD  A00 X   1      55.088   8.624  29.8260  0.00  0.00     0.000 HD
ATOM      9   O  A00 X   1      52.875  10.039  31.1380  0.00  0.00     0.000 O
ATOM     11  HD  A00 X   1      52.926  10.628  31.7710  0.00  0.00     0.000 HD
ENDROOT
BRANCH 2 11
ATOM     11   O  A00 X   1      52.177   7.865  27.6030  0.00  0.00     0.000 O
ATOM     12   O  A00 X   1      52.570   5.539  28.0510  0.00  0.00     0.000 OA
ATOM     13   O  A00 X   1      53.939   6.680  26.3960  0.00  0.00     0.000 OA
ATOM     14   O  A00 X   1      51.632   6.277  25.9810  0.00  0.00     0.000 OA
ATOM     15   S  A00 X   1      52.639   6.502  26.9820  0.00  0.00     0.000 S
ENDBRANCH 2 11
BRANCH 5 16
ATOM     16   C  A00 X   1      55.245  11.225  28.4040  0.00  0.00     0.000 C
ATOM     17   O  A00 X   1      55.283  12.092  27.5560  0.00  0.00     0.000 OA
ATOM     18   O  A00 X   1      56.168  10.438  28.4830  0.00  0.00     0.000 OA
ENDBRANCH 5 16
BRANCH 1 19
ATOM     19  O4  A00 X   2      52.775  10.777  26.3130  0.00  0.00     0.000 O
BRANCH 19 23
ATOM     20  C1  A00 X   2      48.830  12.378  25.8250  0.00  0.00     0.000 C
ATOM     21  C2  A00 X   2      49.123  10.995  25.1940  0.00  0.00     0.000 C
ATOM     22  C3  A00 X   2      50.395  10.371  25.8050  0.00  0.00     0.000 C
ATOM     23  C4  A00 X   2      51.588  11.347  25.6920  0.00  0.00     0.000 C
ATOM     24  C5  A00 X   2      51.163  12.693  26.3400  0.00  0.00     0.000 C
ATOM     25  O5  A00 X   2      50.006  13.208  25.6320  0.00  0.00     0.000 O
ATOM     26   O  A00 X   2      50.585   9.063  25.2380  0.00  0.00     0.000 O
ATOM     28  HD  A00 X   2      50.500   9.349  24.4240  0.00  0.00     0.000 HD
BRANCH 21 30
ATOM     28   N  A00 X   2      48.219  11.347  24.0950  0.00  0.00     0.000 N
ATOM     30  HD  A00 X   2      48.340  10.491  24.0550  0.00  0.00     0.000 HD
ATOM     30   O  A00 X   2      47.203   9.386  23.3320  0.00  0.00     0.000 OA
ATOM     31   S  A00 X   2      48.112  10.369  22.8580  0.00  0.00     0.000 S
ATOM     32   O  A00 X   2      47.608  11.202  21.8100  0.00  0.00     0.000 OA
ATOM     33   O  A00 X   2      49.440   9.930  22.5490  0.00  0.00     0.000 OA
ENDBRANCH 21 30
BRANCH 24 34
ATOM     34   C  A00 X   2      52.253  13.767  26.5640  0.00  0.00     0.000 C
ATOM     35   O  A00 X   2      52.229  17.055  25.0010  0.00  0.00     0.000 OA
ATOM     36   O  A00 X   2      52.177  14.805  25.5660  0.00  0.00     0.000 O
ATOM     37   O  A00 X   2      50.454  16.201  26.3090  0.00  0.00     0.000 OA
ATOM     38   S  A00 X   2      51.872  16.245  26.1180  0.00  0.00     0.000 S
ATOM     39   O  A00 X   2      52.692  16.416  27.2790  0.00  0.00     0.000 OA
ENDBRANCH 24 34
BRANCH 20 40
ATOM     40  O4  A00 X   3      48.641  12.132  27.2260  0.00  0.00     0.000 O
BRANCH 40 44
ATOM     41  C1  A00 X   3      49.343  13.148  30.6320  0.00  0.00     0.000 C
ATOM     42  C2  A00 X   3      48.510  11.910  30.2370  0.00  0.00     0.000 C
ATOM     43  C3  A00 X   3      47.404  12.287  29.2180  0.00  0.00     0.000 C
ATOM     44  C4  A00 X   3      47.896  13.084  28.0160  0.00  0.00     0.000 C
ATOM     45  C5  A00 X   3      48.719  14.313  28.4940  0.00  0.00     0.000 C
ATOM     46  O5  A00 X   3      49.743  13.913  29.4610  0.00  0.00     0.000 O
ATOM     47   O  A00 X   3      46.515  11.235  28.8460  0.00  0.00     0.000 O
ATOM     49  HD  A00 X   3      46.587  11.603  28.0650  0.00  0.00     0.000 HD
BRANCH 42 49
ATOM     49   O  A00 X   3      49.428  10.941  29.6860  0.00  0.00     0.000 O
ATOM     50   O  A00 X   3      49.266   8.762  28.7070  0.00  0.00     0.000 OA
ATOM     51   O  A00 X   3      47.951   9.260  30.6080  0.00  0.00     0.000 OA
ATOM     52   O  A00 X   3      50.296   9.106  30.8680  0.00  0.00     0.000 OA
ATOM     53   S  A00 X   3      49.236   9.423  29.9740  0.00  0.00     0.000 S
ENDBRANCH 42 49
BRANCH 45 54
ATOM     54   C  A00 X   3      47.813  15.439  29.0050  0.00  0.00     0.000 C
ATOM     55   O  A00 X   3      48.270  16.535  29.2590  0.00  0.00     0.000 OA
ATOM     56   O  A00 X   3      46.616  15.254  29.1680  0.00  0.00     0.000 OA
ENDBRANCH 45 54
BRANCH 41 57
ATOM     57  O4  A00 X   4      48.682  13.935  31.6490  0.00  0.00     0.000 O
BRANCH 57 61
ATOM     58  C1  A00 X   4      50.147  16.298  34.9510  0.00  0.00     0.000 C
ATOM     59  C2  A00 X   4      50.550  16.705  33.5120  0.00  0.00     0.000 C
ATOM     60  C3  A00 X   4      49.696  16.029  32.4200  0.00  0.00     0.000 C
ATOM     61  C4  A00 X   4      49.563  14.509  32.6560  0.00  0.00     0.000 C
ATOM     62  C5  A00 X   4      48.946  14.340  34.0670  0.00  0.00     0.000 C
ATOM     63  O5  A00 X   4      49.858  14.885  35.0540  0.00  0.00     0.000 O
BRANCH 59 66
ATOM     64   N  A00 X   4      51.938  16.299  33.2270  0.00  0.00     0.000 N
ATOM     66  HD  A00 X   4      52.247  15.609  33.6490  0.00  0.00     0.000 HD
ATOM     66   O  A00 X   4      52.651  18.289  34.3790  0.00  0.00     0.000 OA
ATOM     67   S  A00 X   4      53.090  17.402  33.3480  0.00  0.00     0.000 S
ATOM     68   O  A00 X   4      54.209  16.571  33.6840  0.00  0.00     0.000 OA
ATOM     69   O  A00 X   4      53.108  17.898  32.0010  0.00  0.00     0.000 OA
ENDBRANCH 59 66
BRANCH 62 70
ATOM     70   C  A00 X   4      48.631  12.873  34.4460  0.00  0.00     0.000 C
ATOM     71   O  A00 X   4      50.937  10.174  35.1550  0.00  0.00     0.000 OA
ATOM     72   O  A00 X   4      49.061  10.256  33.7340  0.00  0.00     0.000 OA
ATOM     73   O  A00 X   4      49.837  12.224  34.8780  0.00  0.00     0.000 O
ATOM     74   O  A00 X   4      51.135  11.337  33.0520  0.00  0.00     0.000 OA
ATOM     75   S  A00 X   4      50.283  10.925  34.1210  0.00  0.00     0.000 S
ENDBRANCH 62 70
ENDBRANCH 57 61
ENDBRANCH 41 57
ENDBRANCH 40 44
ENDBRANCH 20 40
ENDBRANCH 19 23
ENDBRANCH 1 19
TORSDOF 14
ENDMDL
MODEL 67
REMARK VINA RESULT:      -0.7     32.671     37.519
ROOT
ATOM      1  C1  A00 X   1      50.027  17.856  17.6290  0.00  0.00     0.000 C
ATOM      2  C2  A00 X   1      50.525  19.138  18.3490  0.00  0.00     0.000 C
ATOM      3  C3  A00 X   1      50.577  19.072  19.9110  0.00  0.00     0.000 C
ATOM      4  C4  A00 X   1      49.795  17.900  20.5570  0.00  0.00     0.000 C
ATOM      5  C5  A00 X   1      48.699  17.361  19.6380  0.00  0.00     0.000 C
ATOM      6  O5  A00 X   1      49.404  16.862  18.4790  0.00  0.00     0.000 O
ATOM      7   O  A00 X   1      50.017  20.272  20.4390  0.00  0.00     0.000 O
ATOM      9  HD  A00 X   1      49.727  19.619  20.9280  0.00  0.00     0.000 HD
ATOM      9   O  A00 X   1      50.668  16.838  20.9410  0.00  0.00     0.000 O
ATOM     11  HD  A00 X   1      50.378  16.184  21.4300  0.00  0.00     0.000 HD
ENDROOT
BRANCH 2 11
ATOM     11   O  A00 X   1      51.842  19.439  17.8480  0.00  0.00     0.000 O
ATOM     12   O  A00 X   1      53.209  21.156  18.8220  0.00  0.00     0.000 OA
ATOM     13   O  A00 X   1      51.113  21.769  17.7510  0.00  0.00     0.000 OA
ATOM     14   O  A00 X   1      52.937  20.960  16.4560  0.00  0.00     0.000 OA
ATOM     15   S  A00 X   1      52.286  20.938  17.7380  0.00  0.00     0.000 S
ENDBRANCH 2 11
BRANCH 5 16
ATOM     16   C  A00 X   1      47.589  18.361  19.2970  0.00  0.00     0.000 C
ATOM     17   O  A00 X   1      46.806  18.082  18.4130  0.00  0.00     0.000 OA
ATOM     18   O  A00 X   1      47.462  19.418  19.8830  0.00  0.00     0.000 OA
ENDBRANCH 5 16
BRANCH 1 19
ATOM     19  O4  A00 X   2      49.210  18.146  16.4680  0.00  0.00     0.000 O
BRANCH 19 23
ATOM     20  C1  A00 X   2      50.885  14.979  14.1150  0.00  0.00     0.000 C
ATOM     21  C2  A00 X   2      51.455  16.403  13.9070  0.00  0.00     0.000 C
ATOM     22  C3  A00 X   2      51.082  17.323  15.0880  0.00  0.00     0.000 C
ATOM     23  C4  A00 X   2      49.555  17.317  15.3210  0.00  0.00     0.000 C
ATOM     24  C5  A00 X   2      49.108  15.840  15.4970  0.00  0.00     0.000 C
ATOM     25  O5  A00 X   2      49.449  15.102  14.2940  0.00  0.00     0.000 O
ATOM     26   O  A00 X   2      51.691  18.609  14.8810  0.00  0.00     0.000 O
ATOM     28  HD  A00 X   2      51.391  18.677  14.0710  0.00  0.00     0.000 HD
BRANCH 21 30
ATOM     28   N  A00 X   2      51.639  16.080  12.4880  0.00  0.00     0.000 N
ATOM     30  HD  A00 X   2      52.110  16.789  12.6470  0.00  0.00     0.000 HD
ATOM     30   O  A00 X   2      53.505  17.253  11.7120  0.00  0.00     0.000 OA
ATOM     31   S  A00 X   2      52.101  17.227  11.5030  0.00  0.00     0.000 S
ATOM     32   O  A00 X   2      51.690  16.754  10.2170  0.00  0.00     0.000 OA
ATOM     33   O  A00 X   2      51.370  18.408  11.8560  0.00  0.00     0.000 OA
ENDBRANCH 21 30
BRANCH 24 34
ATOM     34   C  A00 X   2      47.660  15.571  15.9720  0.00  0.00     0.000 C
ATOM     35   O  A00 X   2      44.689  16.754  14.2310  0.00  0.00     0.000 OA
ATOM     36   O  A00 X   2      46.722  16.440  15.3060  0.00  0.00     0.000 O
ATOM     37   O  A00 X   2      46.373  15.433  13.2240  0.00  0.00     0.000 OA
ATOM     38   S  A00 X   2      45.643  15.712  14.4230  0.00  0.00     0.000 S
ATOM     39   O  A00 X   2      45.178  14.596  15.1910  0.00  0.00     0.000 OA
ENDBRANCH 24 34
BRANCH 20 40
ATOM     40  O4  A00 X   3      51.480  14.498  15.3290  0.00  0.00     0.000 O
BRANCH 40 44
ATOM     41  C1  A00 X   3      51.012  12.791  18.4900  0.00  0.00     0.000 C
ATOM     42  C2  A00 X   3      52.349  13.391  18.0030  0.00  0.00     0.000 C
ATOM     43  C3  A00 X   3      52.685  12.908  16.5690  0.00  0.00     0.000 C
ATOM     44  C4  A00 X   3      51.554  13.075  15.5630  0.00  0.00     0.000 C
ATOM     45  C5  A00 X   3      50.247  12.443  16.1210  0.00  0.00     0.000 C
ATOM     46  O5  A00 X   3      49.975  12.919  17.4790  0.00  0.00     0.000 O
ATOM     47   O  A00 X   3      53.944  13.331  16.0490  0.00  0.00     0.000 O
ATOM     49  HD  A00 X   3      53.487  13.412  15.3170  0.00  0.00     0.000 HD
BRANCH 42 49
ATOM     49   O  A00 X   3      52.212  14.828  18.0570  0.00  0.00     0.000 O
ATOM     50   O  A00 X   3      53.565  16.720  17.4920  0.00  0.00     0.000 OA
ATOM     51   O  A00 X   3      54.578  14.872  18.5630  0.00  0.00     0.000 OA
ATOM     52   O  A00 X   3      53.040  16.180  19.7900  0.00  0.00     0.000 OA
ATOM     53   S  A00 X   3      53.412  15.716  18.4980  0.00  0.00     0.000 S
ENDBRANCH 42 49
BRANCH 45 54
ATOM     54   C  A00 X   3      50.264  10.914  16.0100  0.00  0.00     0.000 C
ATOM     55   O  A00 X   3      51.286  10.325  15.7200  0.00  0.00     0.000 OA
ATOM     56   O  A00 X   3      49.252  10.261  16.2090  0.00  0.00     0.000 OA
ENDBRANCH 45 54
BRANCH 41 57
ATOM     57  O4  A00 X   4      51.181  11.446  18.9900  0.00  0.00     0.000 O
BRANCH 57 61
ATOM     58  C1  A00 X   4      49.212   9.200  22.1080  0.00  0.00     0.000 C
ATOM     59  C2  A00 X   4      48.369   9.700  20.9090  0.00  0.00     0.000 C
ATOM     60  C3  A00 X   4      49.220  10.162  19.7080  0.00  0.00     0.000 C
ATOM     61  C4  A00 X   4      50.360  11.107  20.1440  0.00  0.00     0.000 C
ATOM     62  C5  A00 X   4      51.198  10.327  21.1880  0.00  0.00     0.000 C
ATOM     63  O5  A00 X   4      50.370  10.035  22.3420  0.00  0.00     0.000 O
BRANCH 59 66
ATOM     64   N  A00 X   4      47.586  10.878  21.3250  0.00  0.00     0.000 N
ATOM     66  HD  A00 X   4      47.906  11.363  21.9670  0.00  0.00     0.000 HD
ATOM     66   O  A00 X   4      45.968   9.351  22.2480  0.00  0.00     0.000 OA
ATOM     67   S  A00 X   4      46.045  10.669  21.7000  0.00  0.00     0.000 S
ATOM     68   O  A00 X   4      45.860  11.739  22.6370  0.00  0.00     0.000 OA
ATOM     69   O  A00 X   4      45.440  10.898  20.4190  0.00  0.00     0.000 OA
ENDBRANCH 59 66
BRANCH 62 70
ATOM     70   C  A00 X   4      52.464  11.075  21.6680  0.00  0.00     0.000 C
ATOM     71   O  A00 X   4      52.692  14.062  23.7020  0.00  0.00     0.000 OA
ATOM     72   O  A00 X   4      53.738  13.509  21.6670  0.00  0.00     0.000 OA
ATOM     73   O  A00 X   4      52.093  12.056  22.6500  0.00  0.00     0.000 O
ATOM     74   O  A00 X   4      51.385  14.143  21.6770  0.00  0.00     0.000 OA
ATOM     75   S  A00 X   4      52.479  13.551  22.3770  0.00  0.00     0.000 S
ENDBRANCH 62 70
ENDBRANCH 57 61
ENDBRANCH 41 57
ENDBRANCH 40 44
ENDBRANCH 20 40
ENDBRANCH 19 23
ENDBRANCH 1 19
TORSDOF 14
ENDMDL
MODEL 68
REMARK VINA RESULT:      -0.7     46.017     50.307
ROOT
ATOM      1  C1  A00 X   1      49.836  31.809  43.5520  0.00  0.00     0.000 C
ATOM      2  C2  A00 X   1      49.363  31.811  45.0300  0.00  0.00     0.000 C
ATOM      3  C3  A00 X   1      47.816  31.858  45.2560  0.00  0.00     0.000 C
ATOM      4  C4  A00 X   1      46.971  32.264  44.0210  0.00  0.00     0.000 C
ATOM      5  C5  A00 X   1      47.788  33.053  42.9970  0.00  0.00     0.000 C
ATOM      6  O5  A00 X   1      48.823  32.138  42.5700  0.00  0.00     0.000 O
ATOM      7   O  A00 X   1      47.531  32.816  46.2730  0.00  0.00     0.000 O
ATOM      9  HD  A00 X   1      46.932  32.914  45.6560  0.00  0.00     0.000 HD
ATOM      9   O  A00 X   1      46.383  31.124  43.3930  0.00  0.00     0.000 O
ATOM     11  HD  A00 X   1      45.784  31.222  42.7760  0.00  0.00     0.000 HD
ENDROOT
BRANCH 2 11
ATOM     11   O  A00 X   1      49.894  30.630  45.6620  0.00  0.00     0.000 O
ATOM     12   O  A00 X   1      49.237  29.969  47.8750  0.00  0.00     0.000 OA
ATOM     13   O  A00 X   1      50.432  32.065  47.5640  0.00  0.00     0.000 OA
ATOM     14   O  A00 X   1      51.529  29.986  47.1990  0.00  0.00     0.000 OA
ATOM     15   S  A00 X   1      50.275  30.689  47.1810  0.00  0.00     0.000 S
ENDBRANCH 2 11
BRANCH 5 16
ATOM     16   C  A00 X   1      48.327  34.398  43.4960  0.00  0.00     0.000 C
ATOM     17   O  A00 X   1      49.160  34.974  42.8280  0.00  0.00     0.000 OA
ATOM     18   O  A00 X   1      47.945  34.909  44.5300  0.00  0.00     0.000 OA
ENDBRANCH 5 16
BRANCH 1 19
ATOM     19  O4  A00 X   2      51.042  32.586  43.3480  0.00  0.00     0.000 O
BRANCH 19 23
ATOM     20  C1  A00 X   2      52.754  29.773  40.6060  0.00  0.00     0.000 C
ATOM     21  C2  A00 X   2      53.222  29.710  42.0800  0.00  0.00     0.000 C
ATOM     22  C3  A00 X   2      52.235  30.455  43.0020  0.00  0.00     0.000 C
ATOM     23  C4  A00 X   2      52.012  31.901  42.5050  0.00  0.00     0.000 C
ATOM     24  C5  A00 X   2      51.566  31.828  41.0190  0.00  0.00     0.000 C
ATOM     25  O5  A00 X   2      52.608  31.174  40.2500  0.00  0.00     0.000 O
ATOM     26   O  A00 X   2      52.676  30.309  44.3630  0.00  0.00     0.000 O
ATOM     28  HD  A00 X   2      53.485  30.557  44.1800  0.00  0.00     0.000 HD
BRANCH 21 30
ATOM     28   N  A00 X   2      54.556  29.331  41.6020  0.00  0.00     0.000 N
ATOM     30  HD  A00 X   2      54.528  29.140  42.4460  0.00  0.00     0.000 HD
ATOM     30   O  A00 X   2      55.527  27.925  43.1960  0.00  0.00     0.000 OA
ATOM     31   S  A00 X   2      55.734  29.220  42.6510  0.00  0.00     0.000 S
ATOM     32   O  A00 X   2      56.912  29.358  41.8520  0.00  0.00     0.000 OA
ATOM     33   O  A00 X   2      55.608  30.330  43.5480  0.00  0.00     0.000 OA
ENDBRANCH 21 30
BRANCH 24 34
ATOM     34   C  A00 X   2      51.056  33.127  40.3500  0.00  0.00     0.000 C
ATOM     35   O  A00 X   2      52.683  34.738  37.5190  0.00  0.00     0.000 OA
ATOM     36   O  A00 X   2      52.070  33.714  39.5100  0.00  0.00     0.000 O
ATOM     37   O  A00 X   2      51.963  32.485  37.5230  0.00  0.00     0.000 OA
ATOM     38   S  A00 X   2      51.701  33.814  37.9840  0.00  0.00     0.000 S
ATOM     39   O  A00 X   2      50.349  34.283  37.9240  0.00  0.00     0.000 OA
ENDBRANCH 24 34
BRANCH 20 40
ATOM     40  O4  A00 X   3      51.469  29.135  40.5790  0.00  0.00     0.000 O
BRANCH 40 44
ATOM     41  C1  A00 X   3      48.047  29.197  39.3920  0.00  0.00     0.000 C
ATOM     42  C2  A00 X   3      48.634  28.119  40.3280  0.00  0.00     0.000 C
ATOM     43  C3  A00 X   3      49.953  27.542  39.7520  0.00  0.00     0.000 C
ATOM     44  C4  A00 X   3      50.975  28.593  39.3360  0.00  0.00     0.000 C
ATOM     45  C5  A00 X   3      50.312  29.636  38.3940  0.00  0.00     0.000 C
ATOM     46  O5  A00 X   3      49.067  30.145  38.9720  0.00  0.00     0.000 O
ATOM     47   O  A00 X   3      50.542  26.474  40.4910  0.00  0.00     0.000 O
ATOM     49  HD  A00 X   3      51.276  26.881  40.2790  0.00  0.00     0.000 HD
BRANCH 42 49
ATOM     49   O  A00 X   3      48.848  28.744  41.6120  0.00  0.00     0.000 O
ATOM     50   O  A00 X   3      49.740  28.084  43.7330  0.00  0.00     0.000 OA
ATOM     51   O  A00 X   3      48.336  26.580  42.5680  0.00  0.00     0.000 OA
ATOM     52   O  A00 X   3      47.387  28.561  43.4410  0.00  0.00     0.000 OA
ATOM     53   S  A00 X   3      48.567  27.957  42.9260  0.00  0.00     0.000 S
ENDBRANCH 42 49
BRANCH 45 54
ATOM     54   C  A00 X   3      50.137  29.088  36.9720  0.00  0.00     0.000 C
ATOM     55   O  A00 X   3      49.794  29.818  36.0650  0.00  0.00     0.000 OA
ATOM     56   O  A00 X   3      50.339  27.909  36.7280  0.00  0.00     0.000 OA
ENDBRANCH 45 54
BRANCH 41 57
ATOM     57  O4  A00 X   4      47.306  28.609  38.2990  0.00  0.00     0.000 O
BRANCH 57 61
ATOM     58  C1  A00 X   4      43.805  29.868  36.1080  0.00  0.00     0.000 C
ATOM     59  C2  A00 X   4      45.073  30.755  36.0520  0.00  0.00     0.000 C
ATOM     60  C3  A00 X   4      46.344  30.044  36.5590  0.00  0.00     0.000 C
ATOM     61  C4  A00 X   4      46.104  29.332  37.9080  0.00  0.00     0.000 C
ATOM     62  C5  A00 X   4      44.935  28.343  37.6770  0.00  0.00     0.000 C
ATOM     63  O5  A00 X   4      43.742  29.089  37.3250  0.00  0.00     0.000 O
BRANCH 59 66
ATOM     64   N  A00 X   4      44.900  31.929  36.9270  0.00  0.00     0.000 N
ATOM     66  HD  A00 X   4      44.372  31.846  37.6080  0.00  0.00     0.000 HD
ATOM     66   O  A00 X   4      43.679  32.964  35.1280  0.00  0.00     0.000 OA
ATOM     67   S  A00 X   4      44.484  33.319  36.2540  0.00  0.00     0.000 S
ATOM     68   O  A00 X   4      43.783  33.934  37.3440  0.00  0.00     0.000 OA
ATOM     69   O  A00 X   4      45.782  33.877  36.0010  0.00  0.00     0.000 OA
ENDBRANCH 59 66
BRANCH 62 70
ATOM     70   C  A00 X   4      44.614  27.448  38.8970  0.00  0.00     0.000 C
ATOM     71   O  A00 X   4      43.156  28.394  42.0730  0.00  0.00     0.000 OA
ATOM     72   O  A00 X   4      45.071  27.114  41.5850  0.00  0.00     0.000 OA
ATOM     73   O  A00 X   4      43.820  28.193  39.8360  0.00  0.00     0.000 O
ATOM     74   O  A00 X   4      45.146  29.537  41.3330  0.00  0.00     0.000 OA
ATOM     75   S  A00 X   4      44.364  28.343  41.2990  0.00  0.00     0.000 S
ENDBRANCH 62 70
ENDBRANCH 57 61
ENDBRANCH 41 57
ENDBRANCH 40 44
ENDBRANCH 20 40
ENDBRANCH 19 23
ENDBRANCH 1 19
TORSDOF 14
ENDMDL
MODEL 69
REMARK VINA RESULT:      -0.7     42.186     47.257
ROOT
ATOM      1  C1  A00 X   1      14.927  49.236  39.4110  0.00  0.00     0.000 C
ATOM      2  C2  A00 X   1      14.465  50.585  40.0230  0.00  0.00     0.000 C
ATOM      3  C3  A00 X   1      13.876  50.517  41.4710  0.00  0.00     0.000 C
ATOM      4  C4  A00 X   1      13.486  49.102  41.9680  0.00  0.00     0.000 C
ATOM      5  C5  A00 X   1      13.234  48.133  40.8130  0.00  0.00     0.000 C
ATOM      6  O5  A00 X   1      14.501  48.047  40.1230  0.00  0.00     0.000 O
ATOM      7   O  A00 X   1      12.688  51.304  41.5180  0.00  0.00     0.000 O
ATOM      9  HD  A00 X   1      12.533  50.581  41.9680  0.00  0.00     0.000 HD
ATOM      9   O  A00 X   1      14.479  48.563  42.8410  0.00  0.00     0.000 O
ATOM     11  HD  A00 X   1      14.324  47.840  43.2910  0.00  0.00     0.000 HD
ENDROOT
BRANCH 2 11
ATOM     11   O  A00 X   1      15.596  51.478  40.0190  0.00  0.00     0.000 O
ATOM     12   O  A00 X   1      15.525  53.622  41.0980  0.00  0.00     0.000 OA
ATOM     13   O  A00 X   1      14.055  53.192  39.2090  0.00  0.00     0.000 OA
ATOM     14   O  A00 X   1      16.406  53.356  38.8930  0.00  0.00     0.000 OA
ATOM     15   S  A00 X   1      15.350  53.012  39.8050  0.00  0.00     0.000 S
ENDBRANCH 2 11
BRANCH 5 16
ATOM     16   C  A00 X   1      12.062  48.506  39.8990  0.00  0.00     0.000 C
ATOM     17   O  A00 X   1      11.930  47.908  38.8510  0.00  0.00     0.000 OA
ATOM     18   O  A00 X   1      11.259  49.370  40.1890  0.00  0.00     0.000 OA
ENDBRANCH 5 16
BRANCH 1 19
ATOM     19  O4  A00 X   2      14.641  49.135  37.9950  0.00  0.00     0.000 O
BRANCH 19 23
ATOM     20  C1  A00 X   2      18.336  47.167  37.0770  0.00  0.00     0.000 C
ATOM     21  C2  A00 X   2      18.263  48.695  36.8420  0.00  0.00     0.000 C
ATOM     22  C3  A00 X   2      17.071  49.312  37.6040  0.00  0.00     0.000 C
ATOM     23  C4  A00 X   2      15.757  48.585  37.2380  0.00  0.00     0.000 C
ATOM     24  C5  A00 X   2      15.966  47.068  37.4980  0.00  0.00     0.000 C
ATOM     25  O5  A00 X   2      17.062  46.598  36.6720  0.00  0.00     0.000 O
ATOM     26   O  A00 X   2      17.087  50.736  37.4100  0.00  0.00     0.000 O
ATOM     28  HD  A00 X   2      17.159  50.669  36.5500  0.00  0.00     0.000 HD
BRANCH 21 30
ATOM     28   N  A00 X   2      19.144  48.523  35.6830  0.00  0.00     0.000 N
ATOM     30  HD  A00 X   2      19.148  49.367  35.8770  0.00  0.00     0.000 HD
ATOM     30   O  A00 X   2      20.454  50.446  35.4730  0.00  0.00     0.000 OA
ATOM     31   S  A00 X   2      19.431  49.771  34.7560  0.00  0.00     0.000 S
ATOM     32   O  A00 X   2      19.846  49.185  33.5190  0.00  0.00     0.000 OA
ATOM     33   O  A00 X   2      18.189  50.466  34.5860  0.00  0.00     0.000 OA
ENDBRANCH 21 30
BRANCH 24 34
ATOM     34   C  A00 X   2      14.728  46.143  37.4300  0.00  0.00     0.000 C
ATOM     35   O  A00 X   2      14.314  43.465  34.9970  0.00  0.00     0.000 OA
ATOM     36   O  A00 X   2      14.676  45.431  36.1770  0.00  0.00     0.000 O
ATOM     37   O  A00 X   2      16.164  43.648  36.4590  0.00  0.00     0.000 OA
ATOM     38   S  A00 X   2      14.759  43.865  36.2920  0.00  0.00     0.000 S
ATOM     39   O  A00 X   2      13.897  43.492  37.3730  0.00  0.00     0.000 OA
ENDBRANCH 24 34
BRANCH 20 40
ATOM     40  O4  A00 X   3      18.508  47.000  38.4910  0.00  0.00     0.000 O
BRANCH 40 44
ATOM     41  C1  A00 X   3      17.565  45.225  41.5050  0.00  0.00     0.000 C
ATOM     42  C2  A00 X   3      18.574  46.392  41.4510  0.00  0.00     0.000 C
ATOM     43  C3  A00 X   3      19.648  46.147  40.3600  0.00  0.00     0.000 C
ATOM     44  C4  A00 X   3      19.089  45.777  38.9920  0.00  0.00     0.000 C
ATOM     45  C5  A00 X   3      18.089  44.595  39.1290  0.00  0.00     0.000 C
ATOM     46  O5  A00 X   3      17.100  44.864  40.1750  0.00  0.00     0.000 O
ATOM     47   O  A00 X   3      20.686  47.122  40.2780  0.00  0.00     0.000 O
ATOM     49  HD  A00 X   3      20.589  46.989  39.4280  0.00  0.00     0.000 HD
BRANCH 42 49
ATOM     49   O  A00 X   3      17.817  47.594  41.1860  0.00  0.00     0.000 O
ATOM     50   O  A00 X   3      18.310  49.910  40.8340  0.00  0.00     0.000 OA
ATOM     51   O  A00 X   3      19.476  48.739  42.5250  0.00  0.00     0.000 OA
ATOM     52   O  A00 X   3      17.167  49.146  42.8230  0.00  0.00     0.000 OA
ATOM     53   S  A00 X   3      18.205  48.935  41.8740  0.00  0.00     0.000 S
ENDBRANCH 42 49
BRANCH 45 54
ATOM     54   C  A00 X   3      18.813  43.256  39.3140  0.00  0.00     0.000 C
ATOM     55   O  A00 X   3      18.200  42.209  39.2730  0.00  0.00     0.000 OA
ATOM     56   O  A00 X   3      20.019  43.219  39.5080  0.00  0.00     0.000 OA
ENDBRANCH 45 54
BRANCH 41 57
ATOM     57  O4  A00 X   4      18.078  44.111  42.2700  0.00  0.00     0.000 O
BRANCH 57 61
ATOM     58  C1  A00 X   4      16.194  41.179  44.8180  0.00  0.00     0.000 C
ATOM     59  C2  A00 X   4      15.790  41.231  43.3230  0.00  0.00     0.000 C
ATOM     60  C3  A00 X   4      16.764  42.048  42.4510  0.00  0.00     0.000 C
ATOM     61  C4  A00 X   4      17.093  43.416  43.0870  0.00  0.00     0.000 C
ATOM     62  C5  A00 X   4      17.677  43.116  44.4900  0.00  0.00     0.000 C
ATOM     63  O5  A00 X   4      16.666  42.459  45.2970  0.00  0.00     0.000 O
BRANCH 59 66
ATOM     64   N  A00 X   4      14.480  41.871  43.1030  0.00  0.00     0.000 N
ATOM     66  HD  A00 X   4      14.233  42.480  43.6670  0.00  0.00     0.000 HD
ATOM     66   O  A00 X   4      13.465  39.781  43.7380  0.00  0.00     0.000 OA
ATOM     67   S  A00 X   4      13.198  40.931  42.9320  0.00  0.00     0.000 S
ATOM     68   O  A00 X   4      12.170  41.803  43.4220  0.00  0.00     0.000 OA
ATOM     69   O  A00 X   4      13.196  40.763  41.5060  0.00  0.00     0.000 OA
ENDBRANCH 59 66
BRANCH 62 70
ATOM     70   C  A00 X   4      18.174  44.369  45.2490  0.00  0.00     0.000 C
ATOM     71   O  A00 X   4      16.229  47.074  46.6660  0.00  0.00     0.000 OA
ATOM     72   O  A00 X   4      18.125  47.115  45.2700  0.00  0.00     0.000 OA
ATOM     73   O  A00 X   4      17.051  45.040  45.8440  0.00  0.00     0.000 O
ATOM     74   O  A00 X   4      15.948  46.554  44.3290  0.00  0.00     0.000 OA
ATOM     75   S  A00 X   4      16.811  46.543  45.4660  0.00  0.00     0.000 S
ENDBRANCH 62 70
ENDBRANCH 57 61
ENDBRANCH 41 57
ENDBRANCH 40 44
ENDBRANCH 20 40
ENDBRANCH 19 23
ENDBRANCH 1 19
TORSDOF 14
ENDMDL
MODEL 70
REMARK VINA RESULT:      -0.7     51.001     55.976
ROOT
ATOM      1  C1  A00 X   1      35.916  46.478  49.0940  0.00  0.00     0.000 C
ATOM      2  C2  A00 X   1      35.372  47.623  49.9890  0.00  0.00     0.000 C
ATOM      3  C3  A00 X   1      34.488  47.186  51.2030  0.00  0.00     0.000 C
ATOM      4  C4  A00 X   1      33.964  45.728  51.1580  0.00  0.00     0.000 C
ATOM      5  C5  A00 X   1      33.935  45.168  49.7360  0.00  0.00     0.000 C
ATOM      6  O5  A00 X   1      35.317  45.176  49.3110  0.00  0.00     0.000 O
ATOM      7   O  A00 X   1      33.338  48.028  51.2590  0.00  0.00     0.000 O
ATOM      9  HD  A00 X   1      33.073  47.221  51.4270  0.00  0.00     0.000 HD
ATOM      9   O  A00 X   1      34.735  44.870  51.9990  0.00  0.00     0.000 O
ATOM     11  HD  A00 X   1      34.469  44.063  52.1670  0.00  0.00     0.000 HD
ENDROOT
BRANCH 2 11
ATOM     11   O  A00 X   1      36.501  48.373  50.4760  0.00  0.00     0.000 O
ATOM     12   O  A00 X   1      36.260  50.110  52.1170  0.00  0.00     0.000 OA
ATOM     13   O  A00 X   1      35.218  50.380  49.9360  0.00  0.00     0.000 OA
ATOM     14   O  A00 X   1      37.586  50.415  50.1520  0.00  0.00     0.000 OA
ATOM     15   S  A00 X   1      36.349  49.918  50.6910  0.00  0.00     0.000 S
ENDBRANCH 2 11
BRANCH 5 16
ATOM     16   C  A00 X   1      32.993  45.897  48.7720  0.00  0.00     0.000 C
ATOM     17   O  A00 X   1      33.072  45.650  47.5860  0.00  0.00     0.000 OA
ATOM     18   O  A00 X   1      32.169  46.704  49.1520  0.00  0.00     0.000 OA
ENDBRANCH 5 16
BRANCH 1 19
ATOM     19  O4  A00 X   2      35.933  46.823  47.6880  0.00  0.00     0.000 O
BRANCH 19 23
ATOM     20  C1  A00 X   2      39.678  44.880  46.9390  0.00  0.00     0.000 C
ATOM     21  C2  A00 X   2      39.702  46.409  47.1780  0.00  0.00     0.000 C
ATOM     22  C3  A00 X   2      38.394  46.881  47.8470  0.00  0.00     0.000 C
ATOM     23  C4  A00 X   2      37.167  46.420  47.0280  0.00  0.00     0.000 C
ATOM     24  C5  A00 X   2      37.270  44.882  46.8430  0.00  0.00     0.000 C
ATOM     25  O5  A00 X   2      38.503  44.577  46.1410  0.00  0.00     0.000 O
ATOM     26   O  A00 X   2      38.493  48.291  48.1090  0.00  0.00     0.000 O
ATOM     28  HD  A00 X   2      38.745  48.475  47.3010  0.00  0.00     0.000 HD
BRANCH 21 30
ATOM     28   N  A00 X   2      40.804  46.504  46.2160  0.00  0.00     0.000 N
ATOM     30  HD  A00 X   2      40.791  47.249  46.6570  0.00  0.00     0.000 HD
ATOM     30   O  A00 X   2      42.184  48.274  46.8650  0.00  0.00     0.000 OA
ATOM     31   S  A00 X   2      41.319  47.937  45.7910  0.00  0.00     0.000 S
ATOM     32   O  A00 X   2      41.970  47.706  44.5390  0.00  0.00     0.000 OA
ATOM     33   O  A00 X   2      40.163  48.764  45.6050  0.00  0.00     0.000 OA
ENDBRANCH 21 30
BRANCH 24 34
ATOM     34   C  A00 X   2      36.048  44.138  46.2550  0.00  0.00     0.000 C
ATOM     35   O  A00 X   2      34.562  44.895  43.0180  0.00  0.00     0.000 OA
ATOM     36   O  A00 X   2      35.472  44.868  45.1540  0.00  0.00     0.000 O
ATOM     37   O  A00 X   2      36.841  44.346  43.3300  0.00  0.00     0.000 OA
ATOM     38   S  A00 X   2      35.498  44.123  43.7690  0.00  0.00     0.000 S
ATOM     39   O  A00 X   2      35.100  42.772  44.0290  0.00  0.00     0.000 OA
ENDBRANCH 24 34
BRANCH 20 40
ATOM     40  O4  A00 X   3      39.541  44.287  48.2390  0.00  0.00     0.000 O
BRANCH 40 44
ATOM     41  C1  A00 X   3      37.896  41.795  50.2910  0.00  0.00     0.000 C
ATOM     42  C2  A00 X   3      38.928  42.820  50.8090  0.00  0.00     0.000 C
ATOM     43  C3  A00 X   3      40.210  42.807  49.9360  0.00  0.00     0.000 C
ATOM     44  C4  A00 X   3      39.957  42.919  48.4380  0.00  0.00     0.000 C
ATOM     45  C5  A00 X   3      38.915  41.854  47.9930  0.00  0.00     0.000 C
ATOM     46  O5  A00 X   3      37.728  41.896  48.8500  0.00  0.00     0.000 O
ATOM     47   O  A00 X   3      41.270  43.655  50.3740  0.00  0.00     0.000 O
ATOM     49  HD  A00 X   3      41.360  43.792  49.5230  0.00  0.00     0.000 HD
BRANCH 42 49
ATOM     49   O  A00 X   3      38.288  44.114  50.7860  0.00  0.00     0.000 O
ATOM     50   O  A00 X   3      38.921  46.370  51.2760  0.00  0.00     0.000 OA
ATOM     51   O  A00 X   3      39.650  44.642  52.7160  0.00  0.00     0.000 OA
ATOM     52   O  A00 X   3      37.346  45.167  52.6620  0.00  0.00     0.000 OA
ATOM     53   S  A00 X   3      38.559  45.146  51.9190  0.00  0.00     0.000 S
ENDBRANCH 42 49
BRANCH 45 54
ATOM     54   C  A00 X   3      39.538  40.457  47.8930  0.00  0.00     0.000 C
ATOM     55   O  A00 X   3      38.908  39.531  47.4230  0.00  0.00     0.000 OA
ATOM     56   O  A00 X   3      40.676  40.250  48.2840  0.00  0.00     0.000 OA
ENDBRANCH 45 54
BRANCH 41 57
ATOM     57  O4  A00 X   4      38.192  40.459  50.7550  0.00  0.00     0.000 O
BRANCH 57 61
ATOM     58  C1  A00 X   4      35.698  37.106  51.8420  0.00  0.00     0.000 C
ATOM     59  C2  A00 X   4      35.633  37.638  50.3890  0.00  0.00     0.000 C
ATOM     60  C3  A00 X   4      36.801  38.576  50.0240  0.00  0.00     0.000 C
ATOM     61  C4  A00 X   4      37.029  39.655  51.1050  0.00  0.00     0.000 C
ATOM     62  C5  A00 X   4      37.281  38.896  52.4320  0.00  0.00     0.000 C
ATOM     63  O5  A00 X   4      36.097  38.134  52.7780  0.00  0.00     0.000 O
BRANCH 59 66
ATOM     64   N  A00 X   4      34.414  38.440  50.1780  0.00  0.00     0.000 N
ATOM     66  HD  A00 X   4      34.080  38.849  50.8650  0.00  0.00     0.000 HD
ATOM     66   O  A00 X   4      33.226  36.369  49.8640  0.00  0.00     0.000 OA
ATOM     67   S  A00 X   4      33.161  37.742  49.4710  0.00  0.00     0.000 S
ATOM     68   O  A00 X   4      32.086  38.498  50.0440  0.00  0.00     0.000 OA
ATOM     69   O  A00 X   4      33.436  38.059  48.0980  0.00  0.00     0.000 OA
ENDBRANCH 59 66
BRANCH 62 70
ATOM     70   C  A00 X   4      37.642  39.813  53.6250  0.00  0.00     0.000 C
ATOM     71   O  A00 X   4      35.524  42.152  55.4010  0.00  0.00     0.000 OA
ATOM     72   O  A00 X   4      37.678  42.420  54.4880  0.00  0.00     0.000 OA
ATOM     73   O  A00 X   4      36.439  40.384  54.1660  0.00  0.00     0.000 O
ATOM     74   O  A00 X   4      35.741  42.379  53.0100  0.00  0.00     0.000 OA
ATOM     75   S  A00 X   4      36.336  41.947  54.2340  0.00  0.00     0.000 S
ENDBRANCH 62 70
ENDBRANCH 57 61
ENDBRANCH 41 57
ENDBRANCH 40 44
ENDBRANCH 20 40
ENDBRANCH 19 23
ENDBRANCH 1 19
TORSDOF 14
ENDMDL
MODEL 71
REMARK VINA RESULT:      -0.7     32.618     38.366
ROOT
ATOM      1  C1  A00 X   1      12.301  42.024  33.9200  0.00  0.00     0.000 C
ATOM      2  C2  A00 X   1      11.205  41.936  35.0150  0.00  0.00     0.000 C
ATOM      3  C3  A00 X   1      11.117  40.582  35.7940  0.00  0.00     0.000 C
ATOM      4  C4  A00 X   1      11.866  39.389  35.1460  0.00  0.00     0.000 C
ATOM      5  C5  A00 X   1      12.083  39.589  33.6470  0.00  0.00     0.000 C
ATOM      6  O5  A00 X   1      12.918  40.765  33.5500  0.00  0.00     0.000 O
ATOM      7   O  A00 X   1       9.748  40.197  35.8890  0.00  0.00     0.000 O
ATOM      9  HD  A00 X   1      10.203  39.481  35.7130  0.00  0.00     0.000 HD
ATOM      9   O  A00 X   1      13.119  39.150  35.7870  0.00  0.00     0.000 O
ATOM     11  HD  A00 X   1      13.574  38.434  35.6110  0.00  0.00     0.000 HD
ENDROOT
BRANCH 2 11
ATOM     11   O  A00 X   1      11.437  43.004  35.9540  0.00  0.00     0.000 O
ATOM     12   O  A00 X   1      10.177  43.202  37.9890  0.00  0.00     0.000 OA
ATOM     13   O  A00 X   1       9.032  43.420  35.8540  0.00  0.00     0.000 OA
ATOM     14   O  A00 X   1      10.574  45.084  36.5710  0.00  0.00     0.000 OA
ATOM     15   S  A00 X   1      10.206  43.695  36.6360  0.00  0.00     0.000 S
ENDBRANCH 2 11
BRANCH 5 16
ATOM     16   C  A00 X   1      10.801  39.677  32.8120  0.00  0.00     0.000 C
ATOM     17   O  A00 X   1      10.882  40.049  31.6600  0.00  0.00     0.000 OA
ATOM     18   O  A00 X   1       9.711  39.383  33.2600  0.00  0.00     0.000 OA
ENDBRANCH 5 16
BRANCH 1 19
ATOM     19  O4  A00 X   2      11.870  42.764  32.7520  0.00  0.00     0.000 O
BRANCH 19 23
ATOM     20  C1  A00 X   2      15.658  44.689  32.1960  0.00  0.00     0.000 C
ATOM     21  C2  A00 X   2      14.555  45.483  32.9360  0.00  0.00     0.000 C
ATOM     22  C3  A00 X   2      13.440  44.541  33.4340  0.00  0.00     0.000 C
ATOM     23  C4  A00 X   2      12.887  43.688  32.2700  0.00  0.00     0.000 C
ATOM     24  C5  A00 X   2      14.087  42.961  31.6030  0.00  0.00     0.000 C
ATOM     25  O5  A00 X   2      15.023  43.956  31.1140  0.00  0.00     0.000 O
ATOM     26   O  A00 X   2      12.478  45.314  34.1720  0.00  0.00     0.000 O
ATOM     28  HD  A00 X   2      12.399  45.907  33.5450  0.00  0.00     0.000 HD
BRANCH 21 30
ATOM     28   N  A00 X   2      15.074  46.707  32.3170  0.00  0.00     0.000 N
ATOM     30  HD  A00 X   2      14.562  46.954  32.9700  0.00  0.00     0.000 HD
ATOM     30   O  A00 X   2      14.720  48.478  33.8000  0.00  0.00     0.000 OA
ATOM     31   S  A00 X   2      14.275  48.056  32.5190  0.00  0.00     0.000 S
ATOM     32   O  A00 X   2      14.711  48.874  31.4290  0.00  0.00     0.000 OA
ATOM     33   O  A00 X   2      12.883  47.748  32.3830  0.00  0.00     0.000 OA
ENDBRANCH 21 30
BRANCH 24 34
ATOM     34   C  A00 X   2      13.779  41.865  30.5560  0.00  0.00     0.000 C
ATOM     35   O  A00 X   2      14.805  42.032  27.0660  0.00  0.00     0.000 OA
ATOM     36   O  A00 X   2      13.986  42.351  29.2140  0.00  0.00     0.000 O
ATOM     37   O  A00 X   2      16.298  42.205  28.8920  0.00  0.00     0.000 OA
ATOM     38   S  A00 X   2      15.099  41.603  28.3940  0.00  0.00     0.000 S
ATOM     39   O  A00 X   2      14.909  40.204  28.6350  0.00  0.00     0.000 OA
ENDBRANCH 24 34
BRANCH 20 40
ATOM     40  O4  A00 X   3      16.182  43.763  33.1590  0.00  0.00     0.000 O
BRANCH 40 44
ATOM     41  C1  A00 X   3      17.266  40.383  33.8820  0.00  0.00     0.000 C
ATOM     42  C2  A00 X   3      17.229  41.534  34.9110  0.00  0.00     0.000 C
ATOM     43  C3  A00 X   3      17.951  42.792  34.3630  0.00  0.00     0.000 C
ATOM     44  C4  A00 X   3      17.507  43.221  32.9700  0.00  0.00     0.000 C
ATOM     45  C5  A00 X   3      17.577  42.013  31.9940  0.00  0.00     0.000 C
ATOM     46  O5  A00 X   3      16.892  40.846  32.5550  0.00  0.00     0.000 O
ATOM     47   O  A00 X   3      18.054  43.893  35.2640  0.00  0.00     0.000 O
ATOM     49  HD  A00 X   3      17.897  44.350  34.5450  0.00  0.00     0.000 HD
BRANCH 42 49
ATOM     49   O  A00 X   3      15.838  41.805  35.1930  0.00  0.00     0.000 O
ATOM     50   O  A00 X   3      14.613  43.374  36.5220  0.00  0.00     0.000 OA
ATOM     51   O  A00 X   3      16.574  42.404  37.4190  0.00  0.00     0.000 OA
ATOM     52   O  A00 X   3      14.686  41.023  37.0840  0.00  0.00     0.000 OA
ATOM     53   S  A00 X   3      15.386  42.177  36.6350  0.00  0.00     0.000 S
ENDBRANCH 42 49
BRANCH 45 54
ATOM     54   C  A00 X   3      19.017  41.716  31.5600  0.00  0.00     0.000 C
ATOM     55   O  A00 X   3      19.951  42.296  32.0760  0.00  0.00     0.000 OA
ATOM     56   O  A00 X   3      19.251  40.893  30.6890  0.00  0.00     0.000 OA
ENDBRANCH 45 54
BRANCH 41 57
ATOM     57  O4  A00 X   4      18.523  39.672  33.9230  0.00  0.00     0.000 O
BRANCH 57 61
ATOM     58  C1  A00 X   4      19.580  35.533  33.2940  0.00  0.00     0.000 C
ATOM     59  C2  A00 X   4      18.941  36.321  32.1240  0.00  0.00     0.000 C
ATOM     60  C3  A00 X   4      18.941  37.849  32.3380  0.00  0.00     0.000 C
ATOM     61  C4  A00 X   4      18.424  38.230  33.7420  0.00  0.00     0.000 C
ATOM     62  C5  A00 X   4      19.338  37.498  34.7560  0.00  0.00     0.000 C
ATOM     63  O5  A00 X   4      19.193  36.066  34.5810  0.00  0.00     0.000 O
BRANCH 59 66
ATOM     64   N  A00 X   4      17.552  35.827  32.1560  0.00  0.00     0.000 N
ATOM     66  HD  A00 X   4      17.264  35.494  32.9010  0.00  0.00     0.000 HD
ATOM     66   O  A00 X   4      18.269  34.021  30.7330  0.00  0.00     0.000 OA
ATOM     67   S  A00 X   4      17.096  34.779  31.0370  0.00  0.00     0.000 S
ATOM     68   O  A00 X   4      16.071  34.072  31.7480  0.00  0.00     0.000 OA
ATOM     69   O  A00 X   4      16.602  35.679  30.0340  0.00  0.00     0.000 OA
ENDBRANCH 59 66
BRANCH 62 70
ATOM     70   C  A00 X   4      19.044  37.845  36.2360  0.00  0.00     0.000 C
ATOM     71   O  A00 X   4      16.152  36.973  38.2320  0.00  0.00     0.000 OA
ATOM     72   O  A00 X   4      17.231  39.042  37.9160  0.00  0.00     0.000 OA
ATOM     73   O  A00 X   4      17.907  37.090  36.6840  0.00  0.00     0.000 O
ATOM     74   O  A00 X   4      15.807  38.146  36.1540  0.00  0.00     0.000 OA
ATOM     75   S  A00 X   4      16.679  37.882  37.2530  0.00  0.00     0.000 S
ENDBRANCH 62 70
ENDBRANCH 57 61
ENDBRANCH 41 57
ENDBRANCH 40 44
ENDBRANCH 20 40
ENDBRANCH 19 23
ENDBRANCH 1 19
TORSDOF 14
ENDMDL
MODEL 72
REMARK VINA RESULT:      -0.7     57.831     62.594
ROOT
ATOM      1  C1  A00 X   1      46.827  52.351  48.3390  0.00  0.00     0.000 C
ATOM      2  C2  A00 X   1      46.632  53.861  48.0370  0.00  0.00     0.000 C
ATOM      3  C3  A00 X   1      46.025  54.210  46.6390  0.00  0.00     0.000 C
ATOM      4  C4  A00 X   1      46.036  53.059  45.5990  0.00  0.00     0.000 C
ATOM      5  C5  A00 X   1      47.093  52.003  45.9190  0.00  0.00     0.000 C
ATOM      6  O5  A00 X   1      46.698  51.464  47.2010  0.00  0.00     0.000 O
ATOM      7   O  A00 X   1      46.776  55.278  46.0670  0.00  0.00     0.000 O
ATOM      9  HD  A00 X   1      46.612  54.714  45.4320  0.00  0.00     0.000 HD
ATOM      9   O  A00 X   1      44.754  52.441  45.4910  0.00  0.00     0.000 O
ATOM     11  HD  A00 X   1      44.589  51.877  44.8560  0.00  0.00     0.000 HD
ENDROOT
BRANCH 2 11
ATOM     11   O  A00 X   1      45.785  54.408  49.0660  0.00  0.00     0.000 O
ATOM     12   O  A00 X   1      44.936  56.652  48.9540  0.00  0.00     0.000 OA
ATOM     13   O  A00 X   1      47.335  56.294  49.1390  0.00  0.00     0.000 OA
ATOM     14   O  A00 X   1      45.895  55.771  50.9580  0.00  0.00     0.000 OA
ATOM     15   S  A00 X   1      46.013  55.888  49.5300  0.00  0.00     0.000 S
ENDBRANCH 2 11
BRANCH 5 16
ATOM     16   C  A00 X   1      48.541  52.504  45.8850  0.00  0.00     0.000 C
ATOM     17   O  A00 X   1      49.414  51.789  46.3330  0.00  0.00     0.000 OA
ATOM     18   O  A00 X   1      48.846  53.585  45.4220  0.00  0.00     0.000 OA
ENDBRANCH 5 16
BRANCH 1 19
ATOM     19  O4  A00 X   2      48.038  52.080  49.0860  0.00  0.00     0.000 O
BRANCH 19 23
ATOM     20  C1  A00 X   2      46.234  49.039  51.5070  0.00  0.00     0.000 C
ATOM     21  C2  A00 X   2      46.332  50.463  52.1050  0.00  0.00     0.000 C
ATOM     22  C3  A00 X   2      46.588  51.507  50.9980  0.00  0.00     0.000 C
ATOM     23  C4  A00 X   2      47.828  51.120  50.1610  0.00  0.00     0.000 C
ATOM     24  C5  A00 X   2      47.615  49.674  49.6370  0.00  0.00     0.000 C
ATOM     25  O5  A00 X   2      47.461  48.783  50.7730  0.00  0.00     0.000 O
ATOM     26   O  A00 X   2      46.603  52.816  51.5930  0.00  0.00     0.000 O
ATOM     28  HD  A00 X   2      47.164  52.584  52.2110  0.00  0.00     0.000 HD
BRANCH 21 30
ATOM     28   N  A00 X   2      46.540  49.855  53.4230  0.00  0.00     0.000 N
ATOM     30  HD  A00 X   2      46.337  50.686  53.5590  0.00  0.00     0.000 HD
ATOM     30   O  A00 X   2      45.618  51.275  55.0320  0.00  0.00     0.000 OA
ATOM     31   S  A00 X   2      46.896  50.794  54.6430  0.00  0.00     0.000 S
ATOM     32   O  A00 X   2      47.520  49.910  55.5800  0.00  0.00     0.000 OA
ATOM     33   O  A00 X   2      47.839  51.763  54.1710  0.00  0.00     0.000 OA
ENDBRANCH 21 30
BRANCH 24 34
ATOM     34   C  A00 X   2      48.607  49.130  48.5820  0.00  0.00     0.000 C
ATOM     35   O  A00 X   2      52.207  48.913  49.0890  0.00  0.00     0.000 OA
ATOM     36   O  A00 X   2      49.965  49.489  48.9090  0.00  0.00     0.000 O
ATOM     37   O  A00 X   2      50.608  47.923  50.5230  0.00  0.00     0.000 OA
ATOM     38   S  A00 X   2      50.933  48.278  49.1750  0.00  0.00     0.000 S
ATOM     39   O  A00 X   2      50.665  47.313  48.1520  0.00  0.00     0.000 OA
ENDBRANCH 24 34
BRANCH 20 40
ATOM     40  O4  A00 X   3      45.127  49.077  50.5930  0.00  0.00     0.000 O
BRANCH 40 44
ATOM     41  C1  A00 X   3      43.797  48.178  47.3460  0.00  0.00     0.000 C
ATOM     42  C2  A00 X   3      43.037  48.996  48.4130  0.00  0.00     0.000 C
ATOM     43  C3  A00 X   3      43.069  48.281  49.7880  0.00  0.00     0.000 C
ATOM     44  C4  A00 X   3      44.456  47.848  50.2440  0.00  0.00     0.000 C
ATOM     45  C5  A00 X   3      45.153  47.027  49.1230  0.00  0.00     0.000 C
ATOM     46  O5  A00 X   3      45.090  47.734  47.8420  0.00  0.00     0.000 O
ATOM     47   O  A00 X   3      42.324  48.905  50.8320  0.00  0.00     0.000 O
ATOM     49  HD  A00 X   3      43.002  48.659  51.3100  0.00  0.00     0.000 HD
BRANCH 42 49
ATOM     49   O  A00 X   3      43.667  50.294  48.4780  0.00  0.00     0.000 O
ATOM     50   O  A00 X   3      43.405  52.284  49.7830  0.00  0.00     0.000 OA
ATOM     51   O  A00 X   3      41.472  51.152  49.0280  0.00  0.00     0.000 OA
ATOM     52   O  A00 X   3      42.843  52.228  47.4310  0.00  0.00     0.000 OA
ATOM     53   S  A00 X   3      42.809  51.575  48.6940  0.00  0.00     0.000 S
ENDBRANCH 42 49
BRANCH 45 54
ATOM     54   C  A00 X   3      44.612  45.594  49.0480  0.00  0.00     0.000 C
ATOM     55   O  A00 X   3      45.177  44.753  48.3790  0.00  0.00     0.000 OA
ATOM     56   O  A00 X   3      43.604  45.274  49.6580  0.00  0.00     0.000 OA
ENDBRANCH 45 54
BRANCH 41 57
ATOM     57  O4  A00 X   4      42.979  47.115  46.8060  0.00  0.00     0.000 O
BRANCH 57 61
ATOM     58  C1  A00 X   4      42.741  45.281  42.9050  0.00  0.00     0.000 C
ATOM     59  C2  A00 X   4      44.071  45.177  43.6940  0.00  0.00     0.000 C
ATOM     60  C3  A00 X   4      43.931  45.541  45.1860  0.00  0.00     0.000 C
ATOM     61  C4  A00 X   4      43.156  46.861  45.3840  0.00  0.00     0.000 C
ATOM     62  C5  A00 X   4      41.780  46.666  44.6990  0.00  0.00     0.000 C
ATOM     63  O5  A00 X   4      41.980  46.453  43.2780  0.00  0.00     0.000 O
BRANCH 59 66
ATOM     64   N  A00 X   4      45.049  46.131  43.1400  0.00  0.00     0.000 N
ATOM     66  HD  A00 X   4      44.739  46.843  42.7560  0.00  0.00     0.000 HD
ATOM     66   O  A00 X   4      45.535  44.493  41.4430  0.00  0.00     0.000 OA
ATOM     67   S  A00 X   4      46.162  45.576  42.1340  0.00  0.00     0.000 S
ATOM     68   O  A00 X   4      46.407  46.750  41.3480  0.00  0.00     0.000 OA
ATOM     69   O  A00 X   4      47.209  45.261  43.0640  0.00  0.00     0.000 OA
ENDBRANCH 59 66
BRANCH 62 70
ATOM     70   C  A00 X   4      40.807  47.855  44.8850  0.00  0.00     0.000 C
ATOM     71   O  A00 X   4      41.025  51.193  43.5020  0.00  0.00     0.000 OA
ATOM     72   O  A00 X   4      40.631  50.469  45.7080  0.00  0.00     0.000 OA
ATOM     73   O  A00 X   4      41.152  48.900  43.9610  0.00  0.00     0.000 O
ATOM     74   O  A00 X   4      42.884  50.355  44.7880  0.00  0.00     0.000 OA
ATOM     75   S  A00 X   4      41.478  50.318  44.5460  0.00  0.00     0.000 S
ENDBRANCH 62 70
ENDBRANCH 57 61
ENDBRANCH 41 57
ENDBRANCH 40 44
ENDBRANCH 20 40
ENDBRANCH 19 23
ENDBRANCH 1 19
TORSDOF 14
ENDMDL
MODEL 73
REMARK VINA RESULT:      -0.7     44.797     49.620
ROOT
ATOM      1  C1  A00 X   1      50.259  37.816  22.1140  0.00  0.00     0.000 C
ATOM      2  C2  A00 X   1      48.957  37.140  22.6180  0.00  0.00     0.000 C
ATOM      3  C3  A00 X   1      49.040  36.445  24.0170  0.00  0.00     0.000 C
ATOM      4  C4  A00 X   1      50.472  36.196  24.5560  0.00  0.00     0.000 C
ATOM      5  C5  A00 X   1      51.512  36.164  23.4360  0.00  0.00     0.000 C
ATOM      6  O5  A00 X   1      51.462  37.485  22.8510  0.00  0.00     0.000 O
ATOM      7   O  A00 X   1      48.411  35.168  23.9310  0.00  0.00     0.000 O
ATOM      9  HD  A00 X   1      49.129  35.068  24.4050  0.00  0.00     0.000 HD
ATOM      9   O  A00 X   1      50.840  37.173  25.5290  0.00  0.00     0.000 O
ATOM     11  HD  A00 X   1      51.558  37.073  26.0030  0.00  0.00     0.000 HD
ENDROOT
BRANCH 2 11
ATOM     11   O  A00 X   1      47.926  38.146  22.6540  0.00  0.00     0.000 O
ATOM     12   O  A00 X   1      45.668  37.629  23.2890  0.00  0.00     0.000 OA
ATOM     13   O  A00 X   1      46.597  36.627  21.2770  0.00  0.00     0.000 OA
ATOM     14   O  A00 X   1      46.157  38.962  21.3670  0.00  0.00     0.000 OA
ATOM     15   S  A00 X   1      46.496  37.786  22.1200  0.00  0.00     0.000 S
ENDBRANCH 2 11
BRANCH 5 16
ATOM     16   C  A00 X   1      51.333  35.035  22.4170  0.00  0.00     0.000 C
ATOM     17   O  A00 X   1      51.990  35.063  21.3970  0.00  0.00     0.000 OA
ATOM     18   O  A00 X   1      50.563  34.112  22.5960  0.00  0.00     0.000 OA
ENDBRANCH 5 16
BRANCH 1 19
ATOM     19  O4  A00 X   2      50.455  37.664  20.6870  0.00  0.00     0.000 O
BRANCH 19 23
ATOM     20  C1  A00 X   2      52.102  41.589  20.1840  0.00  0.00     0.000 C
ATOM     21  C2  A00 X   2      50.601  41.396  19.8560  0.00  0.00     0.000 C
ATOM     22  C3  A00 X   2      50.065  40.091  20.4820  0.00  0.00     0.000 C
ATOM     23  C4  A00 X   2      50.933  38.886  20.0550  0.00  0.00     0.000 C
ATOM     24  C5  A00 X   2      52.407  39.210  20.4190  0.00  0.00     0.000 C
ATOM     25  O5  A00 X   2      52.810  40.412  19.7120  0.00  0.00     0.000 O
ATOM     26   O  A00 X   2      48.657  39.993  20.2090  0.00  0.00     0.000 O
ATOM     28  HD  A00 X   2      48.760  40.145  19.3620  0.00  0.00     0.000 HD
BRANCH 21 30
ATOM     28   N  A00 X   2      50.747  42.387  18.7860  0.00  0.00     0.000 N
ATOM     30  HD  A00 X   2      49.898  42.295  18.9290  0.00  0.00     0.000 HD
ATOM     30   O  A00 X   2      48.718  43.526  18.5680  0.00  0.00     0.000 OA
ATOM     31   S  A00 X   2      49.527  42.637  17.8120  0.00  0.00     0.000 S
ATOM     32   O  A00 X   2      50.133  43.211  16.6510  0.00  0.00     0.000 OA
ATOM     33   O  A00 X   2      48.967  41.356  17.4980  0.00  0.00     0.000 OA
ENDBRANCH 21 30
BRANCH 24 34
ATOM     34   C  A00 X   2      53.450  38.072  20.3040  0.00  0.00     0.000 C
ATOM     35   O  A00 X   2      56.316  38.149  18.0610  0.00  0.00     0.000 OA
ATOM     36   O  A00 X   2      54.248  38.213  19.1120  0.00  0.00     0.000 O
ATOM     37   O  A00 X   2      55.855  39.816  19.6740  0.00  0.00     0.000 OA
ATOM     38   S  A00 X   2      55.787  38.422  19.3560  0.00  0.00     0.000 S
ATOM     39   O  A00 X   2      56.166  37.491  20.3760  0.00  0.00     0.000 OA
ENDBRANCH 24 34
BRANCH 20 40
ATOM     40  O4  A00 X   3      52.180  41.654  21.6150  0.00  0.00     0.000 O
BRANCH 40 44
ATOM     41  C1  A00 X   3      53.897  40.647  24.6430  0.00  0.00     0.000 C
ATOM     42  C2  A00 X   3      52.630  41.530  24.6010  0.00  0.00     0.000 C
ATOM     43  C3  A00 X   3      52.811  42.713  23.6150  0.00  0.00     0.000 C
ATOM     44  C4  A00 X   3      53.307  42.314  22.2310  0.00  0.00     0.000 C
ATOM     45  C5  A00 X   3      54.583  41.434  22.3560  0.00  0.00     0.000 C
ATOM     46  O5  A00 X   3      54.371  40.338  23.3030  0.00  0.00     0.000 O
ATOM     47   O  A00 X   3      51.734  43.647  23.5590  0.00  0.00     0.000 O
ATOM     49  HD  A00 X   3      51.918  43.637  22.7130  0.00  0.00     0.000 HD
BRANCH 42 49
ATOM     49   O  A00 X   3      51.533  40.677  24.2070  0.00  0.00     0.000 O
ATOM     50   O  A00 X   3      49.202  40.959  23.7390  0.00  0.00     0.000 OA
ATOM     51   O  A00 X   3      50.143  42.108  25.5780  0.00  0.00     0.000 OA
ATOM     52   O  A00 X   3      49.965  39.754  25.6920  0.00  0.00     0.000 OA
ATOM     53   S  A00 X   3      50.121  40.875  24.8310  0.00  0.00     0.000 S
ENDBRANCH 42 49
BRANCH 45 54
ATOM     54   C  A00 X   3      55.824  42.276  22.6760  0.00  0.00     0.000 C
ATOM     55   O  A00 X   3      55.721  43.459  22.9280  0.00  0.00     0.000 OA
ATOM     56   O  A00 X   3      56.936  41.773  22.6820  0.00  0.00     0.000 OA
ENDBRANCH 45 54
BRANCH 41 57
ATOM     57  O4  A00 X   4      54.909  41.207  25.5090  0.00  0.00     0.000 O
BRANCH 57 61
ATOM     58  C1  A00 X   4      57.888  39.428  28.0780  0.00  0.00     0.000 C
ATOM     59  C2  A00 X   4      57.955  39.143  26.5570  0.00  0.00     0.000 C
ATOM     60  C3  A00 X   4      57.086  40.097  25.7140  0.00  0.00     0.000 C
ATOM     61  C4  A00 X   4      55.660  40.234  26.2900  0.00  0.00     0.000 C
ATOM     62  C5  A00 X   4      55.826  40.731  27.7480  0.00  0.00     0.000 C
ATOM     63  O5  A00 X   4      56.543  39.729  28.5140  0.00  0.00     0.000 O
BRANCH 59 66
ATOM     64   N  A00 X   4      57.505  37.812  26.1120  0.00  0.00     0.000 N
ATOM     66  HD  A00 X   4      56.871  37.432  26.5630  0.00  0.00     0.000 HD
ATOM     66   O  A00 X   4      59.618  36.950  26.8820  0.00  0.00     0.000 OA
ATOM     67   S  A00 X   4      58.605  36.667  25.9130  0.00  0.00     0.000 S
ATOM     68   O  A00 X   4      57.813  35.500  26.1720  0.00  0.00     0.000 OA
ATOM     69   O  A00 X   4      58.928  36.864  24.5290  0.00  0.00     0.000 OA
ENDBRANCH 59 66
BRANCH 62 70
ATOM     70   C  A00 X   4      54.490  41.036  28.4670  0.00  0.00     0.000 C
ATOM     71   O  A00 X   4      51.932  38.722  29.5650  0.00  0.00     0.000 OA
ATOM     72   O  A00 X   4      51.767  40.714  28.3200  0.00  0.00     0.000 OA
ATOM     73   O  A00 X   4      53.909  39.807  28.9320  0.00  0.00     0.000 O
ATOM     74   O  A00 X   4      52.598  38.689  27.2480  0.00  0.00     0.000 OA
ATOM     75   S  A00 X   4      52.461  39.451  28.4470  0.00  0.00     0.000 S
ENDBRANCH 62 70
ENDBRANCH 57 61
ENDBRANCH 41 57
ENDBRANCH 40 44
ENDBRANCH 20 40
ENDBRANCH 19 23
ENDBRANCH 1 19
TORSDOF 14
ENDMDL
MODEL 74
REMARK VINA RESULT:      -0.7     22.789     27.203
ROOT
ATOM      1  C1  A00 X   1      27.485  32.878  10.4120  0.00  0.00     0.000 C
ATOM      2  C2  A00 X   1      28.243  32.024   9.3610  0.00  0.00     0.000 C
ATOM      3  C3  A00 X   1      29.757  31.759   9.6530  0.00  0.00     0.000 C
ATOM      4  C4  A00 X   1      30.397  32.665  10.7360  0.00  0.00     0.000 C
ATOM      5  C5  A00 X   1      29.627  33.972  10.9240  0.00  0.00     0.000 C
ATOM      6  O5  A00 X   1      28.318  33.564  11.3800  0.00  0.00     0.000 O
ATOM      7   O  A00 X   1      30.499  31.973   8.4550  0.00  0.00     0.000 O
ATOM      9  HD  A00 X   1      30.957  32.318   9.1040  0.00  0.00     0.000 HD
ATOM      9   O  A00 X   1      30.509  31.986  11.9860  0.00  0.00     0.000 O
ATOM     11  HD  A00 X   1      30.967  32.331  12.6350  0.00  0.00     0.000 HD
ENDROOT
BRANCH 2 11
ATOM     11   O  A00 X   1      27.559  30.761   9.2460  0.00  0.00     0.000 O
ATOM     12   O  A00 X   1      28.243  29.086   7.6670  0.00  0.00     0.000 OA
ATOM     13   O  A00 X   1      27.415  31.222   6.8510  0.00  0.00     0.000 OA
ATOM     14   O  A00 X   1      25.948  29.696   7.9340  0.00  0.00     0.000 OA
ATOM     15   S  A00 X   1      27.302  30.166   7.8190  0.00  0.00     0.000 S
ENDBRANCH 2 11
BRANCH 5 16
ATOM     16   C  A00 X   1      29.591  34.886   9.6950  0.00  0.00     0.000 C
ATOM     17   O  A00 X   1      28.842  35.841   9.7030  0.00  0.00     0.000 OA
ATOM     18   O  A00 X   1      30.288  34.693   8.7190  0.00  0.00     0.000 OA
ENDBRANCH 5 16
BRANCH 1 19
ATOM     19  O4  A00 X   2      26.520  33.777   9.8140  0.00  0.00     0.000 O
BRANCH 19 23
ATOM     20  C1  A00 X   2      23.661  33.296  12.9710  0.00  0.00     0.000 C
ATOM     21  C2  A00 X   2      23.455  32.458  11.6860  0.00  0.00     0.000 C
ATOM     22  C3  A00 X   2      24.751  32.404  10.8500  0.00  0.00     0.000 C
ATOM     23  C4  A00 X   2      25.269  33.831  10.5590  0.00  0.00     0.000 C
ATOM     24  C5  A00 X   2      25.416  34.569  11.9180  0.00  0.00     0.000 C
ATOM     25  O5  A00 X   2      24.118  34.614  12.5670  0.00  0.00     0.000 O
ATOM     26   O  A00 X   2      24.529  31.561   9.7070  0.00  0.00     0.000 O
ATOM     28  HD  A00 X   2      23.798  31.970   9.4850  0.00  0.00     0.000 HD
BRANCH 21 30
ATOM     28   N  A00 X   2      22.007  32.594  11.8750  0.00  0.00     0.000 N
ATOM     30  HD  A00 X   2      22.126  31.953  11.3050  0.00  0.00     0.000 HD
ATOM     30   O  A00 X   2      20.980  30.668  11.0430  0.00  0.00     0.000 OA
ATOM     31   S  A00 X   2      21.041  32.055  10.7460  0.00  0.00     0.000 S
ATOM     32   O  A00 X   2      19.825  32.774  10.9700  0.00  0.00     0.000 OA
ATOM     33   O  A00 X   2      21.613  32.425   9.4860  0.00  0.00     0.000 OA
ENDBRANCH 21 30
BRANCH 24 34
ATOM     34   C  A00 X   2      26.136  35.938  11.9270  0.00  0.00     0.000 C
ATOM     35   O  A00 X   2      24.540  39.077  12.8520  0.00  0.00     0.000 OA
ATOM     36   O  A00 X   2      25.191  37.025  11.9840  0.00  0.00     0.000 O
ATOM     37   O  A00 X   2      24.602  37.166  14.2430  0.00  0.00     0.000 OA
ATOM     38   S  A00 X   2      25.296  37.939  13.2590  0.00  0.00     0.000 S
ATOM     39   O  A00 X   2      26.692  38.181  13.4690  0.00  0.00     0.000 OA
ENDBRANCH 24 34
BRANCH 20 40
ATOM     40  O4  A00 X   3      24.700  32.631  13.7040  0.00  0.00     0.000 O
BRANCH 40 44
ATOM     41  C1  A00 X   3      27.735  32.905  15.6640  0.00  0.00     0.000 C
ATOM     42  C2  A00 X   3      27.050  31.575  15.2830  0.00  0.00     0.000 C
ATOM     43  C3  A00 X   3      25.542  31.603  15.6420  0.00  0.00     0.000 C
ATOM     44  C4  A00 X   3      24.793  32.828  15.1320  0.00  0.00     0.000 C
ATOM     45  C5  A00 X   3      25.538  34.124  15.5580  0.00  0.00     0.000 C
ATOM     46  O5  A00 X   3      26.959  34.049  15.2100  0.00  0.00     0.000 O
ATOM     47   O  A00 X   3      24.824  30.392  15.4130  0.00  0.00     0.000 O
ATOM     49  HD  A00 X   3      24.205  30.940  15.1540  0.00  0.00     0.000 HD
BRANCH 42 49
ATOM     49   O  A00 X   3      27.252  31.386  13.8650  0.00  0.00     0.000 O
ATOM     50   O  A00 X   3      26.606  29.767  12.2240  0.00  0.00     0.000 OA
ATOM     51   O  A00 X   3      27.305  29.016  14.3530  0.00  0.00     0.000 OA
ATOM     52   O  A00 X   3      28.907  30.009  12.9270  0.00  0.00     0.000 OA
ATOM     53   S  A00 X   3      27.533  29.966  13.2930  0.00  0.00     0.000 S
ENDBRANCH 42 49
BRANCH 45 54
ATOM     54   C  A00 X   3      25.296  34.458  17.0350  0.00  0.00     0.000 C
ATOM     55   O  A00 X   3      25.656  35.521  17.4960  0.00  0.00     0.000 OA
ATOM     56   O  A00 X   3      24.739  33.660  17.7740  0.00  0.00     0.000 OA
ENDBRANCH 45 54
BRANCH 41 57
ATOM     57  O4  A00 X   4      28.076  32.947  17.0680  0.00  0.00     0.000 O
BRANCH 57 61
ATOM     58  C1  A00 X   4      31.348  34.733  19.2450  0.00  0.00     0.000 C
ATOM     59  C2  A00 X   4      30.396  35.658  18.4480  0.00  0.00     0.000 C
ATOM     60  C3  A00 X   4      29.084  34.969  18.0200  0.00  0.00     0.000 C
ATOM     61  C4  A00 X   4      29.345  33.590  17.3760  0.00  0.00     0.000 C
ATOM     62  C5  A00 X   4      30.125  32.760  18.4260  0.00  0.00     0.000 C
ATOM     63  O5  A00 X   4      31.400  33.399  18.6880  0.00  0.00     0.000 O
BRANCH 59 66
ATOM     64   N  A00 X   4      31.037  36.093  17.1940  0.00  0.00     0.000 N
ATOM     66  HD  A00 X   4      31.629  35.567  16.8440  0.00  0.00     0.000 HD
ATOM     66   O  A00 X   4      32.176  37.781  18.4800  0.00  0.00     0.000 OA
ATOM     67   S  A00 X   4      31.707  37.545  17.1500  0.00  0.00     0.000 S
ATOM     68   O  A00 X   4      32.727  37.330  16.1650  0.00  0.00     0.000 OA
ATOM     69   O  A00 X   4      30.595  38.323  16.6850  0.00  0.00     0.000 OA
ENDBRANCH 59 66
BRANCH 62 70
ATOM     70   C  A00 X   4      30.387  31.294  18.0050  0.00  0.00     0.000 C
ATOM     71   O  A00 X   4      32.600  30.044  15.4260  0.00  0.00     0.000 OA
ATOM     72   O  A00 X   4      30.342  29.555  15.8800  0.00  0.00     0.000 OA
ATOM     73   O  A00 X   4      31.516  31.250  17.1170  0.00  0.00     0.000 O
ATOM     74   O  A00 X   4      30.926  31.670  14.8190  0.00  0.00     0.000 OA
ATOM     75   S  A00 X   4      31.310  30.613  15.6990  0.00  0.00     0.000 S
ENDBRANCH 62 70
ENDBRANCH 57 61
ENDBRANCH 41 57
ENDBRANCH 40 44
ENDBRANCH 20 40
ENDBRANCH 19 23
ENDBRANCH 1 19
TORSDOF 14
ENDMDL
MODEL 75
REMARK VINA RESULT:      -0.7     52.729     57.264
ROOT
ATOM      1  C1  A00 X   1      46.433  34.716  47.5260  0.00  0.00     0.000 C
ATOM      2  C2  A00 X   1      45.193  34.269  46.7060  0.00  0.00     0.000 C
ATOM      3  C3  A00 X   1      43.844  34.980  47.0570  0.00  0.00     0.000 C
ATOM      4  C4  A00 X   1      43.827  35.756  48.3990  0.00  0.00     0.000 C
ATOM      5  C5  A00 X   1      44.897  35.256  49.3700  0.00  0.00     0.000 C
ATOM      6  O5  A00 X   1      46.151  35.517  48.7010  0.00  0.00     0.000 O
ATOM      7   O  A00 X   1      42.818  33.994  47.1470  0.00  0.00     0.000 O
ATOM      9  HD  A00 X   1      42.694  34.552  47.7980  0.00  0.00     0.000 HD
ATOM      9   O  A00 X   1      43.983  37.160  48.1920  0.00  0.00     0.000 O
ATOM     11  HD  A00 X   1      43.859  37.718  48.8420  0.00  0.00     0.000 HD
ENDROOT
BRANCH 2 11
ATOM     11   O  A00 X   1      45.488  34.485  45.3130  0.00  0.00     0.000 O
ATOM     12   O  A00 X   1      43.998  33.765  43.5730  0.00  0.00     0.000 OA
ATOM     13   O  A00 X   1      45.052  32.102  45.0010  0.00  0.00     0.000 OA
ATOM     14   O  A00 X   1      46.351  33.361  43.4570  0.00  0.00     0.000 OA
ATOM     15   S  A00 X   1      45.177  33.342  44.2860  0.00  0.00     0.000 S
ENDBRANCH 2 11
BRANCH 5 16
ATOM     16   C  A00 X   1      44.733  33.800  49.8190  0.00  0.00     0.000 C
ATOM     17   O  A00 X   1      45.638  33.277  50.4370  0.00  0.00     0.000 OA
ATOM     18   O  A00 X   1      43.731  33.154  49.5850  0.00  0.00     0.000 OA
ENDBRANCH 5 16
BRANCH 1 19
ATOM     19  O4  A00 X   2      47.325  33.618  47.8380  0.00  0.00     0.000 O
BRANCH 19 23
ATOM     20  C1  A00 X   2      50.874  35.985  47.4280  0.00  0.00     0.000 C
ATOM     21  C2  A00 X   2      50.452  35.116  46.2190  0.00  0.00     0.000 C
ATOM     22  C3  A00 X   2      48.977  34.680  46.3440  0.00  0.00     0.000 C
ATOM     23  C4  A00 X   2      48.729  33.983  47.7010  0.00  0.00     0.000 C
ATOM     24  C5  A00 X   2      49.208  34.944  48.8230  0.00  0.00     0.000 C
ATOM     25  O5  A00 X   2      50.621  35.216  48.6340  0.00  0.00     0.000 O
ATOM     26   O  A00 X   2      48.614  33.936  45.1680  0.00  0.00     0.000 O
ATOM     28  HD  A00 X   2      49.304  33.415  45.2250  0.00  0.00     0.000 HD
BRANCH 21 30
ATOM     28   N  A00 X   2      51.872  34.907  45.9210  0.00  0.00     0.000 N
ATOM     30  HD  A00 X   2      51.431  34.673  45.2140  0.00  0.00     0.000 HD
ATOM     30   O  A00 X   2      52.105  34.680  43.6080  0.00  0.00     0.000 OA
ATOM     31   S  A00 X   2      52.266  33.891  44.7770  0.00  0.00     0.000 S
ATOM     32   O  A00 X   2      53.617  33.539  45.0860  0.00  0.00     0.000 OA
ATOM     33   O  A00 X   2      51.411  32.749  44.9120  0.00  0.00     0.000 OA
ENDBRANCH 21 30
BRANCH 24 34
ATOM     34   C  A00 X   2      48.860  34.582  50.2860  0.00  0.00     0.000 C
ATOM     35   O  A00 X   2      51.340  33.900  52.8640  0.00  0.00     0.000 OA
ATOM     36   O  A00 X   2      50.000  34.027  50.9720  0.00  0.00     0.000 O
ATOM     37   O  A00 X   2      51.270  35.892  51.5900  0.00  0.00     0.000 OA
ATOM     38   S  A00 X   2      50.505  34.854  52.2110  0.00  0.00     0.000 S
ATOM     39   O  A00 X   2      49.336  35.240  52.9430  0.00  0.00     0.000 OA
ENDBRANCH 24 34
BRANCH 20 40
ATOM     40  O4  A00 X   3      50.012  37.132  47.4010  0.00  0.00     0.000 O
BRANCH 40 44
ATOM     41  C1  A00 X   3      47.954  39.494  49.2190  0.00  0.00     0.000 C
ATOM     42  C2  A00 X   3      48.151  39.495  47.6880  0.00  0.00     0.000 C
ATOM     43  C3  A00 X   3      49.656  39.453  47.3210  0.00  0.00     0.000 C
ATOM     44  C4  A00 X   3      50.449  38.359  48.0250  0.00  0.00     0.000 C
ATOM     45  C5  A00 X   3      50.204  38.426  49.5590  0.00  0.00     0.000 C
ATOM     46  O5  A00 X   3      48.771  38.474  49.8570  0.00  0.00     0.000 O
ATOM     47   O  A00 X   3      49.962  39.537  45.9310  0.00  0.00     0.000 O
ATOM     49  HD  A00 X   3      50.565  38.954  46.1430  0.00  0.00     0.000 HD
BRANCH 42 49
ATOM     49   O  A00 X   3      47.449  38.343  47.1700  0.00  0.00     0.000 O
ATOM     50   O  A00 X   3      47.141  37.319  45.0280  0.00  0.00     0.000 OA
ATOM     51   O  A00 X   3      47.053  39.677  45.1900  0.00  0.00     0.000 OA
ATOM     52   O  A00 X   3      45.320  38.413  46.1830  0.00  0.00     0.000 OA
ATOM     53   S  A00 X   3      46.693  38.427  45.8130  0.00  0.00     0.000 S
ENDBRANCH 42 49
BRANCH 45 54
ATOM     54   C  A00 X   3      50.995  39.567  50.2100  0.00  0.00     0.000 C
ATOM     55   O  A00 X   3      51.078  39.651  51.4180  0.00  0.00     0.000 OA
ATOM     56   O  A00 X   3      51.553  40.411  49.5260  0.00  0.00     0.000 OA
ENDBRANCH 45 54
BRANCH 41 57
ATOM     57  O4  A00 X   4      48.121  40.816  49.7790  0.00  0.00     0.000 O
BRANCH 57 61
ATOM     58  C1  A00 X   4      46.269  42.856  53.1040  0.00  0.00     0.000 C
ATOM     59  C2  A00 X   4      47.091  41.573  53.3850  0.00  0.00     0.000 C
ATOM     60  C3  A00 X   4      47.986  41.145  52.2050  0.00  0.00     0.000 C
ATOM     61  C4  A00 X   4      47.213  41.144  50.8690  0.00  0.00     0.000 C
ATOM     62  C5  A00 X   4      46.655  42.578  50.6880  0.00  0.00     0.000 C
ATOM     63  O5  A00 X   4      45.726  42.867  51.7640  0.00  0.00     0.000 O
BRANCH 59 66
ATOM     64   N  A00 X   4      46.201  40.424  53.6310  0.00  0.00     0.000 N
ATOM     66  HD  A00 X   4      45.421  40.433  53.2540  0.00  0.00     0.000 HD
ATOM     66   O  A00 X   4      45.969  41.216  55.8940  0.00  0.00     0.000 OA
ATOM     67   S  A00 X   4      45.915  39.998  55.1460  0.00  0.00     0.000 S
ATOM     68   O  A00 X   4      44.612  39.416  55.0100  0.00  0.00     0.000 OA
ATOM     69   O  A00 X   4      46.968  39.043  55.3440  0.00  0.00     0.000 OA
ENDBRANCH 59 66
BRANCH 62 70
ATOM     70   C  A00 X   4      45.933  42.810  49.3390  0.00  0.00     0.000 C
ATOM     71   O  A00 X   4      42.769  41.464  48.2070  0.00  0.00     0.000 OA
ATOM     72   O  A00 X   4      44.870  41.544  47.1460  0.00  0.00     0.000 OA
ATOM     73   O  A00 X   4      44.598  42.284  49.4180  0.00  0.00     0.000 O
ATOM     74   O  A00 X   4      44.482  39.928  48.9280  0.00  0.00     0.000 OA
ATOM     75   S  A00 X   4      44.172  41.203  48.3660  0.00  0.00     0.000 S
ENDBRANCH 62 70
ENDBRANCH 57 61
ENDBRANCH 41 57
ENDBRANCH 40 44
ENDBRANCH 20 40
ENDBRANCH 19 23
ENDBRANCH 1 19
TORSDOF 14
ENDMDL
MODEL 76
REMARK VINA RESULT:      -0.7     43.877     48.028
ROOT
ATOM      1  C1  A00 X   1      48.207  35.652  29.0010  0.00  0.00     0.000 C
ATOM      2  C2  A00 X   1      47.641  34.880  30.2230  0.00  0.00     0.000 C
ATOM      3  C3  A00 X   1      48.552  33.750  30.8050  0.00  0.00     0.000 C
ATOM      4  C4  A00 X   1      49.718  33.294  29.8910  0.00  0.00     0.000 C
ATOM      5  C5  A00 X   1      49.457  33.616  28.4190  0.00  0.00     0.000 C
ATOM      6  O5  A00 X   1      49.368  35.057  28.3680  0.00  0.00     0.000 O
ATOM      7   O  A00 X   1      47.752  32.596  31.0470  0.00  0.00     0.000 O
ATOM      9  HD  A00 X   1      48.499  32.322  30.7050  0.00  0.00     0.000 HD
ATOM      9   O  A00 X   1      50.958  33.873  30.2980  0.00  0.00     0.000 O
ATOM     11  HD  A00 X   1      51.705  33.599  29.9560  0.00  0.00     0.000 HD
ENDROOT
BRANCH 2 11
ATOM     11   O  A00 X   1      47.365  35.842  31.2590  0.00  0.00     0.000 O
ATOM     12   O  A00 X   1      46.708  35.174  33.4700  0.00  0.00     0.000 OA
ATOM     13   O  A00 X   1      45.251  34.665  31.5900  0.00  0.00     0.000 OA
ATOM     14   O  A00 X   1      45.568  36.914  32.2940  0.00  0.00     0.000 OA
ATOM     15   S  A00 X   1      46.146  35.600  32.2140  0.00  0.00     0.000 S
ENDBRANCH 2 11
BRANCH 5 16
ATOM     16   C  A00 X   1      48.247  32.904  27.8050  0.00  0.00     0.000 C
ATOM     17   O  A00 X   1      47.864  33.252  26.7070  0.00  0.00     0.000 OA
ATOM     18   O  A00 X   1      47.664  32.002  28.3740  0.00  0.00     0.000 OA
ENDBRANCH 5 16
BRANCH 1 19
ATOM     19  O4  A00 X   2      47.188  35.987  28.0270  0.00  0.00     0.000 O
BRANCH 19 23
ATOM     20  C1  A00 X   2      48.815  39.866  27.2060  0.00  0.00     0.000 C
ATOM     21  C2  A00 X   2      47.636  39.782  28.2060  0.00  0.00     0.000 C
ATOM     22  C3  A00 X   2      47.454  38.340  28.7210  0.00  0.00     0.000 C
ATOM     23  C4  A00 X   2      47.310  37.354  27.5400  0.00  0.00     0.000 C
ATOM     24  C5  A00 X   2      48.536  37.548  26.6070  0.00  0.00     0.000 C
ATOM     25  O5  A00 X   2      48.551  38.921  26.1350  0.00  0.00     0.000 O
ATOM     26   O  A00 X   2      46.396  38.328  29.6950  0.00  0.00     0.000 O
ATOM     28  HD  A00 X   2      45.848  38.755  29.1780  0.00  0.00     0.000 HD
BRANCH 21 30
ATOM     28   N  A00 X   2      47.166  41.076  27.7010  0.00  0.00     0.000 N
ATOM     30  HD  A00 X   2      46.755  40.935  28.4500  0.00  0.00     0.000 HD
ATOM     30   O  A00 X   2      46.121  42.206  29.4580  0.00  0.00     0.000 OA
ATOM     31   S  A00 X   2      45.774  41.628  28.2080  0.00  0.00     0.000 S
ATOM     32   O  A00 X   2      45.391  42.562  27.1960  0.00  0.00     0.000 OA
ATOM     33   O  A00 X   2      44.864  40.522  28.2350  0.00  0.00     0.000 OA
ENDBRANCH 21 30
BRANCH 24 34
ATOM     34   C  A00 X   2      48.752  36.523  25.4690  0.00  0.00     0.000 C
ATOM     35   O  A00 X   2      48.727  37.369  21.9280  0.00  0.00     0.000 OA
ATOM     36   O  A00 X   2      48.342  37.061  24.1960  0.00  0.00     0.000 O
ATOM     37   O  A00 X   2      50.141  38.396  23.5210  0.00  0.00     0.000 OA
ATOM     38   S  A00 X   2      49.484  37.188  23.1220  0.00  0.00     0.000 S
ATOM     39   O  A00 X   2      50.237  35.972  23.1850  0.00  0.00     0.000 OA
ENDBRANCH 24 34
BRANCH 20 40
ATOM     40  O4  A00 X   3      49.976  39.448  27.9390  0.00  0.00     0.000 O
BRANCH 40 44
ATOM     41  C1  A00 X   3      53.038  37.514  28.0260  0.00  0.00     0.000 C
ATOM     42  C2  A00 X   3      52.494  38.355  29.2010  0.00  0.00     0.000 C
ATOM     43  C3  A00 X   3      52.156  39.797  28.7420  0.00  0.00     0.000 C
ATOM     44  C4  A00 X   3      51.282  39.876  27.4970  0.00  0.00     0.000 C
ATOM     45  C5  A00 X   3      51.895  39.011  26.3600  0.00  0.00     0.000 C
ATOM     46  O5  A00 X   3      52.208  37.663  26.8410  0.00  0.00     0.000 O
ATOM     47   O  A00 X   3      51.726  40.692  29.7660  0.00  0.00     0.000 O
ATOM     49  HD  A00 X   3      51.183  40.961  29.1470  0.00  0.00     0.000 HD
BRANCH 42 49
ATOM     49   O  A00 X   3      51.325  37.673  29.7050  0.00  0.00     0.000 O
ATOM     50   O  A00 X   3      49.690  38.066  31.4090  0.00  0.00     0.000 OA
ATOM     51   O  A00 X   3      51.960  38.532  31.8770  0.00  0.00     0.000 OA
ATOM     52   O  A00 X   3      51.307  36.278  31.5930  0.00  0.00     0.000 OA
ATOM     53   S  A00 X   3      51.039  37.628  31.2340  0.00  0.00     0.000 S
ENDBRANCH 42 49
BRANCH 45 54
ATOM     54   C  A00 X   3      53.090  39.708  25.6980  0.00  0.00     0.000 C
ATOM     55   O  A00 X   3      53.544  39.294  24.6510  0.00  0.00     0.000 OA
ATOM     56   O  A00 X   3      53.605  40.688  26.2120  0.00  0.00     0.000 OA
ENDBRANCH 45 54
BRANCH 41 57
ATOM     57  O4  A00 X   4      54.442  37.764  27.7950  0.00  0.00     0.000 O
BRANCH 57 61
ATOM     58  C1  A00 X   4      57.677  35.281  26.3770  0.00  0.00     0.000 C
ATOM     59  C2  A00 X   4      56.482  35.554  25.4300  0.00  0.00     0.000 C
ATOM     60  C3  A00 X   4      55.583  36.719  25.8940  0.00  0.00     0.000 C
ATOM     61  C4  A00 X   4      55.218  36.601  27.3890  0.00  0.00     0.000 C
ATOM     62  C5  A00 X   4      56.559  36.555  28.1630  0.00  0.00     0.000 C
ATOM     63  O5  A00 X   4      57.297  35.369  27.7690  0.00  0.00     0.000 O
BRANCH 59 66
ATOM     64   N  A00 X   4      55.588  34.384  25.3590  0.00  0.00     0.000 N
ATOM     66  HD  A00 X   4      55.555  33.863  26.0500  0.00  0.00     0.000 HD
ATOM     66   O  A00 X   4      57.120  33.438  23.7590  0.00  0.00     0.000 OA
ATOM     67   S  A00 X   4      55.735  33.394  24.1110  0.00  0.00     0.000 S
ATOM     68   O  A00 X   4      55.286  32.166  24.7000  0.00  0.00     0.000 OA
ATOM     69   O  A00 X   4      54.794  33.989  23.2040  0.00  0.00     0.000 OA
ENDBRANCH 59 66
BRANCH 62 70
ATOM     70   C  A00 X   4      56.401  36.547  29.7020  0.00  0.00     0.000 C
ATOM     71   O  A00 X   4      55.093  33.924  31.8280  0.00  0.00     0.000 OA
ATOM     72   O  A00 X   4      54.594  36.224  31.7450  0.00  0.00     0.000 OA
ATOM     73   O  A00 X   4      56.075  35.218  30.1390  0.00  0.00     0.000 O
ATOM     74   O  A00 X   4      53.717  34.739  30.0230  0.00  0.00     0.000 OA
ATOM     75   S  A00 X   4      54.755  35.019  30.9620  0.00  0.00     0.000 S
ENDBRANCH 62 70
ENDBRANCH 57 61
ENDBRANCH 41 57
ENDBRANCH 40 44
ENDBRANCH 20 40
ENDBRANCH 19 23
ENDBRANCH 1 19
TORSDOF 14
ENDMDL
MODEL 77
REMARK VINA RESULT:      -0.7     48.877     53.151
ROOT
ATOM      1  C1  A00 X   1      49.698  14.778  48.2820  0.00  0.00     0.000 C
ATOM      2  C2  A00 X   1      49.993  15.392  46.8880  0.00  0.00     0.000 C
ATOM      3  C3  A00 X   1      51.408  15.093  46.2910  0.00  0.00     0.000 C
ATOM      4  C4  A00 X   1      52.456  14.549  47.2960  0.00  0.00     0.000 C
ATOM      5  C5  A00 X   1      52.111  14.907  48.7410  0.00  0.00     0.000 C
ATOM      6  O5  A00 X   1      50.847  14.251  48.9900  0.00  0.00     0.000 O
ATOM      7   O  A00 X   1      51.946  16.303  45.7620  0.00  0.00     0.000 O
ATOM      9  HD  A00 X   1      52.591  15.894  46.1690  0.00  0.00     0.000 HD
ATOM      9   O  A00 X   1      52.611  13.135  47.1730  0.00  0.00     0.000 O
ATOM     11  HD  A00 X   1      53.256  12.726  47.5810  0.00  0.00     0.000 HD
ENDROOT
BRANCH 2 11
ATOM     11   O  A00 X   1      48.988  14.909  45.9750  0.00  0.00     0.000 O
ATOM     12   O  A00 X   1      48.867  15.671  43.7010  0.00  0.00     0.000 OA
ATOM     13   O  A00 X   1      48.493  17.256  45.5080  0.00  0.00     0.000 OA
ATOM     14   O  A00 X   1      46.921  15.523  45.0800  0.00  0.00     0.000 OA
ATOM     15   S  A00 X   1      48.299  15.925  45.0000  0.00  0.00     0.000 S
ENDBRANCH 2 11
BRANCH 5 16
ATOM     16   C  A00 X   1      52.093  16.408  49.0500  0.00  0.00     0.000 C
ATOM     17   O  A00 X   1      51.642  16.777  50.1150  0.00  0.00     0.000 OA
ATOM     18   O  A00 X   1      52.519  17.238  48.2720  0.00  0.00     0.000 OA
ENDBRANCH 5 16
BRANCH 1 19
ATOM     19  O4  A00 X   2      48.914  15.656  49.1270  0.00  0.00     0.000 O
BRANCH 19 23
ATOM     20  C1  A00 X   2      46.675  12.458  50.8940  0.00  0.00     0.000 C
ATOM     21  C2  A00 X   2      46.016  13.231  49.7260  0.00  0.00     0.000 C
ATOM     22  C3  A00 X   2      47.071  14.027  48.9300  0.00  0.00     0.000 C
ATOM     23  C4  A00 X   2      47.886  14.943  49.8720  0.00  0.00     0.000 C
ATOM     24  C5  A00 X   2      48.475  14.056  51.0030  0.00  0.00     0.000 C
ATOM     25  O5  A00 X   2      47.382  13.423  51.7180  0.00  0.00     0.000 O
ATOM     26   O  A00 X   2      46.423  14.670  47.8200  0.00  0.00     0.000 O
ATOM     28  HD  A00 X   2      45.799  15.009  48.3150  0.00  0.00     0.000 HD
BRANCH 21 30
ATOM     28   N  A00 X   2      44.719  13.041  50.3820  0.00  0.00     0.000 N
ATOM     30  HD  A00 X   2      44.555  13.278  49.5660  0.00  0.00     0.000 HD
ATOM     30   O  A00 X   2      43.081  12.887  48.7240  0.00  0.00     0.000 OA
ATOM     31   S  A00 X   2      43.450  13.764  49.7780  0.00  0.00     0.000 S
ATOM     32   O  A00 X   2      42.533  13.811  50.8740  0.00  0.00     0.000 OA
ATOM     33   O  A00 X   2      43.853  15.088  49.4090  0.00  0.00     0.000 OA
ENDBRANCH 21 30
BRANCH 24 34
ATOM     34   C  A00 X   2      49.521  14.689  51.9510  0.00  0.00     0.000 C
ATOM     35   O  A00 X   2      49.035  15.112  55.5350  0.00  0.00     0.000 OA
ATOM     36   O  A00 X   2      48.930  15.046  53.2170  0.00  0.00     0.000 O
ATOM     37   O  A00 X   2      48.859  13.037  54.4130  0.00  0.00     0.000 OA
ATOM     38   S  A00 X   2      49.525  14.302  54.4680  0.00  0.00     0.000 S
ATOM     39   O  A00 X   2      50.948  14.310  54.3050  0.00  0.00     0.000 OA
ENDBRANCH 24 34
BRANCH 20 40
ATOM     40  O4  A00 X   3      47.618  11.565  50.2850  0.00  0.00     0.000 O
BRANCH 40 44
ATOM     41  C1  A00 X   3      50.921  10.077  50.3240  0.00  0.00     0.000 C
ATOM     42  C2  A00 X   3      49.846   9.804  49.2510  0.00  0.00     0.000 C
ATOM     43  C3  A00 X   3      48.494   9.418  49.9050  0.00  0.00     0.000 C
ATOM     44  C4  A00 X   3      48.022  10.373  50.9940  0.00  0.00     0.000 C
ATOM     45  C5  A00 X   3      49.154  10.594  52.0360  0.00  0.00     0.000 C
ATOM     46  O5  A00 X   3      50.413  10.946  51.3740  0.00  0.00     0.000 O
ATOM     47   O  A00 X   3      47.447   9.058  49.0060  0.00  0.00     0.000 O
ATOM     49  HD  A00 X   3      46.962   9.499  49.5720  0.00  0.00     0.000 HD
BRANCH 42 49
ATOM     49   O  A00 X   3      49.724  11.005  48.4580  0.00  0.00     0.000 O
ATOM     50   O  A00 X   3      48.367  11.744  46.6290  0.00  0.00     0.000 OA
ATOM     51   O  A00 X   3      49.208   9.535  46.6060  0.00  0.00     0.000 OA
ATOM     52   O  A00 X   3      50.734  11.323  46.3610  0.00  0.00     0.000 OA
ATOM     53   S  A00 X   3      49.492  10.912  46.9210  0.00  0.00     0.000 S
ENDBRANCH 42 49
BRANCH 45 54
ATOM     54   C  A00 X   3      49.288   9.401  52.9900  0.00  0.00     0.000 C
ATOM     55   O  A00 X   3      48.670   8.376  52.7890  0.00  0.00     0.000 OA
ATOM     56   O  A00 X   3      50.015   9.462  53.9690  0.00  0.00     0.000 OA
ENDBRANCH 45 54
BRANCH 41 57
ATOM     57  O4  A00 X   4      51.514   8.852  50.8110  0.00  0.00     0.000 O
BRANCH 57 61
ATOM     58  C1  A00 X   4      55.488   7.843  52.1620  0.00  0.00     0.000 C
ATOM     59  C2  A00 X   4      54.690   8.917  52.9430  0.00  0.00     0.000 C
ATOM     60  C3  A00 X   4      53.186   8.934  52.6020  0.00  0.00     0.000 C
ATOM     61  C4  A00 X   4      52.943   8.920  51.0770  0.00  0.00     0.000 C
ATOM     62  C5  A00 X   4      53.650   7.653  50.5350  0.00  0.00     0.000 C
ATOM     63  O5  A00 X   4      55.076   7.761  50.7780  0.00  0.00     0.000 O
BRANCH 59 66
ATOM     64   N  A00 X   4      55.160  10.280  52.6360  0.00  0.00     0.000 N
ATOM     66  HD  A00 X   4      55.503  10.417  51.8520  0.00  0.00     0.000 HD
ATOM     66   O  A00 X   4      56.950   9.907  54.2030  0.00  0.00     0.000 OA
ATOM     67   S  A00 X   4      56.178  10.977  53.6540  0.00  0.00     0.000 S
ATOM     68   O  A00 X   4      56.881  11.850  52.7600  0.00  0.00     0.000 OA
ATOM     69   O  A00 X   4      55.249  11.647  54.5200  0.00  0.00     0.000 OA
ENDBRANCH 59 66
BRANCH 62 70
ATOM     70   C  A00 X   4      53.427   7.402  49.0250  0.00  0.00     0.000 C
ATOM     71   O  A00 X   4      54.703   9.283  46.2070  0.00  0.00     0.000 OA
ATOM     72   O  A00 X   4      52.522   8.543  46.6960  0.00  0.00     0.000 OA
ATOM     73   O  A00 X   4      54.317   8.238  48.2680  0.00  0.00     0.000 O
ATOM     74   O  A00 X   4      53.443  10.453  47.8980  0.00  0.00     0.000 OA
ATOM     75   S  A00 X   4      53.687   9.221  47.2200  0.00  0.00     0.000 S
ENDBRANCH 62 70
ENDBRANCH 57 61
ENDBRANCH 41 57
ENDBRANCH 40 44
ENDBRANCH 20 40
ENDBRANCH 19 23
ENDBRANCH 1 19
TORSDOF 14
ENDMDL
MODEL 78
REMARK VINA RESULT:      -0.7     40.947     45.464
ROOT
ATOM      1  C1  A00 X   1      27.295  44.062  41.7450  0.00  0.00     0.000 C
ATOM      2  C2  A00 X   1      26.788  44.999  42.8740  0.00  0.00     0.000 C
ATOM      3  C3  A00 X   1      26.574  46.497  42.4800  0.00  0.00     0.000 C
ATOM      4  C4  A00 X   1      27.229  46.938  41.1460  0.00  0.00     0.000 C
ATOM      5  C5  A00 X   1      28.386  46.024  40.7420  0.00  0.00     0.000 C
ATOM      6  O5  A00 X   1      27.780  44.726  40.5520  0.00  0.00     0.000 O
ATOM      7   O  A00 X   1      27.134  47.323  43.4980  0.00  0.00     0.000 O
ATOM      9  HD  A00 X   1      27.341  47.681  42.7370  0.00  0.00     0.000 HD
ATOM      9   O  A00 X   1      26.272  46.999  40.0890  0.00  0.00     0.000 O
ATOM     11  HD  A00 X   1      26.478  47.357  39.3280  0.00  0.00     0.000 HD
ENDROOT
BRANCH 2 11
ATOM     11   O  A00 X   1      25.545  44.460  43.3660  0.00  0.00     0.000 O
ATOM     12   O  A00 X   1      24.371  45.457  45.2080  0.00  0.00     0.000 OA
ATOM     13   O  A00 X   1      26.574  44.496  45.5810  0.00  0.00     0.000 OA
ATOM     14   O  A00 X   1      24.720  43.096  45.0710  0.00  0.00     0.000 OA
ATOM     15   S  A00 X   1      25.305  44.400  44.9140  0.00  0.00     0.000 S
ENDBRANCH 2 11
BRANCH 5 16
ATOM     16   C  A00 X   1      29.571  46.011  41.7130  0.00  0.00     0.000 C
ATOM     17   O  A00 X   1      30.435  45.171  41.5650  0.00  0.00     0.000 OA
ATOM     18   O  A00 X   1      29.680  46.813  42.6190  0.00  0.00     0.000 OA
ENDBRANCH 5 16
BRANCH 1 19
ATOM     19  O4  A00 X   2      28.239  43.071  42.2190  0.00  0.00     0.000 O
BRANCH 19 23
ATOM     20  C1  A00 X   2      26.766  39.987  39.6330  0.00  0.00     0.000 C
ATOM     21  C2  A00 X   2      26.260  39.995  41.0960  0.00  0.00     0.000 C
ATOM     22  C3  A00 X   2      26.518  41.364  41.7590  0.00  0.00     0.000 C
ATOM     23  C4  A00 X   2      28.007  41.756  41.6370  0.00  0.00     0.000 C
ATOM     24  C5  A00 X   2      28.394  41.692  40.1340  0.00  0.00     0.000 C
ATOM     25  O5  A00 X   2      28.175  40.340  39.6530  0.00  0.00     0.000 O
ATOM     26   O  A00 X   2      25.970  41.343  43.0880  0.00  0.00     0.000 O
ATOM     28  HD  A00 X   2      26.363  40.599  43.2920  0.00  0.00     0.000 HD
BRANCH 21 30
ATOM     28   N  A00 X   2      26.232  38.530  41.0540  0.00  0.00     0.000 N
ATOM     30  HD  A00 X   2      25.764  38.770  41.7420  0.00  0.00     0.000 HD
ATOM     30   O  A00 X   2      24.498  37.796  42.4380  0.00  0.00     0.000 OA
ATOM     31   S  A00 X   2      25.916  37.738  42.3850  0.00  0.00     0.000 S
ATOM     32   O  A00 X   2      26.460  36.438  42.1430  0.00  0.00     0.000 OA
ATOM     33   O  A00 X   2      26.632  38.387  43.4430  0.00  0.00     0.000 OA
ENDBRANCH 21 30
BRANCH 24 34
ATOM     34   C  A00 X   2      29.770  42.260  39.7140  0.00  0.00     0.000 C
ATOM     35   O  A00 X   2      32.423  40.274  38.2070  0.00  0.00     0.000 OA
ATOM     36   O  A00 X   2      30.724  41.204  39.4850  0.00  0.00     0.000 O
ATOM     37   O  A00 X   2      30.231  40.430  37.3330  0.00  0.00     0.000 OA
ATOM     38   S  A00 X   2      31.286  41.113  38.0190  0.00  0.00     0.000 S
ATOM     39   O  A00 X   2      31.581  42.454  37.6150  0.00  0.00     0.000 OA
ENDBRANCH 24 34
BRANCH 20 40
ATOM     40  O4  A00 X   3      26.023  41.014  38.9600  0.00  0.00     0.000 O
BRANCH 40 44
ATOM     41  C1  A00 X   3      26.019  43.799  36.6440  0.00  0.00     0.000 C
ATOM     42  C2  A00 X   3      24.779  43.291  37.4120  0.00  0.00     0.000 C
ATOM     43  C3  A00 X   3      24.608  41.760  37.2400  0.00  0.00     0.000 C
ATOM     44  C4  A00 X   3      25.864  40.947  37.5270  0.00  0.00     0.000 C
ATOM     45  C5  A00 X   3      27.063  41.514  36.7160  0.00  0.00     0.000 C
ATOM     46  O5  A00 X   3      27.180  42.962  36.9000  0.00  0.00     0.000 O
ATOM     47   O  A00 X   3      23.444  41.192  37.8360  0.00  0.00     0.000 O
ATOM     49  HD  A00 X   3      23.993  40.551  38.0280  0.00  0.00     0.000 HD
BRANCH 42 49
ATOM     49   O  A00 X   3      24.965  43.649  38.7990  0.00  0.00     0.000 O
ATOM     50   O  A00 X   3      23.767  43.328  40.8460  0.00  0.00     0.000 OA
ATOM     51   O  A00 X   3      22.558  43.883  38.8920  0.00  0.00     0.000 OA
ATOM     52   O  A00 X   3      23.985  45.514  39.8360  0.00  0.00     0.000 OA
ATOM     53   S  A00 X   3      23.756  44.122  39.6580  0.00  0.00     0.000 S
ENDBRANCH 42 49
BRANCH 45 54
ATOM     54   C  A00 X   3      27.000  41.096  35.2420  0.00  0.00     0.000 C
ATOM     55   O  A00 X   3      26.020  40.531  34.8010  0.00  0.00     0.000 OA
ATOM     56   O  A00 X   3      27.932  41.323  34.4870  0.00  0.00     0.000 OA
ENDBRANCH 45 54
BRANCH 41 57
ATOM     57  O4  A00 X   4      25.734  43.995  35.2410  0.00  0.00     0.000 O
BRANCH 57 61
ATOM     58  C1  A00 X   4      27.160  46.837  32.3200  0.00  0.00     0.000 C
ATOM     59  C2  A00 X   4      28.181  45.878  32.9820  0.00  0.00     0.000 C
ATOM     60  C3  A00 X   4      27.524  44.693  33.7170  0.00  0.00     0.000 C
ATOM     61  C4  A00 X   4      26.373  45.156  34.6360  0.00  0.00     0.000 C
ATOM     62  C5  A00 X   4      25.368  45.909  33.7300  0.00  0.00     0.000 C
ATOM     63  O5  A00 X   4      26.016  47.080  33.1700  0.00  0.00     0.000 O
BRANCH 59 66
ATOM     64   N  A00 X   4      28.968  46.585  34.0090  0.00  0.00     0.000 N
ATOM     66  HD  A00 X   4      28.594  47.258  34.4060  0.00  0.00     0.000 HD
ATOM     66   O  A00 X   4      30.357  47.420  32.2280  0.00  0.00     0.000 OA
ATOM     67   S  A00 X   4      30.430  47.103  33.6200  0.00  0.00     0.000 S
ATOM     68   O  A00 X   4      30.550  48.227  34.5020  0.00  0.00     0.000 OA
ATOM     69   O  A00 X   4      31.213  45.965  34.0070  0.00  0.00     0.000 OA
ENDBRANCH 59 66
BRANCH 62 70
ATOM     70   C  A00 X   4      24.078  46.361  34.4550  0.00  0.00     0.000 C
ATOM     71   O  A00 X   4      23.682  48.929  36.9760  0.00  0.00     0.000 OA
ATOM     72   O  A00 X   4      22.925  46.700  36.9250  0.00  0.00     0.000 OA
ATOM     73   O  A00 X   4      24.343  47.569  35.1870  0.00  0.00     0.000 O
ATOM     74   O  A00 X   4      25.276  47.163  37.3710  0.00  0.00     0.000 OA
ATOM     75   S  A00 X   4      24.066  47.568  36.7300  0.00  0.00     0.000 S
ENDBRANCH 62 70
ENDBRANCH 57 61
ENDBRANCH 41 57
ENDBRANCH 40 44
ENDBRANCH 20 40
ENDBRANCH 19 23
ENDBRANCH 1 19
TORSDOF 14
ENDMDL
MODEL 79
REMARK VINA RESULT:      -0.7     47.031     51.890
ROOT
ATOM      1  C1  A00 X   1      49.029  47.479  30.1750  0.00  0.00     0.000 C
ATOM      2  C2  A00 X   1      49.830  48.227  31.2740  0.00  0.00     0.000 C
ATOM      3  C3  A00 X   1      49.253  48.138  32.7250  0.00  0.00     0.000 C
ATOM      4  C4  A00 X   1      47.789  47.640  32.8340  0.00  0.00     0.000 C
ATOM      5  C5  A00 X   1      47.012  47.846  31.5330  0.00  0.00     0.000 C
ATOM      6  O5  A00 X   1      47.704  47.033  30.5590  0.00  0.00     0.000 O
ATOM      7   O  A00 X   1      49.284  49.437  33.3110  0.00  0.00     0.000 O
ATOM      9  HD  A00 X   1      48.530  49.074  33.5350  0.00  0.00     0.000 HD
ATOM      9   O  A00 X   1      47.731  46.267  33.2180  0.00  0.00     0.000 O
ATOM     11  HD  A00 X   1      46.978  45.903  33.4420  0.00  0.00     0.000 HD
ENDROOT
BRANCH 2 11
ATOM     11   O  A00 X   1      51.173  47.705  31.2690  0.00  0.00     0.000 O
ATOM     12   O  A00 X   1      52.774  48.305  32.9550  0.00  0.00     0.000 OA
ATOM     13   O  A00 X   1      51.919  50.023  31.4600  0.00  0.00     0.000 OA
ATOM     14   O  A00 X   1      53.338  48.303  30.6320  0.00  0.00     0.000 OA
ATOM     15   S  A00 X   1      52.360  48.665  31.6230  0.00  0.00     0.000 S
ENDBRANCH 2 11
BRANCH 5 16
ATOM     16   C  A00 X   1      46.843  49.307  31.1040  0.00  0.00     0.000 C
ATOM     17   O  A00 X   1      46.429  49.540  29.9870  0.00  0.00     0.000 OA
ATOM     18   O  A00 X   1      47.100  50.237  31.8420  0.00  0.00     0.000 OA
ENDBRANCH 5 16
BRANCH 1 19
ATOM     19  O4  A00 X   2      49.000  48.196  28.9160  0.00  0.00     0.000 O
BRANCH 19 23
ATOM     20  C1  A00 X   2      49.409  44.655  26.5370  0.00  0.00     0.000 C
ATOM     21  C2  A00 X   2      50.691  45.472  26.8280  0.00  0.00     0.000 C
ATOM     22  C3  A00 X   2      50.472  46.432  28.0160  0.00  0.00     0.000 C
ATOM     23  C4  A00 X   2      49.234  47.325  27.7720  0.00  0.00     0.000 C
ATOM     24  C5  A00 X   2      48.028  46.392  27.4750  0.00  0.00     0.000 C
ATOM     25  O5  A00 X   2      48.330  45.598  26.2980  0.00  0.00     0.000 O
ATOM     26   O  A00 X   2      51.707  47.116  28.2900  0.00  0.00     0.000 O
ATOM     28  HD  A00 X   2      51.820  47.348  27.4630  0.00  0.00     0.000 HD
BRANCH 21 30
ATOM     28   N  A00 X   2      51.182  45.104  25.4970  0.00  0.00     0.000 N
ATOM     30  HD  A00 X   2      51.863  45.401  25.9410  0.00  0.00     0.000 HD
ATOM     30   O  A00 X   2      53.511  44.959  25.5950  0.00  0.00     0.000 OA
ATOM     31   S  A00 X   2      52.520  45.762  24.9730  0.00  0.00     0.000 S
ATOM     32   O  A00 X   2      52.432  45.622  23.5520  0.00  0.00     0.000 OA
ATOM     33   O  A00 X   2      52.482  47.147  25.3390  0.00  0.00     0.000 OA
ENDBRANCH 21 30
BRANCH 24 34
ATOM     34   C  A00 X   2      46.617  47.025  27.4220  0.00  0.00     0.000 C
ATOM     35   O  A00 X   2      44.501  47.047  24.4590  0.00  0.00     0.000 OA
ATOM     36   O  A00 X   2      46.174  47.199  26.0610  0.00  0.00     0.000 O
ATOM     37   O  A00 X   2      45.400  45.085  25.4260  0.00  0.00     0.000 OA
ATOM     38   S  A00 X   2      44.880  46.396  25.6700  0.00  0.00     0.000 S
ATOM     39   O  A00 X   2      43.961  46.554  26.7570  0.00  0.00     0.000 OA
ENDBRANCH 24 34
BRANCH 20 40
ATOM     40  O4  A00 X   3      49.141  43.913  27.7350  0.00  0.00     0.000 O
BRANCH 40 44
ATOM     41  C1  A00 X   3      46.713  42.743  30.1560  0.00  0.00     0.000 C
ATOM     42  C2  A00 X   3      48.231  42.470  30.2290  0.00  0.00     0.000 C
ATOM     43  C3  A00 X   3      48.758  41.901  28.8870  0.00  0.00     0.000 C
ATOM     44  C4  A00 X   3      48.354  42.704  27.6570  0.00  0.00     0.000 C
ATOM     45  C5  A00 X   3      46.817  42.934  27.6520  0.00  0.00     0.000 C
ATOM     46  O5  A00 X   3      46.362  43.461  28.9400  0.00  0.00     0.000 O
ATOM     47   O  A00 X   3      50.134  41.528  28.8650  0.00  0.00     0.000 O
ATOM     49  HD  A00 X   3      50.098  41.869  28.0700  0.00  0.00     0.000 HD
BRANCH 42 49
ATOM     49   O  A00 X   3      48.871  43.721  30.5600  0.00  0.00     0.000 O
ATOM     50   O  A00 X   3      51.118  44.494  30.8530  0.00  0.00     0.000 OA
ATOM     51   O  A00 X   3      50.513  42.385  31.7330  0.00  0.00     0.000 OA
ATOM     52   O  A00 X   3      49.584  44.324  32.7150  0.00  0.00     0.000 OA
ATOM     53   S  A00 X   3      50.097  43.748  31.5190  0.00  0.00     0.000 S
ENDBRANCH 42 49
BRANCH 45 54
ATOM     54   C  A00 X   3      46.057  41.677  27.2120  0.00  0.00     0.000 C
ATOM     55   O  A00 X   3      46.638  40.620  27.0690  0.00  0.00     0.000 OA
ATOM     56   O  A00 X   3      44.855  41.715  26.9970  0.00  0.00     0.000 OA
ENDBRANCH 45 54
BRANCH 41 57
ATOM     57  O4  A00 X   4      45.943  41.539  30.3700  0.00  0.00     0.000 O
BRANCH 57 61
ATOM     58  C1  A00 X   4      42.130  40.784  32.2510  0.00  0.00     0.000 C
ATOM     59  C2  A00 X   4      42.172  41.697  31.0000  0.00  0.00     0.000 C
ATOM     60  C3  A00 X   4      43.497  41.605  30.2160  0.00  0.00     0.000 C
ATOM     61  C4  A00 X   4      44.723  41.716  31.1460  0.00  0.00     0.000 C
ATOM     62  C5  A00 X   4      44.583  40.580  32.1900  0.00  0.00     0.000 C
ATOM     63  O5  A00 X   4      43.382  40.798  32.9740  0.00  0.00     0.000 O
BRANCH 59 66
ATOM     64   N  A00 X   4      42.048  43.115  31.3850  0.00  0.00     0.000 N
ATOM     66  HD  A00 X   4      42.334  43.342  32.1700  0.00  0.00     0.000 HD
ATOM     66   O  A00 X   4      39.667  42.770  31.5050  0.00  0.00     0.000 OA
ATOM     67   S  A00 X   4      40.614  43.812  31.2560  0.00  0.00     0.000 S
ATOM     68   O  A00 X   4      40.718  44.809  32.2810  0.00  0.00     0.000 OA
ATOM     69   O  A00 X   4      40.704  44.329  29.9200  0.00  0.00     0.000 OA
ENDBRANCH 59 66
BRANCH 62 70
ATOM     70   C  A00 X   4      45.786  40.456  33.1560  0.00  0.00     0.000 C
ATOM     71   O  A00 X   4      46.811  42.717  35.7910  0.00  0.00     0.000 OA
ATOM     72   O  A00 X   4      48.050  41.726  34.0520  0.00  0.00     0.000 OA
ATOM     73   O  A00 X   4      45.666  41.444  34.1920  0.00  0.00     0.000 O
ATOM     74   O  A00 X   4      46.561  43.589  33.5570  0.00  0.00     0.000 OA
ATOM     75   S  A00 X   4      46.847  42.458  34.3790  0.00  0.00     0.000 S
ENDBRANCH 62 70
ENDBRANCH 57 61
ENDBRANCH 41 57
ENDBRANCH 40 44
ENDBRANCH 20 40
ENDBRANCH 19 23
ENDBRANCH 1 19
TORSDOF 14
ENDMDL
MODEL 80
REMARK VINA RESULT:      -0.7     27.359     31.842
ROOT
ATOM      1  C1  A00 X   1      27.951  20.275  34.7320  0.00  0.00     0.000 C
ATOM      2  C2  A00 X   1      26.799  20.017  33.7240  0.00  0.00     0.000 C
ATOM      3  C3  A00 X   1      26.450  18.517  33.4480  0.00  0.00     0.000 C
ATOM      4  C4  A00 X   1      27.510  17.487  33.9140  0.00  0.00     0.000 C
ATOM      5  C5  A00 X   1      28.900  18.110  34.0510  0.00  0.00     0.000 C
ATOM      6  O5  A00 X   1      28.751  19.117  35.0770  0.00  0.00     0.000 O
ATOM      7   O  A00 X   1      26.297  18.334  32.0430  0.00  0.00     0.000 O
ATOM      9  HD  A00 X   1      26.733  17.649  32.3440  0.00  0.00     0.000 HD
ATOM      9   O  A00 X   1      27.134  16.872  35.1460  0.00  0.00     0.000 O
ATOM     11  HD  A00 X   1      27.570  16.187  35.4480  0.00  0.00     0.000 HD
ENDROOT
BRANCH 2 11
ATOM     11   O  A00 X   1      25.625  20.690  34.2180  0.00  0.00     0.000 O
ATOM     12   O  A00 X   1      23.526  20.600  33.0560  0.00  0.00     0.000 OA
ATOM     13   O  A00 X   1      25.430  21.677  31.9930  0.00  0.00     0.000 OA
ATOM     14   O  A00 X   1      24.404  22.655  33.9030  0.00  0.00     0.000 OA
ATOM     15   S  A00 X   1      24.692  21.433  33.2020  0.00  0.00     0.000 S
ENDBRANCH 2 11
BRANCH 5 16
ATOM     16   C  A00 X   1      29.499  18.648  32.7470  0.00  0.00     0.000 C
ATOM     17   O  A00 X   1      30.487  19.351  32.8080  0.00  0.00     0.000 OA
ATOM     18   O  A00 X   1      29.027  18.390  31.6580  0.00  0.00     0.000 OA
ENDBRANCH 5 16
BRANCH 1 19
ATOM     19  O4  A00 X   2      28.784  21.399  34.3570  0.00  0.00     0.000 O
BRANCH 19 23
ATOM     20  C1  A00 X   2      29.280  22.765  38.3890  0.00  0.00     0.000 C
ATOM     21  C2  A00 X   2      28.204  23.466  37.5240  0.00  0.00     0.000 C
ATOM     22  C3  A00 X   2      27.846  22.610  36.2910  0.00  0.00     0.000 C
ATOM     23  C4  A00 X   2      29.118  22.249  35.4920  0.00  0.00     0.000 C
ATOM     24  C5  A00 X   2      30.118  21.573  36.4690  0.00  0.00     0.000 C
ATOM     25  O5  A00 X   2      30.428  22.505  37.5380  0.00  0.00     0.000 O
ATOM     26   O  A00 X   2      26.798  23.270  35.5600  0.00  0.00     0.000 O
ATOM     28  HD  A00 X   2      27.216  24.028  35.5470  0.00  0.00     0.000 HD
BRANCH 21 30
ATOM     28   N  A00 X   2      28.519  24.723  38.2110  0.00  0.00     0.000 N
ATOM     30  HD  A00 X   2      27.757  24.837  37.8150  0.00  0.00     0.000 HD
ATOM     30   O  A00 X   2      26.562  25.993  38.3350  0.00  0.00     0.000 OA
ATOM     31   S  A00 X   2      27.834  26.055  37.7070  0.00  0.00     0.000 S
ATOM     32   O  A00 X   2      28.698  27.085  38.1930  0.00  0.00     0.000 OA
ATOM     33   O  A00 X   2      27.852  26.025  36.2740  0.00  0.00     0.000 OA
ENDBRANCH 21 30
BRANCH 24 34
ATOM     34   C  A00 X   2      31.381  20.909  35.8720  0.00  0.00     0.000 C
ATOM     35   O  A00 X   2      34.785  21.984  36.5870  0.00  0.00     0.000 OA
ATOM     36   O  A00 X   2      32.542  21.747  36.0400  0.00  0.00     0.000 O
ATOM     37   O  A00 X   2      33.218  21.367  38.2470  0.00  0.00     0.000 OA
ATOM     38   S  A00 X   2      33.692  21.130  36.9180  0.00  0.00     0.000 S
ATOM     39   O  A00 X   2      33.836  19.769  36.4970  0.00  0.00     0.000 OA
ENDBRANCH 24 34
BRANCH 20 40
ATOM     40  O4  A00 X   3      28.695  21.520  38.8000  0.00  0.00     0.000 O
BRANCH 40 44
ATOM     41  C1  A00 X   3      29.071  17.953  39.3100  0.00  0.00     0.000 C
ATOM     42  C2  A00 X   3      27.770  18.746  39.5620  0.00  0.00     0.000 C
ATOM     43  C3  A00 X   3      28.039  19.986  40.4530  0.00  0.00     0.000 C
ATOM     44  C4  A00 X   3      29.192  20.864  39.9860  0.00  0.00     0.000 C
ATOM     45  C5  A00 X   3      30.463  19.997  39.7600  0.00  0.00     0.000 C
ATOM     46  O5  A00 X   3      30.161  18.834  38.9230  0.00  0.00     0.000 O
ATOM     47   O  A00 X   3      26.891  20.747  40.8230  0.00  0.00     0.000 O
ATOM     49  HD  A00 X   3      27.430  21.412  40.6950  0.00  0.00     0.000 HD
BRANCH 42 49
ATOM     49   O  A00 X   3      27.251  19.128  38.2690  0.00  0.00     0.000 O
ATOM     50   O  A00 X   3      25.392  20.398  37.4540  0.00  0.00     0.000 OA
ATOM     51   O  A00 X   3      25.057  18.921  39.2700  0.00  0.00     0.000 OA
ATOM     52   O  A00 X   3      25.524  18.004  37.1420  0.00  0.00     0.000 OA
ATOM     53   S  A00 X   3      25.717  19.119  38.0030  0.00  0.00     0.000 S
ENDBRANCH 42 49
BRANCH 45 54
ATOM     54   C  A00 X   3      31.140  19.627  41.0850  0.00  0.00     0.000 C
ATOM     55   O  A00 X   3      32.261  19.161  41.0990  0.00  0.00     0.000 OA
ATOM     56   O  A00 X   3      30.564  19.792  42.1490  0.00  0.00     0.000 OA
ENDBRANCH 45 54
BRANCH 41 57
ATOM     57  O4  A00 X   4      29.386  17.080  40.4180  0.00  0.00     0.000 O
BRANCH 57 61
ATOM     58  C1  A00 X   4      31.357  13.248  40.6740  0.00  0.00     0.000 C
ATOM     59  C2  A00 X   4      32.159  14.460  40.1370  0.00  0.00     0.000 C
ATOM     60  C3  A00 X   4      31.488  15.818  40.4260  0.00  0.00     0.000 C
ATOM     61  C4  A00 X   4      29.990  15.808  40.0500  0.00  0.00     0.000 C
ATOM     62  C5  A00 X   4      29.346  14.655  40.8590  0.00  0.00     0.000 C
ATOM     63  O5  A00 X   4      29.937  13.395  40.4480  0.00  0.00     0.000 O
BRANCH 59 66
ATOM     64   N  A00 X   4      32.275  14.381  38.6700  0.00  0.00     0.000 N
ATOM     66  HD  A00 X   4      31.647  13.967  38.2410  0.00  0.00     0.000 HD
ATOM     66   O  A00 X   4      34.115  12.862  38.9960  0.00  0.00     0.000 OA
ATOM     67   S  A00 X   4      33.636  13.817  38.0470  0.00  0.00     0.000 S
ATOM     68   O  A00 X   4      33.148  13.270  36.8140  0.00  0.00     0.000 OA
ATOM     69   O  A00 X   4      34.372  15.040  37.8970  0.00  0.00     0.000 OA
ENDBRANCH 59 66
BRANCH 62 70
ATOM     70   C  A00 X   4      27.810  14.552  40.6990  0.00  0.00     0.000 C
ATOM     71   O  A00 X   4      25.899  13.574  37.7840  0.00  0.00     0.000 OA
ATOM     72   O  A00 X   4      25.670  15.428  39.2170  0.00  0.00     0.000 OA
ATOM     73   O  A00 X   4      27.504  13.891  39.4610  0.00  0.00     0.000 O
ATOM     74   O  A00 X   4      27.471  15.391  37.5750  0.00  0.00     0.000 OA
ATOM     75   S  A00 X   4      26.599  14.649  38.4290  0.00  0.00     0.000 S
ENDBRANCH 62 70
ENDBRANCH 57 61
ENDBRANCH 41 57
ENDBRANCH 40 44
ENDBRANCH 20 40
ENDBRANCH 19 23
ENDBRANCH 1 19
TORSDOF 14
ENDMDL
MODEL 81
REMARK VINA RESULT:      -0.7     43.992     48.464
ROOT
ATOM      1  C1  A00 X   1      53.837  33.186  33.8350  0.00  0.00     0.000 C
ATOM      2  C2  A00 X   1      54.866  34.330  33.6340  0.00  0.00     0.000 C
ATOM      3  C3  A00 X   1      55.596  34.362  32.2510  0.00  0.00     0.000 C
ATOM      4  C4  A00 X   1      55.485  33.066  31.4060  0.00  0.00     0.000 C
ATOM      5  C5  A00 X   1      55.171  31.842  32.2660  0.00  0.00     0.000 C
ATOM      6  O5  A00 X   1      53.879  32.125  32.8490  0.00  0.00     0.000 O
ATOM      7   O  A00 X   1      56.987  34.583  32.4730  0.00  0.00     0.000 O
ATOM      9  HD  A00 X   1      56.919  33.984  31.8510  0.00  0.00     0.000 HD
ATOM      9   O  A00 X   1      54.506  33.196  30.3760  0.00  0.00     0.000 O
ATOM     11  HD  A00 X   1      54.439  32.597  29.7540  0.00  0.00     0.000 HD
ENDROOT
BRANCH 2 11
ATOM     11   O  A00 X   1      54.175  35.580  33.8290  0.00  0.00     0.000 O
ATOM     12   O  A00 X   1      55.218  37.693  33.3650  0.00  0.00     0.000 OA
ATOM     13   O  A00 X   1      56.119  36.283  35.1310  0.00  0.00     0.000 OA
ATOM     14   O  A00 X   1      53.990  37.315  35.3800  0.00  0.00     0.000 OA
ATOM     15   S  A00 X   1      54.955  36.787  34.4540  0.00  0.00     0.000 S
ENDBRANCH 2 11
BRANCH 5 16
ATOM     16   C  A00 X   1      56.244  31.483  33.2990  0.00  0.00     0.000 C
ATOM     17   O  A00 X   1      55.973  30.673  34.1610  0.00  0.00     0.000 OA
ATOM     18   O  A00 X   1      57.355  31.974  33.2820  0.00  0.00     0.000 OA
ENDBRANCH 5 16
BRANCH 1 19
ATOM     19  O4  A00 X   2      53.845  32.654  35.1830  0.00  0.00     0.000 O
BRANCH 19 23
ATOM     20  C1  A00 X   2      49.587  32.210  35.3640  0.00  0.00     0.000 C
ATOM     21  C2  A00 X   2      50.201  33.478  36.0050  0.00  0.00     0.000 C
ATOM     22  C3  A00 X   2      51.638  33.711  35.4940  0.00  0.00     0.000 C
ATOM     23  C4  A00 X   2      52.504  32.450  35.7120  0.00  0.00     0.000 C
ATOM     24  C5  A00 X   2      51.775  31.253  35.0420  0.00  0.00     0.000 C
ATOM     25  O5  A00 X   2      50.471  31.095  35.6590  0.00  0.00     0.000 O
ATOM     26   O  A00 X   2      52.137  34.933  36.0640  0.00  0.00     0.000 O
ATOM     28  HD  A00 X   2      51.915  34.707  36.8700  0.00  0.00     0.000 HD
BRANCH 21 30
ATOM     28   N  A00 X   2      49.158  33.420  37.0340  0.00  0.00     0.000 N
ATOM     30  HD  A00 X   2      49.505  34.212  37.0730  0.00  0.00     0.000 HD
ATOM     30   O  A00 X   2      48.663  35.606  37.6930  0.00  0.00     0.000 OA
ATOM     31   S  A00 X   2      49.233  34.430  38.2480  0.00  0.00     0.000 S
ATOM     32   O  A00 X   2      48.447  33.799  39.2630  0.00  0.00     0.000 OA
ATOM     33   O  A00 X   2      50.605  34.503  38.6540  0.00  0.00     0.000 OA
ENDBRANCH 21 30
BRANCH 24 34
ATOM     34   C  A00 X   2      52.541  29.915  34.9160  0.00  0.00     0.000 C
ATOM     35   O  A00 X   2      53.927  28.083  37.7420  0.00  0.00     0.000 OA
ATOM     36   O  A00 X   2      53.266  29.612  36.1250  0.00  0.00     0.000 O
ATOM     37   O  A00 X   2      51.654  28.713  37.5610  0.00  0.00     0.000 OA
ATOM     38   S  A00 X   2      52.827  28.292  36.8580  0.00  0.00     0.000 S
ATOM     39   O  A00 X   2      52.669  27.297  35.8400  0.00  0.00     0.000 OA
ENDBRANCH 24 34
BRANCH 20 40
ATOM     40  O4  A00 X   3      49.579  32.455  33.9500  0.00  0.00     0.000 O
BRANCH 40 44
ATOM     41  C1  A00 X   3      50.201  31.191  30.6130  0.00  0.00     0.000 C
ATOM     42  C2  A00 X   3      49.727  32.624  30.9370  0.00  0.00     0.000 C
ATOM     43  C3  A00 X   3      48.492  32.602  31.8730  0.00  0.00     0.000 C
ATOM     44  C4  A00 X   3      48.652  31.731  33.1130  0.00  0.00     0.000 C
ATOM     45  C5  A00 X   3      49.124  30.307  32.7060  0.00  0.00     0.000 C
ATOM     46  O5  A00 X   3      50.285  30.376  31.8150  0.00  0.00     0.000 O
ATOM     47   O  A00 X   3      47.913  33.871  32.1710  0.00  0.00     0.000 O
ATOM     49  HD  A00 X   3      47.823  33.520  32.9570  0.00  0.00     0.000 HD
BRANCH 42 49
ATOM     49   O  A00 X   3      50.841  33.309  31.5490  0.00  0.00     0.000 O
ATOM     50   O  A00 X   3      51.235  35.470  32.5020  0.00  0.00     0.000 OA
ATOM     51   O  A00 X   3      49.968  35.314  30.5120  0.00  0.00     0.000 OA
ATOM     52   O  A00 X   3      52.271  34.794  30.4250  0.00  0.00     0.000 OA
ATOM     53   S  A00 X   3      51.106  34.812  31.2400  0.00  0.00     0.000 S
ENDBRANCH 42 49
BRANCH 45 54
ATOM     54   C  A00 X   3      47.974  29.470  32.1340  0.00  0.00     0.000 C
ATOM     55   O  A00 X   3      48.134  28.295  31.8740  0.00  0.00     0.000 OA
ATOM     56   O  A00 X   3      46.878  29.969  31.9300  0.00  0.00     0.000 OA
ENDBRANCH 45 54
BRANCH 41 57
ATOM     57  O4  A00 X   4      49.417  30.596  29.5540  0.00  0.00     0.000 O
BRANCH 57 61
ATOM     58  C1  A00 X   4      50.379  27.835  26.3780  0.00  0.00     0.000 C
ATOM     59  C2  A00 X   4      50.540  27.363  27.8440  0.00  0.00     0.000 C
ATOM     60  C3  A00 X   4      49.839  28.281  28.8660  0.00  0.00     0.000 C
ATOM     61  C4  A00 X   4      50.166  29.769  28.6190  0.00  0.00     0.000 C
ATOM     62  C5  A00 X   4      49.731  30.076  27.1650  0.00  0.00     0.000 C
ATOM     63  O5  A00 X   4      50.517  29.268  26.2510  0.00  0.00     0.000 O
BRANCH 59 66
ATOM     64   N  A00 X   4      51.827  27.161  28.5350  0.00  0.00     0.000 N
ATOM     66  HD  A00 X   4      52.461  27.729  28.3720  0.00  0.00     0.000 HD
ATOM     66   O  A00 X   4      52.155  25.223  27.1440  0.00  0.00     0.000 OA
ATOM     67   S  A00 X   4      52.526  25.727  28.4290  0.00  0.00     0.000 S
ATOM     68   O  A00 X   4      53.904  26.100  28.5720  0.00  0.00     0.000 OA
ATOM     69   O  A00 X   4      51.968  25.087  29.5860  0.00  0.00     0.000 OA
ENDBRANCH 59 66
BRANCH 62 70
ATOM     70   C  A00 X   4      49.879  31.562  26.7600  0.00  0.00     0.000 C
ATOM     71   O  A00 X   4      52.910  33.467  26.2220  0.00  0.00     0.000 OA
ATOM     72   O  A00 X   4      50.994  33.961  27.4980  0.00  0.00     0.000 OA
ATOM     73   O  A00 X   4      51.250  31.826  26.4190  0.00  0.00     0.000 O
ATOM     74   O  A00 X   4      52.615  32.345  28.3360  0.00  0.00     0.000 OA
ATOM     75   S  A00 X   4      51.996  32.960  27.2050  0.00  0.00     0.000 S
ENDBRANCH 62 70
ENDBRANCH 57 61
ENDBRANCH 41 57
ENDBRANCH 40 44
ENDBRANCH 20 40
ENDBRANCH 19 23
ENDBRANCH 1 19
TORSDOF 14
ENDMDL
MODEL 82
REMARK VINA RESULT:      -0.7     60.928     65.526
ROOT
ATOM      1  C1  A00 X   1      34.315  47.788  61.2950  0.00  0.00     0.000 C
ATOM      2  C2  A00 X   1      33.745  46.868  62.4080  0.00  0.00     0.000 C
ATOM      3  C3  A00 X   1      32.642  47.496  63.3220  0.00  0.00     0.000 C
ATOM      4  C4  A00 X   1      32.517  49.040  63.2530  0.00  0.00     0.000 C
ATOM      5  C5  A00 X   1      33.800  49.702  62.7520  0.00  0.00     0.000 C
ATOM      6  O5  A00 X   1      33.976  49.192  61.4110  0.00  0.00     0.000 O
ATOM      7   O  A00 X   1      32.936  47.174  64.6800  0.00  0.00     0.000 O
ATOM      9  HD  A00 X   1      32.675  48.000  64.6640  0.00  0.00     0.000 HD
ATOM      9   O  A00 X   1      31.417  49.438  62.4340  0.00  0.00     0.000 O
ATOM     11  HD  A00 X   1      31.157  50.264  62.4180  0.00  0.00     0.000 HD
ENDROOT
BRANCH 2 11
ATOM     11   O  A00 X   1      33.212  45.690  61.7720  0.00  0.00     0.000 O
ATOM     12   O  A00 X   1      32.361  43.837  63.0410  0.00  0.00     0.000 OA
ATOM     13   O  A00 X   1      34.719  44.410  63.2070  0.00  0.00     0.000 OA
ATOM     14   O  A00 X   1      33.836  43.517  61.1880  0.00  0.00     0.000 OA
ATOM     15   S  A00 X   1      33.557  44.283  62.3720  0.00  0.00     0.000 S
ENDBRANCH 2 11
BRANCH 5 16
ATOM     16   C  A00 X   1      35.026  49.501  63.6490  0.00  0.00     0.000 C
ATOM     17   O  A00 X   1      34.854  49.137  64.7940  0.00  0.00     0.000 OA
ATOM     18   O  A00 X   1      36.160  49.687  63.2550  0.00  0.00     0.000 OA
ENDBRANCH 5 16
BRANCH 1 19
ATOM     19  O4  A00 X   2      35.736  47.603  61.0870  0.00  0.00     0.000 O
BRANCH 19 23
ATOM     20  C1  A00 X   2      35.494  48.161  56.8450  0.00  0.00     0.000 C
ATOM     21  C2  A00 X   2      35.541  46.707  57.3730  0.00  0.00     0.000 C
ATOM     22  C3  A00 X   2      35.192  46.656  58.8750  0.00  0.00     0.000 C
ATOM     23  C4  A00 X   2      36.100  47.615  59.6770  0.00  0.00     0.000 C
ATOM     24  C5  A00 X   2      35.978  49.027  59.0410  0.00  0.00     0.000 C
ATOM     25  O5  A00 X   2      36.403  48.953  57.6550  0.00  0.00     0.000 O
ATOM     26   O  A00 X   2      35.182  45.282  59.2990  0.00  0.00     0.000 O
ATOM     28  HD  A00 X   2      35.959  45.117  58.9530  0.00  0.00     0.000 HD
BRANCH 21 30
ATOM     28   N  A00 X   2      36.310  46.340  56.1790  0.00  0.00     0.000 N
ATOM     30  HD  A00 X   2      36.023  45.601  56.5300  0.00  0.00     0.000 HD
ATOM     30   O  A00 X   2      35.784  44.131  55.6270  0.00  0.00     0.000 OA
ATOM     31   S  A00 X   2      36.904  44.878  56.0800  0.00  0.00     0.000 S
ATOM     32   O  A00 X   2      37.967  45.008  55.1320  0.00  0.00     0.000 OA
ATOM     33   O  A00 X   2      37.427  44.545  57.3710  0.00  0.00     0.000 OA
ENDBRANCH 21 30
BRANCH 24 34
ATOM     34   C  A00 X   2      36.610  50.220  59.7970  0.00  0.00     0.000 C
ATOM     35   O  A00 X   2      39.312  52.272  58.4750  0.00  0.00     0.000 OA
ATOM     36   O  A00 X   2      37.865  50.609  59.2030  0.00  0.00     0.000 O
ATOM     37   O  A00 X   2      37.255  51.919  57.3630  0.00  0.00     0.000 OA
ATOM     38   S  A00 X   2      37.908  52.072  58.6270  0.00  0.00     0.000 S
ATOM     39   O  A00 X   2      37.278  52.910  59.6020  0.00  0.00     0.000 OA
ENDBRANCH 24 34
BRANCH 20 40
ATOM     40  O4  A00 X   3      34.147  48.608  57.0590  0.00  0.00     0.000 O
BRANCH 40 44
ATOM     41  C1  A00 X   3      31.938  51.258  58.1630  0.00  0.00     0.000 C
ATOM     42  C2  A00 X   3      31.471  49.869  57.6770  0.00  0.00     0.000 C
ATOM     43  C3  A00 X   3      32.113  49.515  56.3110  0.00  0.00     0.000 C
ATOM     44  C4  A00 X   3      33.626  49.690  56.2570  0.00  0.00     0.000 C
ATOM     45  C5  A00 X   3      34.015  51.110  56.7560  0.00  0.00     0.000 C
ATOM     46  O5  A00 X   3      33.379  51.405  58.0410  0.00  0.00     0.000 O
ATOM     47   O  A00 X   3      31.686  48.288  55.7210  0.00  0.00     0.000 O
ATOM     49  HD  A00 X   3      32.522  48.233  55.5020  0.00  0.00     0.000 HD
BRANCH 42 49
ATOM     49   O  A00 X   3      31.843  48.917  58.6980  0.00  0.00     0.000 O
ATOM     50   O  A00 X   3      31.711  46.544  58.9830  0.00  0.00     0.000 OA
ATOM     51   O  A00 X   3      29.870  47.682  58.0340  0.00  0.00     0.000 OA
ATOM     52   O  A00 X   3      30.372  48.056  60.3130  0.00  0.00     0.000 OA
ATOM     53   S  A00 X   3      30.904  47.722  59.0370  0.00  0.00     0.000 S
ENDBRANCH 42 49
BRANCH 45 54
ATOM     54   C  A00 X   3      33.746  52.179  55.6900  0.00  0.00     0.000 C
ATOM     55   O  A00 X   3      33.151  51.899  54.6690  0.00  0.00     0.000 OA
ATOM     56   O  A00 X   3      34.126  53.329  55.8480  0.00  0.00     0.000 OA
ENDBRANCH 45 54
BRANCH 41 57
ATOM     57  O4  A00 X   4      31.184  52.323  57.5400  0.00  0.00     0.000 O
BRANCH 57 61
ATOM     58  C1  A00 X   4      29.895  56.206  58.9170  0.00  0.00     0.000 C
ATOM     59  C2  A00 X   4      31.414  55.911  58.8470  0.00  0.00     0.000 C
ATOM     60  C3  A00 X   4      31.759  54.658  58.0170  0.00  0.00     0.000 C
ATOM     61  C4  A00 X   4      30.877  53.452  58.4060  0.00  0.00     0.000 C
ATOM     62  C5  A00 X   4      29.409  53.902  58.2010  0.00  0.00     0.000 C
ATOM     63  O5  A00 X   4      29.117  55.001  59.1000  0.00  0.00     0.000 O
BRANCH 59 66
ATOM     64   N  A00 X   4      31.957  55.647  60.1920  0.00  0.00     0.000 N
ATOM     66  HD  A00 X   4      31.418  55.314  60.7820  0.00  0.00     0.000 HD
ATOM     66   O  A00 X   4      32.063  58.032  60.5080  0.00  0.00     0.000 OA
ATOM     67   S  A00 X   4      32.709  56.837  60.9520  0.00  0.00     0.000 S
ATOM     68   O  A00 X   4      32.460  56.471  62.3150  0.00  0.00     0.000 OA
ATOM     69   O  A00 X   4      34.057  56.603  60.5170  0.00  0.00     0.000 OA
ENDBRANCH 59 66
BRANCH 62 70
ATOM     70   C  A00 X   4      28.367  52.783  58.4370  0.00  0.00     0.000 C
ATOM     71   O  A00 X   4      27.426  51.187  61.5480  0.00  0.00     0.000 OA
ATOM     72   O  A00 X   4      28.014  50.260  59.4640  0.00  0.00     0.000 OA
ATOM     73   O  A00 X   4      28.144  52.631  59.8480  0.00  0.00     0.000 O
ATOM     74   O  A00 X   4      29.751  51.180  60.9050  0.00  0.00     0.000 OA
ATOM     75   S  A00 X   4      28.388  51.218  60.4810  0.00  0.00     0.000 S
ENDBRANCH 62 70
ENDBRANCH 57 61
ENDBRANCH 41 57
ENDBRANCH 40 44
ENDBRANCH 20 40
ENDBRANCH 19 23
ENDBRANCH 1 19
TORSDOF 14
ENDMDL
MODEL 83
REMARK VINA RESULT:      -0.7     24.281     29.718
ROOT
ATOM      1  C1  A00 X   1      12.568  21.540  38.2130  0.00  0.00     0.000 C
ATOM      2  C2  A00 X   1      13.418  20.798  39.2790  0.00  0.00     0.000 C
ATOM      3  C3  A00 X   1      12.663  20.361  40.5770  0.00  0.00     0.000 C
ATOM      4  C4  A00 X   1      11.283  21.029  40.8050  0.00  0.00     0.000 C
ATOM      5  C5  A00 X   1      11.150  22.352  40.0510  0.00  0.00     0.000 C
ATOM      6  O5  A00 X   1      11.264  21.992  38.6560  0.00  0.00     0.000 O
ATOM      7   O  A00 X   1      13.466  20.694  41.7070  0.00  0.00     0.000 O
ATOM      9  HD  A00 X   1      12.647  20.893  41.9080  0.00  0.00     0.000 HD
ATOM      9   O  A00 X   1      10.214  20.156  40.4390  0.00  0.00     0.000 O
ATOM     11  HD  A00 X   1       9.395  20.354  40.6400  0.00  0.00     0.000 HD
ENDROOT
BRANCH 2 11
ATOM     11   O  A00 X   1      13.988  19.633  38.6520  0.00  0.00     0.000 O
ATOM     12   O  A00 X   1      15.180  17.970  39.9090  0.00  0.00     0.000 OA
ATOM     13   O  A00 X   1      16.075  20.228  39.7730  0.00  0.00     0.000 OA
ATOM     14   O  A00 X   1      16.028  18.833  37.8470  0.00  0.00     0.000 OA
ATOM     15   S  A00 X   1      15.407  19.145  39.1060  0.00  0.00     0.000 S
ENDBRANCH 2 11
BRANCH 5 16
ATOM     16   C  A00 X   1      12.131  23.446  40.4840  0.00  0.00     0.000 C
ATOM     17   O  A00 X   1      12.189  24.467  39.8310  0.00  0.00     0.000 OA
ATOM     18   O  A00 X   1      12.847  23.330  41.4590  0.00  0.00     0.000 OA
ENDBRANCH 5 16
BRANCH 1 19
ATOM     19  O4  A00 X   2      13.299  22.601  37.5520  0.00  0.00     0.000 O
BRANCH 19 23
ATOM     20  C1  A00 X   2      11.718  21.687  33.6750  0.00  0.00     0.000 C
ATOM     21  C2  A00 X   2      13.126  21.144  34.0190  0.00  0.00     0.000 C
ATOM     22  C3  A00 X   2      13.369  21.172  35.5420  0.00  0.00     0.000 C
ATOM     23  C4  A00 X   2      13.118  22.589  36.1070  0.00  0.00     0.000 C
ATOM     24  C5  A00 X   2      11.689  23.022  35.6800  0.00  0.00     0.000 C
ATOM     25  O5  A00 X   2      11.614  23.024  34.2310  0.00  0.00     0.000 O
ATOM     26   O  A00 X   2      14.659  20.597  35.8140  0.00  0.00     0.000 O
ATOM     28  HD  A00 X   2      15.059  21.092  35.2270  0.00  0.00     0.000 HD
BRANCH 21 30
ATOM     28   N  A00 X   2      13.503  21.340  32.6150  0.00  0.00     0.000 N
ATOM     30  HD  A00 X   2      14.101  20.821  32.9660  0.00  0.00     0.000 HD
ATOM     30   O  A00 X   2      15.064  19.698  32.0460  0.00  0.00     0.000 OA
ATOM     31   S  A00 X   2      15.010  21.109  32.1960  0.00  0.00     0.000 S
ATOM     32   O  A00 X   2      15.140  21.851  30.9800  0.00  0.00     0.000 OA
ATOM     33   O  A00 X   2      15.828  21.685  33.2210  0.00  0.00     0.000 OA
ENDBRANCH 21 30
BRANCH 24 34
ATOM     34   C  A00 X   2      11.102  24.308  36.3100  0.00  0.00     0.000 C
ATOM     35   O  A00 X   2      12.660  27.591  36.0720  0.00  0.00     0.000 OA
ATOM     36   O  A00 X   2      12.087  25.360  36.3620  0.00  0.00     0.000 O
ATOM     37   O  A00 X   2      12.095  26.257  34.2020  0.00  0.00     0.000 OA
ATOM     38   S  A00 X   2      11.736  26.648  35.5310  0.00  0.00     0.000 S
ATOM     39   O  A00 X   2      10.357  26.934  35.7890  0.00  0.00     0.000 OA
ENDBRANCH 24 34
BRANCH 20 40
ATOM     40  O4  A00 X   3      10.793  20.816  34.3440  0.00  0.00     0.000 O
BRANCH 40 44
ATOM     41  C1  A00 X   3       7.785  20.536  36.3420  0.00  0.00     0.000 C
ATOM     42  C2  A00 X   3       8.667  19.346  35.9090  0.00  0.00     0.000 C
ATOM     43  C3  A00 X   3       8.935  19.379  34.3830  0.00  0.00     0.000 C
ATOM     44  C4  A00 X   3       9.437  20.718  33.8570  0.00  0.00     0.000 C
ATOM     45  C5  A00 X   3       8.497  21.862  34.3290  0.00  0.00     0.000 C
ATOM     46  O5  A00 X   3       8.264  21.786  35.7720  0.00  0.00     0.000 O
ATOM     47   O  A00 X   3       9.670  18.277  33.8550  0.00  0.00     0.000 O
ATOM     49  HD  A00 X   3      10.034  18.896  33.3720  0.00  0.00     0.000 HD
BRANCH 42 49
ATOM     49   O  A00 X   3       9.897  19.435  36.6630  0.00  0.00     0.000 O
ATOM     50   O  A00 X   3      11.967  18.236  36.7480  0.00  0.00     0.000 OA
ATOM     51   O  A00 X   3       9.951  17.018  36.5490  0.00  0.00     0.000 OA
ATOM     52   O  A00 X   3      10.383  18.159  38.5730  0.00  0.00     0.000 OA
ATOM     53   S  A00 X   3      10.604  18.144  37.1680  0.00  0.00     0.000 S
ENDBRANCH 42 49
BRANCH 45 54
ATOM     54   C  A00 X   3       7.201  21.905  33.5100  0.00  0.00     0.000 C
ATOM     55   O  A00 X   3       6.971  21.059  32.6700  0.00  0.00     0.000 OA
ATOM     56   O  A00 X   3       6.379  22.791  33.6870  0.00  0.00     0.000 OA
ENDBRANCH 45 54
BRANCH 41 57
ATOM     57  O4  A00 X   4       6.384  20.279  36.0970  0.00  0.00     0.000 O
BRANCH 57 61
ATOM     58  C1  A00 X   4       2.777  21.412  38.1820  0.00  0.00     0.000 C
ATOM     59  C2  A00 X   4       3.669  22.528  37.5830  0.00  0.00     0.000 C
ATOM     60  C3  A00 X   4       4.711  22.007  36.5730  0.00  0.00     0.000 C
ATOM     61  C4  A00 X   4       5.475  20.781  37.1180  0.00  0.00     0.000 C
ATOM     62  C5  A00 X   4       4.404  19.714  37.4550  0.00  0.00     0.000 C
ATOM     63  O5  A00 X   4       3.536  20.223  38.4990  0.00  0.00     0.000 O
BRANCH 59 66
ATOM     64   N  A00 X   4       4.417  23.117  38.7090  0.00  0.00     0.000 N
ATOM     66  HD  A00 X   4       4.552  22.618  39.4040  0.00  0.00     0.000 HD
ATOM     66   O  A00 X   4       2.497  24.510  39.1250  0.00  0.00     0.000 OA
ATOM     67   S  A00 X   4       3.915  24.515  39.3030  0.00  0.00     0.000 S
ATOM     68   O  A00 X   4       4.368  24.398  40.6580  0.00  0.00     0.000 OA
ATOM     69   O  A00 X   4       4.687  25.422  38.5010  0.00  0.00     0.000 OA
ENDBRANCH 59 66
BRANCH 62 70
ATOM     70   C  A00 X   4       4.988  18.358  37.9180  0.00  0.00     0.000 C
ATOM     71   O  A00 X   4       6.707  17.572  41.0060  0.00  0.00     0.000 OA
ATOM     72   O  A00 X   4       7.277  17.102  38.7700  0.00  0.00     0.000 OA
ATOM     73   O  A00 X   4       5.356  18.448  39.3040  0.00  0.00     0.000 O
ATOM     74   O  A00 X   4       7.561  19.363  39.6350  0.00  0.00     0.000 OA
ATOM     75   S  A00 X   4       6.843  18.130  39.6900  0.00  0.00     0.000 S
ENDBRANCH 62 70
ENDBRANCH 57 61
ENDBRANCH 41 57
ENDBRANCH 40 44
ENDBRANCH 20 40
ENDBRANCH 19 23
ENDBRANCH 1 19
TORSDOF 14
ENDMDL
MODEL 84
REMARK VINA RESULT:      -0.7     64.279     68.417
ROOT
ATOM      1  C1  A00 X   1      36.663  52.111  61.2740  0.00  0.00     0.000 C
ATOM      2  C2  A00 X   1      36.461  51.099  62.4340  0.00  0.00     0.000 C
ATOM      3  C3  A00 X   1      35.296  51.417  63.4280  0.00  0.00     0.000 C
ATOM      4  C4  A00 X   1      34.734  52.860  63.3600  0.00  0.00     0.000 C
ATOM      5  C5  A00 X   1      35.736  53.843  62.7550  0.00  0.00     0.000 C
ATOM      6  O5  A00 X   1      35.950  53.366  61.4070  0.00  0.00     0.000 O
ATOM      7   O  A00 X   1      35.768  51.229  64.7600  0.00  0.00     0.000 O
ATOM      9  HD  A00 X   1      35.284  51.947  64.7600  0.00  0.00     0.000 HD
ATOM      9   O  A00 X   1      33.509  52.909  62.6280  0.00  0.00     0.000 O
ATOM     11  HD  A00 X   1      33.025  53.627  62.6280  0.00  0.00     0.000 HD
ENDROOT
BRANCH 2 11
ATOM     11   O  A00 X   1      36.238  49.802  61.8490  0.00  0.00     0.000 O
ATOM     12   O  A00 X   1      35.631  47.897  63.1790  0.00  0.00     0.000 OA
ATOM     13   O  A00 X   1      37.801  48.942  63.5180  0.00  0.00     0.000 OA
ATOM     14   O  A00 X   1      37.330  47.767  61.5040  0.00  0.00     0.000 OA
ATOM     15   S  A00 X   1      36.782  48.532  62.5910  0.00  0.00     0.000 S
ENDBRANCH 2 11
BRANCH 5 16
ATOM     16   C  A00 X   1      37.031  54.021  63.5540  0.00  0.00     0.000 C
ATOM     17   O  A00 X   1      37.053  53.663  64.7140  0.00  0.00     0.000 OA
ATOM     18   O  A00 X   1      38.036  54.500  63.0680  0.00  0.00     0.000 OA
ENDBRANCH 5 16
BRANCH 1 19
ATOM     19  O4  A00 X   2      38.059  52.329  60.9550  0.00  0.00     0.000 O
BRANCH 19 23
ATOM     20  C1  A00 X   2      37.382  52.527  56.7280  0.00  0.00     0.000 C
ATOM     21  C2  A00 X   2      37.860  51.175  57.3130  0.00  0.00     0.000 C
ATOM     22  C3  A00 X   2      37.642  51.130  58.8400  0.00  0.00     0.000 C
ATOM     23  C4  A00 X   2      38.308  52.347  59.5210  0.00  0.00     0.000 C
ATOM     24  C5  A00 X   2      37.763  53.630  58.8360  0.00  0.00     0.000 C
ATOM     25  O5  A00 X   2      38.094  53.584  57.4240  0.00  0.00     0.000 O
ATOM     26   O  A00 X   2      38.036  49.834  59.3230  0.00  0.00     0.000 O
ATOM     28  HD  A00 X   2      38.803  49.861  58.9200  0.00  0.00     0.000 HD
BRANCH 21 30
ATOM     28   N  A00 X   2      38.616  50.951  56.0770  0.00  0.00     0.000 N
ATOM     30  HD  A00 X   2      38.566  50.188  56.4820  0.00  0.00     0.000 HD
ATOM     30   O  A00 X   2      38.675  48.652  55.6670  0.00  0.00     0.000 OA
ATOM     31   S  A00 X   2      39.577  49.699  55.9920  0.00  0.00     0.000 S
ATOM     32   O  A00 X   2      40.497  50.048  54.9540  0.00  0.00     0.000 OA
ATOM     33   O  A00 X   2      40.258  49.603  57.2490  0.00  0.00     0.000 OA
ENDBRANCH 21 30
BRANCH 24 34
ATOM     34   C  A00 X   2      38.096  54.995  59.4840  0.00  0.00     0.000 C
ATOM     35   O  A00 X   2      40.043  57.605  57.8540  0.00  0.00     0.000 OA
ATOM     36   O  A00 X   2      39.154  55.667  58.7710  0.00  0.00     0.000 O
ATOM     37   O  A00 X   2      38.089  56.643  56.9320  0.00  0.00     0.000 OA
ATOM     38   S  A00 X   2      38.760  57.047  58.1300  0.00  0.00     0.000 S
ATOM     39   O  A00 X   2      37.993  57.748  59.1160  0.00  0.00     0.000 OA
ENDBRANCH 24 34
BRANCH 20 40
ATOM     40  O4  A00 X   3      35.983  52.609  57.0350  0.00  0.00     0.000 O
BRANCH 40 44
ATOM     41  C1  A00 X   3      33.224  54.631  58.2290  0.00  0.00     0.000 C
ATOM     42  C2  A00 X   3      33.116  53.144  57.8260  0.00  0.00     0.000 C
ATOM     43  C3  A00 X   3      33.733  52.902  56.4250  0.00  0.00     0.000 C
ATOM     44  C4  A00 X   3      35.135  53.469  56.2440  0.00  0.00     0.000 C
ATOM     45  C5  A00 X   3      35.162  54.966  56.6640  0.00  0.00     0.000 C
ATOM     46  O5  A00 X   3      34.561  55.149  57.9860  0.00  0.00     0.000 O
ATOM     47   O  A00 X   3      33.612  51.577  55.9110  0.00  0.00     0.000 O
ATOM     49  HD  A00 X   3      34.415  51.735  55.6270  0.00  0.00     0.000 HD
BRANCH 42 49
ATOM     49   O  A00 X   3      33.799  52.379  58.8430  0.00  0.00     0.000 O
ATOM     50   O  A00 X   3      34.329  50.075  59.2150  0.00  0.00     0.000 OA
ATOM     51   O  A00 X   3      32.188  50.633  58.3820  0.00  0.00     0.000 OA
ATOM     52   O  A00 X   3      32.730  51.246  60.6000  0.00  0.00     0.000 OA
ATOM     53   S  A00 X   3      33.242  50.999  59.2960  0.00  0.00     0.000 S
ENDBRANCH 42 49
BRANCH 45 54
ATOM     54   C  A00 X   3      34.543  55.868  55.5890  0.00  0.00     0.000 C
ATOM     55   O  A00 X   3      34.584  57.076  55.6970  0.00  0.00     0.000 OA
ATOM     56   O  A00 X   3      33.996  55.387  54.6090  0.00  0.00     0.000 OA
ENDBRANCH 45 54
BRANCH 41 57
ATOM     57  O4  A00 X   4      32.171  55.423  57.6350  0.00  0.00     0.000 O
BRANCH 57 61
ATOM     58  C1  A00 X   4      29.973  58.882  58.9920  0.00  0.00     0.000 C
ATOM     59  C2  A00 X   4      31.506  59.003  58.8090  0.00  0.00     0.000 C
ATOM     60  C3  A00 X   4      32.121  57.848  57.9930  0.00  0.00     0.000 C
ATOM     61  C4  A00 X   4      31.629  56.471  58.4880  0.00  0.00     0.000 C
ATOM     62  C5  A00 X   4      30.084  56.498  58.3880  0.00  0.00     0.000 C
ATOM     63  O5  A00 X   4      29.566  57.523  59.2740  0.00  0.00     0.000 O
BRANCH 59 66
ATOM     64   N  A00 X   4      32.195  58.964  60.1120  0.00  0.00     0.000 N
ATOM     66  HD  A00 X   4      31.811  58.528  60.7550  0.00  0.00     0.000 HD
ATOM     66   O  A00 X   4      31.667  61.302  60.3480  0.00  0.00     0.000 OA
ATOM     67   S  A00 X   4      32.645  60.350  60.7720  0.00  0.00     0.000 S
ATOM     68   O  A00 X   4      32.603  59.999  62.1620  0.00  0.00     0.000 OA
ATOM     69   O  A00 X   4      33.971  60.467  60.2350  0.00  0.00     0.000 OA
ENDBRANCH 59 66
BRANCH 62 70
ATOM     70   C  A00 X   4      29.403  55.154  58.7410  0.00  0.00     0.000 C
ATOM     71   O  A00 X   4      29.132  53.535  61.9680  0.00  0.00     0.000 OA
ATOM     72   O  A00 X   4      29.818  52.689  59.8800  0.00  0.00     0.000 OA
ATOM     73   O  A00 X   4      29.319  55.025  60.1690  0.00  0.00     0.000 O
ATOM     74   O  A00 X   4      31.324  54.121  61.1530  0.00  0.00     0.000 OA
ATOM     75   S  A00 X   4      29.980  53.766  60.8320  0.00  0.00     0.000 S
ENDBRANCH 62 70
ENDBRANCH 57 61
ENDBRANCH 41 57
ENDBRANCH 40 44
ENDBRANCH 20 40
ENDBRANCH 19 23
ENDBRANCH 1 19
TORSDOF 14
ENDMDL
MODEL 85
REMARK VINA RESULT:      -0.7     41.516     45.676
ROOT
ATOM      1  C1  A00 X   1      44.560  23.890  44.5670  0.00  0.00     0.000 C
ATOM      2  C2  A00 X   1      45.727  22.944  44.9570  0.00  0.00     0.000 C
ATOM      3  C3  A00 X   1      45.448  21.960  46.1410  0.00  0.00     0.000 C
ATOM      4  C4  A00 X   1      44.206  22.292  47.0070  0.00  0.00     0.000 C
ATOM      5  C5  A00 X   1      43.807  23.764  46.9050  0.00  0.00     0.000 C
ATOM      6  O5  A00 X   1      43.465  23.956  45.5140  0.00  0.00     0.000 O
ATOM      7   O  A00 X   1      46.570  21.974  47.0210  0.00  0.00     0.000 O
ATOM      9  HD  A00 X   1      45.859  21.964  47.5140  0.00  0.00     0.000 HD
ATOM      9   O  A00 X   1      43.094  21.466  46.6620  0.00  0.00     0.000 O
ATOM     11  HD  A00 X   1      42.382  21.457  47.1560  0.00  0.00     0.000 HD
ENDROOT
BRANCH 2 11
ATOM     11   O  A00 X   1      46.083  22.181  43.7870  0.00  0.00     0.000 O
ATOM     12   O  A00 X   1      47.979  20.707  43.7600  0.00  0.00     0.000 OA
ATOM     13   O  A00 X   1      48.332  23.096  44.0530  0.00  0.00     0.000 OA
ATOM     14   O  A00 X   1      47.554  22.239  41.9750  0.00  0.00     0.000 OA
ATOM     15   S  A00 X   1      47.596  22.049  43.4000  0.00  0.00     0.000 S
ENDBRANCH 2 11
BRANCH 5 16
ATOM     16   C  A00 X   1      44.854  24.756  47.4210  0.00  0.00     0.000 C
ATOM     17   O  A00 X   1      45.744  24.342  48.1350  0.00  0.00     0.000 OA
ATOM     18   O  A00 X   1      44.830  25.937  47.1360  0.00  0.00     0.000 OA
ENDBRANCH 5 16
BRANCH 1 19
ATOM     19  O4  A00 X   2      45.013  25.213  44.1900  0.00  0.00     0.000 O
BRANCH 19 23
ATOM     20  C1  A00 X   2      42.028  25.699  41.1530  0.00  0.00     0.000 C
ATOM     21  C2  A00 X   2      43.439  25.252  40.7030  0.00  0.00     0.000 C
ATOM     22  C3  A00 X   2      44.252  24.710  41.8970  0.00  0.00     0.000 C
ATOM     23  C4  A00 X   2      44.288  25.746  43.0440  0.00  0.00     0.000 C
ATOM     24  C5  A00 X   2      42.822  26.125  43.3880  0.00  0.00     0.000 C
ATOM     25  O5  A00 X   2      42.194  26.686  42.2060  0.00  0.00     0.000 O
ATOM     26   O  A00 X   2      45.524  24.245  41.4170  0.00  0.00     0.000 O
ATOM     28  HD  A00 X   2      45.685  24.978  40.9840  0.00  0.00     0.000 HD
BRANCH 21 30
ATOM     28   N  A00 X   2      43.251  26.029  39.4730  0.00  0.00     0.000 N
ATOM     30  HD  A00 X   2      43.920  25.496  39.3340  0.00  0.00     0.000 HD
ATOM     30   O  A00 X   2      44.414  24.959  37.7520  0.00  0.00     0.000 OA
ATOM     31   S  A00 X   2      44.470  26.179  38.4770  0.00  0.00     0.000 S
ATOM     32   O  A00 X   2      44.145  27.347  37.7200  0.00  0.00     0.000 OA
ATOM     33   O  A00 X   2      45.640  26.409  39.2710  0.00  0.00     0.000 OA
ENDBRANCH 21 30
BRANCH 24 34
ATOM     34   C  A00 X   2      42.570  26.972  44.6580  0.00  0.00     0.000 C
ATOM     35   O  A00 X   2      41.045  30.278  44.6340  0.00  0.00     0.000 OA
ATOM     36   O  A00 X   2      42.293  28.347  44.3220  0.00  0.00     0.000 O
ATOM     37   O  A00 X   2      40.037  28.351  43.7040  0.00  0.00     0.000 OA
ATOM     38   S  A00 X   2      40.872  28.867  44.7460  0.00  0.00     0.000 S
ATOM     39   O  A00 X   2      40.645  28.387  46.0760  0.00  0.00     0.000 OA
ENDBRANCH 24 34
BRANCH 20 40
ATOM     40  O4  A00 X   3      41.402  24.525  41.6910  0.00  0.00     0.000 O
BRANCH 40 44
ATOM     41  C1  A00 X   3      39.364  23.034  44.2890  0.00  0.00     0.000 C
ATOM     42  C2  A00 X   3      39.987  22.261  43.1060  0.00  0.00     0.000 C
ATOM     43  C3  A00 X   3      39.659  22.951  41.7570  0.00  0.00     0.000 C
ATOM     44  C4  A00 X   3      39.960  24.444  41.7200  0.00  0.00     0.000 C
ATOM     45  C5  A00 X   3      39.298  25.152  42.9350  0.00  0.00     0.000 C
ATOM     46  O5  A00 X   3      39.626  24.461  44.1850  0.00  0.00     0.000 O
ATOM     47   O  A00 X   3      40.111  22.276  40.5850  0.00  0.00     0.000 O
ATOM     49  HD  A00 X   3      40.282  23.083  40.3230  0.00  0.00     0.000 HD
BRANCH 42 49
ATOM     49   O  A00 X   3      41.411  22.207  43.3390  0.00  0.00     0.000 O
ATOM     50   O  A00 X   3      43.325  21.353  42.1810  0.00  0.00     0.000 OA
ATOM     51   O  A00 X   3      41.347  20.059  42.2270  0.00  0.00     0.000 OA
ATOM     52   O  A00 X   3      42.544  20.360  44.2430  0.00  0.00     0.000 OA
ATOM     53   S  A00 X   3      42.219  20.926  42.9790  0.00  0.00     0.000 S
ENDBRANCH 42 49
BRANCH 45 54
ATOM     54   C  A00 X   3      37.790  25.342  42.7290  0.00  0.00     0.000 C
ATOM     55   O  A00 X   3      37.152  26.068  43.4630  0.00  0.00     0.000 OA
ATOM     56   O  A00 X   3      37.205  24.766  41.8240  0.00  0.00     0.000 OA
ENDBRANCH 45 54
BRANCH 41 57
ATOM     57  O4  A00 X   4      37.968  22.704  44.4660  0.00  0.00     0.000 O
BRANCH 57 61
ATOM     58  C1  A00 X   4      35.425  22.468  47.9470  0.00  0.00     0.000 C
ATOM     59  C2  A00 X   4      36.069  23.831  47.5910  0.00  0.00     0.000 C
ATOM     60  C3  A00 X   4      36.647  23.883  46.1620  0.00  0.00     0.000 C
ATOM     61  C4  A00 X   4      37.518  22.648  45.8500  0.00  0.00     0.000 C
ATOM     62  C5  A00 X   4      36.613  21.410  46.0680  0.00  0.00     0.000 C
ATOM     63  O5  A00 X   4      36.208  21.355  47.4600  0.00  0.00     0.000 O
BRANCH 59 66
ATOM     64   N  A00 X   4      37.210  24.117  48.4800  0.00  0.00     0.000 N
ATOM     66  HD  A00 X   4      37.639  23.441  48.8090  0.00  0.00     0.000 HD
ATOM     66   O  A00 X   4      35.615  24.884  50.1130  0.00  0.00     0.000 OA
ATOM     67   S  A00 X   4      36.974  25.095  49.7230  0.00  0.00     0.000 S
ATOM     68   O  A00 X   4      37.962  24.597  50.6350  0.00  0.00     0.000 OA
ATOM     69   O  A00 X   4      37.310  26.354  49.1220  0.00  0.00     0.000 OA
ENDBRANCH 59 66
BRANCH 62 70
ATOM     70   C  A00 X   4      37.281  20.065  45.6970  0.00  0.00     0.000 C
ATOM     71   O  A00 X   4      40.010  18.361  47.3560  0.00  0.00     0.000 OA
ATOM     72   O  A00 X   4      39.678  18.873  45.0820  0.00  0.00     0.000 OA
ATOM     73   O  A00 X   4      38.148  19.654  46.7660  0.00  0.00     0.000 O
ATOM     74   O  A00 X   4      40.344  20.635  46.6280  0.00  0.00     0.000 OA
ATOM     75   S  A00 X   4      39.658  19.399  46.4290  0.00  0.00     0.000 S
ENDBRANCH 62 70
ENDBRANCH 57 61
ENDBRANCH 41 57
ENDBRANCH 40 44
ENDBRANCH 20 40
ENDBRANCH 19 23
ENDBRANCH 1 19
TORSDOF 14
ENDMDL
MODEL 86
REMARK VINA RESULT:      -0.7     56.472     61.222
ROOT
ATOM      1  C1  A00 X   1      41.578  51.589  47.4930  0.00  0.00     0.000 C
ATOM      2  C2  A00 X   1      41.081  52.256  48.8030  0.00  0.00     0.000 C
ATOM      3  C3  A00 X   1      42.051  53.296  49.4550  0.00  0.00     0.000 C
ATOM      4  C4  A00 X   1      43.512  53.264  48.9370  0.00  0.00     0.000 C
ATOM      5  C5  A00 X   1      43.873  51.917  48.3120  0.00  0.00     0.000 C
ATOM      6  O5  A00 X   1      42.980  51.784  47.1830  0.00  0.00     0.000 O
ATOM      7   O  A00 X   1      42.113  53.046  50.8580  0.00  0.00     0.000 O
ATOM      9  HD  A00 X   1      42.919  53.222  50.5940  0.00  0.00     0.000 HD
ATOM      9   O  A00 X   1      43.756  54.312  47.9990  0.00  0.00     0.000 O
ATOM     11  HD  A00 X   1      44.562  54.488  47.7350  0.00  0.00     0.000 HD
ENDROOT
BRANCH 2 11
ATOM     11   O  A00 X   1      39.825  52.901  48.5170  0.00  0.00     0.000 O
ATOM     12   O  A00 X   1      38.729  54.315  50.1210  0.00  0.00     0.000 OA
ATOM     13   O  A00 X   1      39.025  51.953  50.6210  0.00  0.00     0.000 OA
ATOM     14   O  A00 X   1      37.536  52.642  48.8990  0.00  0.00     0.000 OA
ATOM     15   S  A00 X   1      38.729  52.957  49.6370  0.00  0.00     0.000 S
ENDBRANCH 2 11
BRANCH 5 16
ATOM     16   C  A00 X   1      43.829  50.724  49.2730  0.00  0.00     0.000 C
ATOM     17   O  A00 X   1      43.837  50.939  50.4670  0.00  0.00     0.000 OA
ATOM     18   O  A00 X   1      43.778  49.575  48.8820  0.00  0.00     0.000 OA
ENDBRANCH 5 16
BRANCH 1 19
ATOM     19  O4  A00 X   2      41.206  50.192  47.3980  0.00  0.00     0.000 O
BRANCH 19 23
ATOM     20  C1  A00 X   2      40.284  50.407  43.2190  0.00  0.00     0.000 C
ATOM     21  C2  A00 X   2      39.104  50.498  44.2160  0.00  0.00     0.000 C
ATOM     22  C3  A00 X   2      39.608  50.841  45.6340  0.00  0.00     0.000 C
ATOM     23  C4  A00 X   2      40.696  49.838  46.0810  0.00  0.00     0.000 C
ATOM     24  C5  A00 X   2      41.805  49.825  44.9940  0.00  0.00     0.000 C
ATOM     25  O5  A00 X   2      41.218  49.419  43.7310  0.00  0.00     0.000 O
ATOM     26   O  A00 X   2      38.473  50.982  46.5060  0.00  0.00     0.000 O
ATOM     28  HD  A00 X   2      38.126  50.228  46.2590  0.00  0.00     0.000 HD
BRANCH 21 30
ATOM     28   N  A00 X   2      38.277  49.780  43.2420  0.00  0.00     0.000 N
ATOM     30  HD  A00 X   2      37.735  50.132  43.8190  0.00  0.00     0.000 HD
ATOM     30   O  A00 X   2      36.073  50.519  43.4730  0.00  0.00     0.000 OA
ATOM     31   S  A00 X   2      36.822  49.329  43.6680  0.00  0.00     0.000 S
ATOM     32   O  A00 X   2      36.517  48.268  42.7590  0.00  0.00     0.000 OA
ATOM     33   O  A00 X   2      36.909  48.828  45.0070  0.00  0.00     0.000 OA
ENDBRANCH 21 30
BRANCH 24 34
ATOM     34   C  A00 X   2      43.121  49.075  45.3100  0.00  0.00     0.000 C
ATOM     35   O  A00 X   2      43.294  45.554  46.2210  0.00  0.00     0.000 OA
ATOM     36   O  A00 X   2      42.862  47.821  45.9720  0.00  0.00     0.000 O
ATOM     37   O  A00 X   2      42.281  46.358  44.2410  0.00  0.00     0.000 OA
ATOM     38   S  A00 X   2      43.335  46.540  45.1920  0.00  0.00     0.000 S
ATOM     39   O  A00 X   2      44.642  46.835  44.6850  0.00  0.00     0.000 OA
ENDBRANCH 24 34
BRANCH 20 40
ATOM     40  O4  A00 X   3      40.901  51.702  43.2290  0.00  0.00     0.000 O
BRANCH 40 44
ATOM     41  C1  A00 X   3      43.968  53.627  43.3450  0.00  0.00     0.000 C
ATOM     42  C2  A00 X   3      42.549  54.234  43.3130  0.00  0.00     0.000 C
ATOM     43  C3  A00 X   3      41.712  53.629  42.1570  0.00  0.00     0.000 C
ATOM     44  C4  A00 X   3      41.712  52.106  42.1040  0.00  0.00     0.000 C
ATOM     45  C5  A00 X   3      43.172  51.573  42.1340  0.00  0.00     0.000 C
ATOM     46  O5  A00 X   3      43.927  52.178  43.2340  0.00  0.00     0.000 O
ATOM     47   O  A00 X   3      40.408  54.179  41.9770  0.00  0.00     0.000 O
ATOM     49  HD  A00 X   3      40.204  53.353  41.8170  0.00  0.00     0.000 HD
BRANCH 42 49
ATOM     49   O  A00 X   3      41.945  53.966  44.5980  0.00  0.00     0.000 O
ATOM     50   O  A00 X   3      39.819  54.352  45.6280  0.00  0.00     0.000 OA
ATOM     51   O  A00 X   3      40.772  56.062  44.3020  0.00  0.00     0.000 OA
ATOM     52   O  A00 X   3      41.809  55.517  46.3550  0.00  0.00     0.000 OA
ATOM     53   S  A00 X   3      41.028  55.027  45.2730  0.00  0.00     0.000 S
ENDBRANCH 42 49
BRANCH 45 54
ATOM     54   C  A00 X   3      43.860  51.727  40.7730  0.00  0.00     0.000 C
ATOM     55   O  A00 X   3      44.923  51.183  40.5520  0.00  0.00     0.000 OA
ATOM     56   O  A00 X   3      43.354  52.400  39.8880  0.00  0.00     0.000 OA
ENDBRANCH 45 54
BRANCH 41 57
ATOM     57  O4  A00 X   4      44.842  54.264  42.3870  0.00  0.00     0.000 O
BRANCH 57 61
ATOM     58  C1  A00 X   4      49.076  55.112  42.3800  0.00  0.00     0.000 C
ATOM     59  C2  A00 X   4      48.616  53.634  42.4470  0.00  0.00     0.000 C
ATOM     60  C3  A00 X   4      47.130  53.436  42.0840  0.00  0.00     0.000 C
ATOM     61  C4  A00 X   4      46.220  54.438  42.8260  0.00  0.00     0.000 C
ATOM     62  C5  A00 X   4      46.729  55.851  42.4500  0.00  0.00     0.000 C
ATOM     63  O5  A00 X   4      48.088  56.012  42.9310  0.00  0.00     0.000 O
BRANCH 59 66
ATOM     64   N  A00 X   4      48.758  53.128  43.8240  0.00  0.00     0.000 N
ATOM     66  HD  A00 X   4      48.704  53.704  44.4690  0.00  0.00     0.000 HD
ATOM     66   O  A00 X   4      51.084  52.740  43.3340  0.00  0.00     0.000 OA
ATOM     67   S  A00 X   4      50.042  52.242  44.1760  0.00  0.00     0.000 S
ATOM     68   O  A00 X   4      50.184  52.535  45.5720  0.00  0.00     0.000 OA
ATOM     69   O  A00 X   4      49.528  50.930  43.8990  0.00  0.00     0.000 OA
ENDBRANCH 59 66
BRANCH 62 70
ATOM     70   C  A00 X   4      45.867  57.005  43.0150  0.00  0.00     0.000 C
ATOM     71   O  A00 X   4      45.497  58.076  46.4540  0.00  0.00     0.000 OA
ATOM     72   O  A00 X   4      43.878  57.615  44.8080  0.00  0.00     0.000 OA
ATOM     73   O  A00 X   4      46.215  57.227  44.3910  0.00  0.00     0.000 O
ATOM     74   O  A00 X   4      45.034  55.774  45.9080  0.00  0.00     0.000 OA
ATOM     75   S  A00 X   4      45.072  57.129  45.4620  0.00  0.00     0.000 S
ENDBRANCH 62 70
ENDBRANCH 57 61
ENDBRANCH 41 57
ENDBRANCH 40 44
ENDBRANCH 20 40
ENDBRANCH 19 23
ENDBRANCH 1 19
TORSDOF 14
ENDMDL
MODEL 87
REMARK VINA RESULT:      -0.7     27.862     32.251
ROOT
ATOM      1  C1  A00 X   1      36.220  31.909  13.7140  0.00  0.00     0.000 C
ATOM      2  C2  A00 X   1      34.921  31.435  14.4180  0.00  0.00     0.000 C
ATOM      3  C3  A00 X   1      33.611  32.197  14.0300  0.00  0.00     0.000 C
ATOM      4  C4  A00 X   1      33.816  33.544  13.2900  0.00  0.00     0.000 C
ATOM      5  C5  A00 X   1      35.200  34.140  13.5490  0.00  0.00     0.000 C
ATOM      6  O5  A00 X   1      36.124  33.170  13.0070  0.00  0.00     0.000 O
ATOM      7   O  A00 X   1      32.886  32.496  15.2210  0.00  0.00     0.000 O
ATOM      9  HD  A00 X   1      32.839  33.194  14.7110  0.00  0.00     0.000 HD
ATOM      9   O  A00 X   1      33.606  33.404  11.8850  0.00  0.00     0.000 O
ATOM     11  HD  A00 X   1      33.559  34.103  11.3760  0.00  0.00     0.000 HD
ENDROOT
BRANCH 2 11
ATOM     11   O  A00 X   1      34.751  30.033  14.1290  0.00  0.00     0.000 O
ATOM     12   O  A00 X   1      32.762  28.840  14.7490  0.00  0.00     0.000 OA
ATOM     13   O  A00 X   1      34.188  29.762  16.4910  0.00  0.00     0.000 OA
ATOM     14   O  A00 X   1      34.940  27.944  15.1540  0.00  0.00     0.000 OA
ATOM     15   S  A00 X   1      34.099  29.109  15.2140  0.00  0.00     0.000 S
ENDBRANCH 2 11
BRANCH 5 16
ATOM     16   C  A00 X   1      35.483  34.509  15.0090  0.00  0.00     0.000 C
ATOM     17   O  A00 X   1      34.547  34.618  15.7730  0.00  0.00     0.000 OA
ATOM     18   O  A00 X   1      36.609  34.689  15.4280  0.00  0.00     0.000 OA
ENDBRANCH 5 16
BRANCH 1 19
ATOM     19  O4  A00 X   2      37.375  31.879  14.5870  0.00  0.00     0.000 O
BRANCH 19 23
ATOM     20  C1  A00 X   2      40.026  30.451  11.5380  0.00  0.00     0.000 C
ATOM     21  C2  A00 X   2      39.437  29.408  12.5180  0.00  0.00     0.000 C
ATOM     22  C3  A00 X   2      38.205  29.978  13.2520  0.00  0.00     0.000 C
ATOM     23  C4  A00 X   2      38.552  31.318  13.9380  0.00  0.00     0.000 C
ATOM     24  C5  A00 X   2      39.147  32.264  12.8590  0.00  0.00     0.000 C
ATOM     25  O5  A00 X   2      40.336  31.647  12.3010  0.00  0.00     0.000 O
ATOM     26   O  A00 X   2      37.655  28.952  14.0960  0.00  0.00     0.000 O
ATOM     28  HD  A00 X   2      38.421  28.769  14.4570  0.00  0.00     0.000 HD
BRANCH 21 30
ATOM     28   N  A00 X   2      40.700  28.669  12.4330  0.00  0.00     0.000 N
ATOM     30  HD  A00 X   2      40.118  28.130  12.7780  0.00  0.00     0.000 HD
ATOM     30   O  A00 X   2      40.231  26.394  12.6830  0.00  0.00     0.000 OA
ATOM     31   S  A00 X   2      40.916  27.423  13.3810  0.00  0.00     0.000 S
ATOM     32   O  A00 X   2      42.338  27.277  13.4300  0.00  0.00     0.000 OA
ATOM     33   O  A00 X   2      40.408  27.781  14.6720  0.00  0.00     0.000 OA
ENDBRANCH 21 30
BRANCH 24 34
ATOM     34   C  A00 X   2      39.365  33.748  13.2370  0.00  0.00     0.000 C
ATOM     35   O  A00 X   2      41.428  34.864  16.0210  0.00  0.00     0.000 OA
ATOM     36   O  A00 X   2      39.919  33.875  14.5610  0.00  0.00     0.000 O
ATOM     37   O  A00 X   2      42.205  33.467  14.2780  0.00  0.00     0.000 OA
ATOM     38   S  A00 X   2      41.338  34.549  14.6330  0.00  0.00     0.000 S
ATOM     39   O  A00 X   2      41.294  35.680  13.7560  0.00  0.00     0.000 OA
ENDBRANCH 24 34
BRANCH 20 40
ATOM     40  O4  A00 X   3      38.977  30.738  10.6010  0.00  0.00     0.000 O
BRANCH 40 44
ATOM     41  C1  A00 X   3      37.136  33.258   8.7610  0.00  0.00     0.000 C
ATOM     42  C2  A00 X   3      36.840  31.743   8.7160  0.00  0.00     0.000 C
ATOM     43  C3  A00 X   3      38.129  30.934   8.4190  0.00  0.00     0.000 C
ATOM     44  C4  A00 X   3      39.315  31.284   9.3080  0.00  0.00     0.000 C
ATOM     45  C5  A00 X   3      39.553  32.820   9.2970  0.00  0.00     0.000 C
ATOM     46  O5  A00 X   3      38.310  33.544   9.5720  0.00  0.00     0.000 O
ATOM     47   O  A00 X   3      37.959  29.526   8.2680  0.00  0.00     0.000 O
ATOM     49  HD  A00 X   3      38.708  29.503   8.7020  0.00  0.00     0.000 HD
BRANCH 42 49
ATOM     49   O  A00 X   3      36.274  31.384   9.9960  0.00  0.00     0.000 O
ATOM     50   O  A00 X   3      35.528  29.373  11.0580  0.00  0.00     0.000 OA
ATOM     51   O  A00 X   3      34.994  29.728   8.7830  0.00  0.00     0.000 OA
ATOM     52   O  A00 X   3      33.979  31.112  10.4080  0.00  0.00     0.000 OA
ATOM     53   S  A00 X   3      35.126  30.337  10.0830  0.00  0.00     0.000 S
ENDBRANCH 42 49
BRANCH 45 54
ATOM     54   C  A00 X   3      40.246  33.278   8.0080  0.00  0.00     0.000 C
ATOM     55   O  A00 X   3      40.661  34.414   7.8990  0.00  0.00     0.000 OA
ATOM     56   O  A00 X   3      40.390  32.511   7.0690  0.00  0.00     0.000 OA
ENDBRANCH 45 54
BRANCH 41 57
ATOM     57  O4  A00 X   4      37.184  33.832   7.4360  0.00  0.00     0.000 O
BRANCH 57 61
ATOM     58  C1  A00 X   4      36.081  37.700   5.8680  0.00  0.00     0.000 C
ATOM     59  C2  A00 X   4      37.191  37.626   6.9470  0.00  0.00     0.000 C
ATOM     60  C3  A00 X   4      37.744  36.203   7.1630  0.00  0.00     0.000 C
ATOM     61  C4  A00 X   4      36.612  35.165   7.3180  0.00  0.00     0.000 C
ATOM     62  C5  A00 X   4      35.748  35.267   6.0370  0.00  0.00     0.000 C
ATOM     63  O5  A00 X   4      35.159  36.591   5.9620  0.00  0.00     0.000 O
BRANCH 59 66
ATOM     64   N  A00 X   4      36.631  38.044   8.2450  0.00  0.00     0.000 N
ATOM     66  HD  A00 X   4      35.782  37.926   8.3700  0.00  0.00     0.000 HD
ATOM     66   O  A00 X   4      36.997  40.322   7.5570  0.00  0.00     0.000 OA
ATOM     67   S  A00 X   4      36.914  39.535   8.7470  0.00  0.00     0.000 S
ATOM     68   O  A00 X   4      35.752  39.761   9.5560  0.00  0.00     0.000 OA
ATOM     69   O  A00 X   4      38.121  39.325   9.4960  0.00  0.00     0.000 OA
ENDBRANCH 59 66
BRANCH 62 70
ATOM     70   C  A00 X   4      34.613  34.219   5.9540  0.00  0.00     0.000 C
ATOM     71   O  A00 X   4      31.597  33.989   7.9440  0.00  0.00     0.000 OA
ATOM     72   O  A00 X   4      33.204  32.357   7.4000  0.00  0.00     0.000 OA
ATOM     73   O  A00 X   4      33.504  34.655   6.7580  0.00  0.00     0.000 O
ATOM     74   O  A00 X   4      33.724  34.045   9.0780  0.00  0.00     0.000 OA
ATOM     75   S  A00 X   4      33.003  33.700   7.8960  0.00  0.00     0.000 S
ENDBRANCH 62 70
ENDBRANCH 57 61
ENDBRANCH 41 57
ENDBRANCH 40 44
ENDBRANCH 20 40
ENDBRANCH 19 23
ENDBRANCH 1 19
TORSDOF 14
ENDMDL
MODEL 88
REMARK VINA RESULT:      -0.7     28.640     32.201
ROOT
ATOM      1  C1  A00 X   1      36.923  32.027  12.3250  0.00  0.00     0.000 C
ATOM      2  C2  A00 X   1      35.832  32.171  13.4190  0.00  0.00     0.000 C
ATOM      3  C3  A00 X   1      34.875  33.401  13.2790  0.00  0.00     0.000 C
ATOM      4  C4  A00 X   1      35.350  34.509  12.3030  0.00  0.00     0.000 C
ATOM      5  C5  A00 X   1      36.862  34.473  12.0810  0.00  0.00     0.000 C
ATOM      6  O5  A00 X   1      37.114  33.186  11.4760  0.00  0.00     0.000 O
ATOM      7   O  A00 X   1      34.735  34.019  14.5560  0.00  0.00     0.000 O
ATOM      9  HD  A00 X   1      34.809  34.654  13.9710  0.00  0.00     0.000 HD
ATOM      9   O  A00 X   1      34.676  34.422  11.0480  0.00  0.00     0.000 O
ATOM     11  HD  A00 X   1      34.751  35.057  10.4630  0.00  0.00     0.000 HD
ENDROOT
BRANCH 2 11
ATOM     11   O  A00 X   1      35.046  30.963  13.4160  0.00  0.00     0.000 O
ATOM     12   O  A00 X   1      33.049  30.744  14.7310  0.00  0.00     0.000 OA
ATOM     13   O  A00 X   1      35.187  31.037  15.8530  0.00  0.00     0.000 OA
ATOM     14   O  A00 X   1      34.710  29.026  14.6760  0.00  0.00     0.000 OA
ATOM     15   S  A00 X   1      34.456  30.439  14.7700  0.00  0.00     0.000 S
ENDBRANCH 2 11
BRANCH 5 16
ATOM     16   C  A00 X   1      37.707  34.739  13.3320  0.00  0.00     0.000 C
ATOM     17   O  A00 X   1      37.176  35.259  14.2920  0.00  0.00     0.000 OA
ATOM     18   O  A00 X   1      38.883  34.441  13.3990  0.00  0.00     0.000 OA
ENDBRANCH 5 16
BRANCH 1 19
ATOM     19  O4  A00 X   2      38.183  31.543  12.8490  0.00  0.00     0.000 O
BRANCH 19 23
ATOM     20  C1  A00 X   2      38.970  29.024   9.4730  0.00  0.00     0.000 C
ATOM     21  C2  A00 X   2      38.357  28.362  10.7300  0.00  0.00     0.000 C
ATOM     22  C3  A00 X   2      37.741  29.424  11.6650  0.00  0.00     0.000 C
ATOM     23  C4  A00 X   2      38.781  30.515  12.0080  0.00  0.00     0.000 C
ATOM     24  C5  A00 X   2      39.330  31.083  10.6710  0.00  0.00     0.000 C
ATOM     25  O5  A00 X   2      39.945  30.003   9.9220  0.00  0.00     0.000 O
ATOM     26   O  A00 X   2      37.126  28.756  12.7800  0.00  0.00     0.000 O
ATOM     28  HD  A00 X   2      37.830  28.279  12.9470  0.00  0.00     0.000 HD
BRANCH 21 30
ATOM     28   N  A00 X   2      39.135  27.156  10.4300  0.00  0.00     0.000 N
ATOM     30  HD  A00 X   2      38.527  26.926  11.0010  0.00  0.00     0.000 HD
ATOM     30   O  A00 X   2      37.915  25.302  11.1610  0.00  0.00     0.000 OA
ATOM     31   S  A00 X   2      39.129  25.970  11.4740  0.00  0.00     0.000 S
ATOM     32   O  A00 X   2      40.318  25.238  11.1630  0.00  0.00     0.000 OA
ATOM     33   O  A00 X   2      39.231  26.553  12.7790  0.00  0.00     0.000 OA
ENDBRANCH 21 30
BRANCH 24 34
ATOM     34   C  A00 X   2      40.218  32.349  10.7310  0.00  0.00     0.000 C
ATOM     35   O  A00 X   2      43.308  32.585  12.6430  0.00  0.00     0.000 OA
ATOM     36   O  A00 X   2      41.160  32.275  11.8200  0.00  0.00     0.000 O
ATOM     37   O  A00 X   2      42.891  30.931  11.0040  0.00  0.00     0.000 OA
ATOM     38   S  A00 X   2      42.675  32.290  11.3990  0.00  0.00     0.000 S
ATOM     39   O  A00 X   2      42.807  33.302  10.3950  0.00  0.00     0.000 OA
ENDBRANCH 24 34
BRANCH 20 40
ATOM     40  O4  A00 X   3      37.883  29.694   8.8180  0.00  0.00     0.000 O
BRANCH 40 44
ATOM     41  C1  A00 X   3      36.704  32.690   7.1570  0.00  0.00     0.000 C
ATOM     42  C2  A00 X   3      35.840  31.441   7.4390  0.00  0.00     0.000 C
ATOM     43  C3  A00 X   3      36.546  30.154   6.9420  0.00  0.00     0.000 C
ATOM     44  C4  A00 X   3      37.988  30.001   7.4110  0.00  0.00     0.000 C
ATOM     45  C5  A00 X   3      38.792  31.292   7.0890  0.00  0.00     0.000 C
ATOM     46  O5  A00 X   3      38.084  32.482   7.5660  0.00  0.00     0.000 O
ATOM     47   O  A00 X   3      35.801  28.945   7.0720  0.00  0.00     0.000 O
ATOM     49  HD  A00 X   3      36.576  28.623   7.2860  0.00  0.00     0.000 HD
BRANCH 42 49
ATOM     49   O  A00 X   3      35.608  31.400   8.8640  0.00  0.00     0.000 O
ATOM     50   O  A00 X   3      34.504  29.930  10.3970  0.00  0.00     0.000 OA
ATOM     51   O  A00 X   3      33.473  30.398   8.3220  0.00  0.00     0.000 OA
ATOM     52   O  A00 X   3      33.642  32.137   9.9150  0.00  0.00     0.000 OA
ATOM     53   S  A00 X   3      34.231  30.939   9.4230  0.00  0.00     0.000 S
ENDBRANCH 42 49
BRANCH 45 54
ATOM     54   C  A00 X   3      39.170  31.369   5.6050  0.00  0.00     0.000 C
ATOM     55   O  A00 X   3      39.941  32.219   5.2070  0.00  0.00     0.000 OA
ATOM     56   O  A00 X   3      38.703  30.580   4.7990  0.00  0.00     0.000 OA
ENDBRANCH 45 54
BRANCH 41 57
ATOM     57  O4  A00 X   4      36.558  33.143   5.7930  0.00  0.00     0.000 O
BRANCH 57 61
ATOM     58  C1  A00 X   4      36.631  37.059   3.9750  0.00  0.00     0.000 C
ATOM     59  C2  A00 X   4      37.898  36.561   4.7140  0.00  0.00     0.000 C
ATOM     60  C3  A00 X   4      37.887  35.045   5.0010  0.00  0.00     0.000 C
ATOM     61  C4  A00 X   4      36.548  34.589   5.6200  0.00  0.00     0.000 C
ATOM     62  C5  A00 X   4      35.442  35.001   4.6180  0.00  0.00     0.000 C
ATOM     63  O5  A00 X   4      35.427  36.446   4.4910  0.00  0.00     0.000 O
BRANCH 59 66
ATOM     64   N  A00 X   4      37.980  37.221   6.0300  0.00  0.00     0.000 N
ATOM     66  HD  A00 X   4      37.238  37.477   6.3960  0.00  0.00     0.000 HD
ATOM     66   O  A00 X   4      38.976  39.106   4.9100  0.00  0.00     0.000 OA
ATOM     67   S  A00 X   4      38.967  38.469   6.1900  0.00  0.00     0.000 S
ATOM     68   O  A00 X   4      38.300  39.193   7.2340  0.00  0.00     0.000 OA
ATOM     69   O  A00 X   4      40.162  37.796   6.6120  0.00  0.00     0.000 OA
ENDBRANCH 59 66
BRANCH 62 70
ATOM     70   C  A00 X   4      34.022  34.528   5.0130  0.00  0.00     0.000 C
ATOM     71   O  A00 X   4      31.940  35.663   7.7490  0.00  0.00     0.000 OA
ATOM     72   O  A00 X   4      32.523  33.487   7.0650  0.00  0.00     0.000 OA
ATOM     73   O  A00 X   4      33.483  35.419   6.0030  0.00  0.00     0.000 O
ATOM     74   O  A00 X   4      34.157  34.855   8.2460  0.00  0.00     0.000 OA
ATOM     75   S  A00 X   4      33.029  34.806   7.3730  0.00  0.00     0.000 S
ENDBRANCH 62 70
ENDBRANCH 57 61
ENDBRANCH 41 57
ENDBRANCH 40 44
ENDBRANCH 20 40
ENDBRANCH 19 23
ENDBRANCH 1 19
TORSDOF 14
ENDMDL
MODEL 89
REMARK VINA RESULT:      -0.7     37.154     41.757
ROOT
ATOM      1  C1  A00 X   1      46.021  34.895   6.7400  0.00  0.00     0.000 C
ATOM      2  C2  A00 X   1      46.278  33.383   6.9740  0.00  0.00     0.000 C
ATOM      3  C3  A00 X   1      47.339  33.026   8.0670  0.00  0.00     0.000 C
ATOM      4  C4  A00 X   1      48.256  34.194   8.5140  0.00  0.00     0.000 C
ATOM      5  C5  A00 X   1      48.337  35.300   7.4620  0.00  0.00     0.000 C
ATOM      6  O5  A00 X   1      46.984  35.794   7.3440  0.00  0.00     0.000 O
ATOM      7   O  A00 X   1      48.198  32.010   7.5560  0.00  0.00     0.000 O
ATOM      9  HD  A00 X   1      48.697  32.576   7.9810  0.00  0.00     0.000 HD
ATOM      9   O  A00 X   1      47.830  34.744   9.7600  0.00  0.00     0.000 O
ATOM     11  HD  A00 X   1      48.328  35.310  10.1850  0.00  0.00     0.000 HD
ENDROOT
BRANCH 2 11
ATOM     11   O  A00 X   1      45.020  32.773   7.3240  0.00  0.00     0.000 O
ATOM     12   O  A00 X   1      44.875  30.491   8.0580  0.00  0.00     0.000 OA
ATOM     13   O  A00 X   1      45.634  30.969   5.7970  0.00  0.00     0.000 OA
ATOM     14   O  A00 X   1      43.377  31.381   6.4230  0.00  0.00     0.000 OA
ATOM     15   S  A00 X   1      44.740  31.299   6.8720  0.00  0.00     0.000 S
ENDBRANCH 2 11
BRANCH 5 16
ATOM     16   C  A00 X   1      48.954  34.877   6.1240  0.00  0.00     0.000 C
ATOM     17   O  A00 X   1      49.634  33.873   6.0900  0.00  0.00     0.000 OA
ATOM     18   O  A00 X   1      48.781  35.507   5.0990  0.00  0.00     0.000 OA
ENDBRANCH 5 16
BRANCH 1 19
ATOM     19  O4  A00 X   2      45.799  35.218   5.3450  0.00  0.00     0.000 O
BRANCH 19 23
ATOM     20  C1  A00 X   2      42.712  38.071   6.1810  0.00  0.00     0.000 C
ATOM     21  C2  A00 X   2      42.274  36.644   5.7720  0.00  0.00     0.000 C
ATOM     22  C3  A00 X   2      43.440  35.645   5.9290  0.00  0.00     0.000 C
ATOM     23  C4  A00 X   2      44.685  36.136   5.1550  0.00  0.00     0.000 C
ATOM     24  C5  A00 X   2      45.008  37.576   5.6400  0.00  0.00     0.000 C
ATOM     25  O5  A00 X   2      43.864  38.427   5.3700  0.00  0.00     0.000 O
ATOM     26   O  A00 X   2      42.966  34.327   5.6040  0.00  0.00     0.000 O
ATOM     28  HD  A00 X   2      42.615  34.584   4.8550  0.00  0.00     0.000 HD
BRANCH 21 30
ATOM     28   N  A00 X   2      41.120  37.238   5.0900  0.00  0.00     0.000 N
ATOM     30  HD  A00 X   2      40.956  36.391   5.1690  0.00  0.00     0.000 HD
ATOM     30   O  A00 X   2      39.350  35.717   5.1970  0.00  0.00     0.000 OA
ATOM     31   S  A00 X   2      40.192  36.303   4.2160  0.00  0.00     0.000 S
ATOM     32   O  A00 X   2      39.539  37.212   3.3250  0.00  0.00     0.000 OA
ATOM     33   O  A00 X   2      41.050  35.419   3.4840  0.00  0.00     0.000 OA
ENDBRANCH 21 30
BRANCH 24 34
ATOM     34   C  A00 X   2      46.344  38.211   5.1890  0.00  0.00     0.000 C
ATOM     35   O  A00 X   2      47.310  38.676   1.7090  0.00  0.00     0.000 OA
ATOM     36   O  A00 X   2      46.605  37.945   3.7960  0.00  0.00     0.000 O
ATOM     37   O  A00 X   2      45.311  39.519   2.6490  0.00  0.00     0.000 OA
ATOM     38   S  A00 X   2      46.691  39.216   2.8750  0.00  0.00     0.000 S
ATOM     39   O  A00 X   2      47.475  40.180   3.5870  0.00  0.00     0.000 OA
ENDBRANCH 24 34
BRANCH 20 40
ATOM     40  O4  A00 X   3      43.105  37.976   7.5570  0.00  0.00     0.000 O
BRANCH 40 44
ATOM     41  C1  A00 X   3      45.518  38.852  10.1140  0.00  0.00     0.000 C
ATOM     42  C2  A00 X   3      44.276  37.964  10.3430  0.00  0.00     0.000 C
ATOM     43  C3  A00 X   3      42.995  38.652   9.8050  0.00  0.00     0.000 C
ATOM     44  C4  A00 X   3      43.105  39.166   8.3750  0.00  0.00     0.000 C
ATOM     45  C5  A00 X   3      44.373  40.053   8.2250  0.00  0.00     0.000 C
ATOM     46  O5  A00 X   3      45.555  39.370   8.7550  0.00  0.00     0.000 O
ATOM     47   O  A00 X   3      41.770  37.959  10.0410  0.00  0.00     0.000 O
ATOM     49  HD  A00 X   3      41.589  38.240   9.2420  0.00  0.00     0.000 HD
BRANCH 42 49
ATOM     49   O  A00 X   3      44.523  36.709   9.6720  0.00  0.00     0.000 O
ATOM     50   O  A00 X   3      43.314  34.677   9.2980  0.00  0.00     0.000 OA
ATOM     51   O  A00 X   3      43.200  35.697  11.4280  0.00  0.00     0.000 OA
ATOM     52   O  A00 X   3      45.254  34.750  10.7410  0.00  0.00     0.000 OA
ATOM     53   S  A00 X   3      44.049  35.370  10.3090  0.00  0.00     0.000 S
ENDBRANCH 42 49
BRANCH 45 54
ATOM     54   C  A00 X   3      44.164  41.449   8.8250  0.00  0.00     0.000 C
ATOM     55   O  A00 X   3      43.153  41.711   9.4430  0.00  0.00     0.000 OA
ATOM     56   O  A00 X   3      45.009  42.320   8.6910  0.00  0.00     0.000 OA
ENDBRANCH 45 54
BRANCH 41 57
ATOM     57  O4  A00 X   4      45.643  39.869  11.1330  0.00  0.00     0.000 O
BRANCH 57 61
ATOM     58  C1  A00 X   4      49.046  41.737  13.0210  0.00  0.00     0.000 C
ATOM     59  C2  A00 X   4      48.855  41.917  11.4940  0.00  0.00     0.000 C
ATOM     60  C3  A00 X   4      47.447  41.524  11.0010  0.00  0.00     0.000 C
ATOM     61  C4  A00 X   4      47.006  40.154  11.5580  0.00  0.00     0.000 C
ATOM     62  C5  A00 X   4      47.073  40.269  13.1020  0.00  0.00     0.000 C
ATOM     63  O5  A00 X   4      48.445  40.514  13.5030  0.00  0.00     0.000 O
BRANCH 59 66
ATOM     64   N  A00 X   4      49.785  41.046  10.7520  0.00  0.00     0.000 N
ATOM     66  HD  A00 X   4      50.039  40.313  11.1370  0.00  0.00     0.000 HD
ATOM     66   O  A00 X   4      51.476  42.725  11.1010  0.00  0.00     0.000 OA
ATOM     67   S  A00 X   4      51.129  41.692  10.1750  0.00  0.00     0.000 S
ATOM     68   O  A00 X   4      51.990  40.545  10.1790  0.00  0.00     0.000 OA
ATOM     69   O  A00 X   4      50.681  42.086   8.8700  0.00  0.00     0.000 OA
ENDBRANCH 59 66
BRANCH 62 70
ATOM     70   C  A00 X   4      46.557  39.017  13.8520  0.00  0.00     0.000 C
ATOM     71   O  A00 X   4      48.046  35.723  14.0430  0.00  0.00     0.000 OA
ATOM     72   O  A00 X   4      45.843  36.383  13.5420  0.00  0.00     0.000 OA
ATOM     73   O  A00 X   4      47.584  38.012  13.8590  0.00  0.00     0.000 O
ATOM     74   O  A00 X   4      47.591  36.657  11.8670  0.00  0.00     0.000 OA
ATOM     75   S  A00 X   4      47.241  36.608  13.2500  0.00  0.00     0.000 S
ENDBRANCH 62 70
ENDBRANCH 57 61
ENDBRANCH 41 57
ENDBRANCH 40 44
ENDBRANCH 20 40
ENDBRANCH 19 23
ENDBRANCH 1 19
TORSDOF 14
ENDMDL
MODEL 90
REMARK VINA RESULT:      -0.7     40.482     44.446
ROOT
ATOM      1  C1  A00 X   1      47.829  37.437   6.9190  0.00  0.00     0.000 C
ATOM      2  C2  A00 X   1      47.861  35.887   6.8470  0.00  0.00     0.000 C
ATOM      3  C3  A00 X   1      48.557  35.157   8.0430  0.00  0.00     0.000 C
ATOM      4  C4  A00 X   1      49.439  36.053   8.9510  0.00  0.00     0.000 C
ATOM      5  C5  A00 X   1      49.905  37.320   8.2340  0.00  0.00     0.000 C
ATOM      6  O5  A00 X   1      48.687  38.035   7.9230  0.00  0.00     0.000 O
ATOM      7   O  A00 X   1      49.412  34.141   7.5240  0.00  0.00     0.000 O
ATOM      9  HD  A00 X   1      49.837  34.526   8.1740  0.00  0.00     0.000 HD
ATOM      9   O  A00 X   1      48.760  36.404  10.1560  0.00  0.00     0.000 O
ATOM     11  HD  A00 X   1      49.185  36.788  10.8060  0.00  0.00     0.000 HD
ENDROOT
BRANCH 2 11
ATOM     11   O  A00 X   1      46.500  35.425   6.7440  0.00  0.00     0.000 O
ATOM     12   O  A00 X   1      45.937  33.094   6.8720  0.00  0.00     0.000 OA
ATOM     13   O  A00 X   1      47.306  33.888   5.0240  0.00  0.00     0.000 OA
ATOM     14   O  A00 X   1      45.017  34.516   5.1860  0.00  0.00     0.000 OA
ATOM     15   S  A00 X   1      46.200  34.133   5.9080  0.00  0.00     0.000 S
ENDBRANCH 2 11
BRANCH 5 16
ATOM     16   C  A00 X   1      50.804  37.082   7.0160  0.00  0.00     0.000 C
ATOM     17   O  A00 X   1      51.364  36.011   6.9080  0.00  0.00     0.000 OA
ATOM     18   O  A00 X   1      50.970  37.923   6.1550  0.00  0.00     0.000 OA
ENDBRANCH 5 16
BRANCH 1 19
ATOM     19  O4  A00 X   2      48.014  38.062   5.6260  0.00  0.00     0.000 O
BRANCH 19 23
ATOM     20  C1  A00 X   2      45.123  41.139   6.3590  0.00  0.00     0.000 C
ATOM     21  C2  A00 X   2      44.665  39.909   5.5390  0.00  0.00     0.000 C
ATOM     22  C3  A00 X   2      45.641  38.729   5.7260  0.00  0.00     0.000 C
ATOM     23  C4  A00 X   2      47.088  39.163   5.4000  0.00  0.00     0.000 C
ATOM     24  C5  A00 X   2      47.417  40.408   6.2680  0.00  0.00     0.000 C
ATOM     25  O5  A00 X   2      46.476  41.465   5.9450  0.00  0.00     0.000 O
ATOM     26   O  A00 X   2      45.137  37.594   5.0020  0.00  0.00     0.000 O
ATOM     28  HD  A00 X   2      45.022  38.046   4.2730  0.00  0.00     0.000 HD
BRANCH 21 30
ATOM     28   N  A00 X   2      43.796  40.801   4.7650  0.00  0.00     0.000 N
ATOM     30  HD  A00 X   2      43.531  39.992   4.6050  0.00  0.00     0.000 HD
ATOM     30   O  A00 X   2      41.914  39.587   4.1000  0.00  0.00     0.000 OA
ATOM     31   S  A00 X   2      43.039  40.217   3.5060  0.00  0.00     0.000 S
ATOM     32   O  A00 X   2      42.738  41.377   2.7240  0.00  0.00     0.000 OA
ATOM     33   O  A00 X   2      43.963  39.374   2.8090  0.00  0.00     0.000 OA
ENDBRANCH 21 30
BRANCH 24 34
ATOM     34   C  A00 X   2      48.883  40.903   6.3010  0.00  0.00     0.000 C
ATOM     35   O  A00 X   2      50.768  41.896   3.3490  0.00  0.00     0.000 OA
ATOM     36   O  A00 X   2      49.471  40.882   4.9850  0.00  0.00     0.000 O
ATOM     37   O  A00 X   2      48.689  42.838   3.9670  0.00  0.00     0.000 OA
ATOM     38   S  A00 X   2      49.923  42.283   4.4310  0.00  0.00     0.000 S
ATOM     39   O  A00 X   2      50.587  42.950   5.5100  0.00  0.00     0.000 OA
ENDBRANCH 24 34
BRANCH 20 40
ATOM     40  O4  A00 X   3      45.130  40.711   7.7290  0.00  0.00     0.000 O
BRANCH 40 44
ATOM     41  C1  A00 X   3      46.866  40.669  10.9080  0.00  0.00     0.000 C
ATOM     42  C2  A00 X   3      45.524  39.959  10.6290  0.00  0.00     0.000 C
ATOM     43  C3  A00 X   3      44.505  40.933   9.9830  0.00  0.00     0.000 C
ATOM     44  C4  A00 X   3      45.037  41.699   8.7780  0.00  0.00     0.000 C
ATOM     45  C5  A00 X   3      46.384  42.388   9.1380  0.00  0.00     0.000 C
ATOM     46  O5  A00 X   3      47.310  41.435   9.7540  0.00  0.00     0.000 O
ATOM     47   O  A00 X   3      43.198  40.408   9.7590  0.00  0.00     0.000 O
ATOM     49  HD  A00 X   3      43.261  40.867   9.0280  0.00  0.00     0.000 HD
BRANCH 42 49
ATOM     49   O  A00 X   3      45.809  38.841   9.7610  0.00  0.00     0.000 O
ATOM     50   O  A00 X   3      44.540  37.140   8.6530  0.00  0.00     0.000 OA
ATOM     51   O  A00 X   3      43.977  37.719  10.8750  0.00  0.00     0.000 OA
ATOM     52   O  A00 X   3      46.031  36.618  10.4840  0.00  0.00     0.000 OA
ATOM     53   S  A00 X   3      45.051  37.493   9.9410  0.00  0.00     0.000 S
ENDBRANCH 42 49
BRANCH 45 54
ATOM     54   C  A00 X   3      46.168  43.650   9.9810  0.00  0.00     0.000 C
ATOM     55   O  A00 X   3      45.062  43.939  10.3900  0.00  0.00     0.000 OA
ATOM     56   O  A00 X   3      47.102  44.387  10.2540  0.00  0.00     0.000 OA
ENDBRANCH 45 54
BRANCH 41 57
ATOM     57  O4  A00 X   4      46.823  41.430  12.1360  0.00  0.00     0.000 O
BRANCH 57 61
ATOM     58  C1  A00 X   4      49.785  42.326  15.1470  0.00  0.00     0.000 C
ATOM     59  C2  A00 X   4      50.019  42.834  13.7020  0.00  0.00     0.000 C
ATOM     60  C3  A00 X   4      48.757  42.774  12.8170  0.00  0.00     0.000 C
ATOM     61  C4  A00 X   4      48.049  41.406  12.9220  0.00  0.00     0.000 C
ATOM     62  C5  A00 X   4      47.720  41.199  14.4210  0.00  0.00     0.000 C
ATOM     63  O5  A00 X   4      48.957  41.141  15.1770  0.00  0.00     0.000 O
BRANCH 59 66
ATOM     64   N  A00 X   4      51.017  41.994  13.0150  0.00  0.00     0.000 N
ATOM     66  HD  A00 X   4      51.087  41.169  13.2670  0.00  0.00     0.000 HD
ATOM     66   O  A00 X   4      52.720  43.283  14.1290  0.00  0.00     0.000 OA
ATOM     67   S  A00 X   4      52.524  42.523  12.9340  0.00  0.00     0.000 S
ATOM     68   O  A00 X   4      53.233  41.278  12.8710  0.00  0.00     0.000 OA
ATOM     69   O  A00 X   4      52.475  43.236  11.6880  0.00  0.00     0.000 OA
ENDBRANCH 59 66
BRANCH 62 70
ATOM     70   C  A00 X   4      46.902  39.919  14.7180  0.00  0.00     0.000 C
ATOM     71   O  A00 X   4      47.947  36.461  14.4790  0.00  0.00     0.000 OA
ATOM     72   O  A00 X   4      46.029  37.546  13.6470  0.00  0.00     0.000 OA
ATOM     73   O  A00 X   4      47.783  38.784  14.7310  0.00  0.00     0.000 O
ATOM     74   O  A00 X   4      48.174  37.870  12.5360  0.00  0.00     0.000 OA
ATOM     75   S  A00 X   4      47.471  37.602  13.7490  0.00  0.00     0.000 S
ENDBRANCH 62 70
ENDBRANCH 57 61
ENDBRANCH 41 57
ENDBRANCH 40 44
ENDBRANCH 20 40
ENDBRANCH 19 23
ENDBRANCH 1 19
TORSDOF 14
ENDMDL
MODEL 91
REMARK VINA RESULT:      -0.7     48.835     53.071
ROOT
ATOM      1  C1  A00 X   1      56.148  15.238  42.0500  0.00  0.00     0.000 C
ATOM      2  C2  A00 X   1      56.308  13.911  42.8390  0.00  0.00     0.000 C
ATOM      3  C3  A00 X   1      57.445  13.884  43.9140  0.00  0.00     0.000 C
ATOM      4  C4  A00 X   1      58.492  15.023  43.8080  0.00  0.00     0.000 C
ATOM      5  C5  A00 X   1      58.550  15.625  42.4040  0.00  0.00     0.000 C
ATOM      6  O5  A00 X   1      57.235  16.185  42.1900  0.00  0.00     0.000 O
ATOM      7   O  A00 X   1      58.164  12.660  43.7870  0.00  0.00     0.000 O
ATOM      9  HD  A00 X   1      58.747  13.286  43.9240  0.00  0.00     0.000 HD
ATOM      9   O  A00 X   1      58.241  16.053  44.7640  0.00  0.00     0.000 O
ATOM     11  HD  A00 X   1      58.824  16.678  44.9010  0.00  0.00     0.000 HD
ENDROOT
BRANCH 2 11
ATOM     11   O  A00 X   1      55.049  13.628  43.4810  0.00  0.00     0.000 O
ATOM     12   O  A00 X   1      54.798  11.822  45.0440  0.00  0.00     0.000 OA
ATOM     13   O  A00 X   1      55.349  11.324  42.7270  0.00  0.00     0.000 OA
ATOM     14   O  A00 X   1      53.212  12.200  43.2960  0.00  0.00     0.000 OA
ATOM     15   S  A00 X   1      54.604  12.135  43.6500  0.00  0.00     0.000 S
ENDBRANCH 2 11
BRANCH 5 16
ATOM     16   C  A00 X   1      58.991  14.656  41.3020  0.00  0.00     0.000 C
ATOM     17   O  A00 X   1      59.556  13.630  41.6220  0.00  0.00     0.000 OA
ATOM     18   O  A00 X   1      58.790  14.875  40.1240  0.00  0.00     0.000 OA
ENDBRANCH 5 16
BRANCH 1 19
ATOM     19  O4  A00 X   2      55.809  15.025  40.6570  0.00  0.00     0.000 O
BRANCH 19 23
ATOM     20  C1  A00 X   2      53.038  18.290  40.5150  0.00  0.00     0.000 C
ATOM     21  C2  A00 X   2      52.459  16.870  40.7230  0.00  0.00     0.000 C
ATOM     22  C3  A00 X   2      53.559  15.889  41.1810  0.00  0.00     0.000 C
ATOM     23  C4  A00 X   2      54.751  15.913  40.1970  0.00  0.00     0.000 C
ATOM     24  C5  A00 X   2      55.225  17.386  40.0610  0.00  0.00     0.000 C
ATOM     25  O5  A00 X   2      54.124  18.186  39.5560  0.00  0.00     0.000 O
ATOM     26   O  A00 X   2      52.960  14.606  41.4260  0.00  0.00     0.000 O
ATOM     28  HD  A00 X   2      52.554  14.592  40.6610  0.00  0.00     0.000 HD
BRANCH 21 30
ATOM     28   N  A00 X   2      51.289  17.271  39.9350  0.00  0.00     0.000 N
ATOM     30  HD  A00 X   2      51.072  16.545  40.3540  0.00  0.00     0.000 HD
ATOM     30   O  A00 X   2      49.431  16.110  40.7470  0.00  0.00     0.000 OA
ATOM     31   S  A00 X   2      50.213  16.175  39.5630  0.00  0.00     0.000 S
ATOM     32   O  A00 X   2      49.543  16.730  38.4280  0.00  0.00     0.000 OA
ATOM     33   O  A00 X   2      50.926  14.990  39.1900  0.00  0.00     0.000 OA
ENDBRANCH 21 30
BRANCH 24 34
ATOM     34   C  A00 X   2      56.551  17.655  39.3120  0.00  0.00     0.000 C
ATOM     35   O  A00 X   2      57.191  16.653  35.8710  0.00  0.00     0.000 OA
ATOM     36   O  A00 X   2      56.650  16.852  38.1190  0.00  0.00     0.000 O
ATOM     37   O  A00 X   2      55.364  17.998  36.5370  0.00  0.00     0.000 OA
ATOM     38   S  A00 X   2      56.734  17.659  36.7720  0.00  0.00     0.000 S
ATOM     39   O  A00 X   2      57.654  18.732  37.0000  0.00  0.00     0.000 OA
ENDBRANCH 24 34
BRANCH 20 40
ATOM     40  O4  A00 X   3      53.560  18.687  41.7910  0.00  0.00     0.000 O
BRANCH 40 44
ATOM     41  C1  A00 X   3      56.310  20.198  43.6020  0.00  0.00     0.000 C
ATOM     42  C2  A00 X   3      55.041  19.611  44.2580  0.00  0.00     0.000 C
ATOM     43  C3  A00 X   3      53.760  20.179  43.5940  0.00  0.00     0.000 C
ATOM     44  C4  A00 X   3      53.742  20.091  42.0740  0.00  0.00     0.000 C
ATOM     45  C5  A00 X   3      55.045  20.705  41.4890  0.00  0.00     0.000 C
ATOM     46  O5  A00 X   3      56.227  20.148  42.1510  0.00  0.00     0.000 O
ATOM     47   O  A00 X   3      52.524  19.772  44.1770  0.00  0.00     0.000 O
ATOM     49  HD  A00 X   3      52.272  19.744  43.3490  0.00  0.00     0.000 HD
BRANCH 42 49
ATOM     49   O  A00 X   3      55.116  18.176  44.1160  0.00  0.00     0.000 O
ATOM     50   O  A00 X   3      53.725  16.305  44.6600  0.00  0.00     0.000 OA
ATOM     51   O  A00 X   3      53.930  18.068  46.2220  0.00  0.00     0.000 OA
ATOM     52   O  A00 X   3      55.816  16.705  45.8080  0.00  0.00     0.000 OA
ATOM     53   S  A00 X   3      54.619  17.245  45.2600  0.00  0.00     0.000 S
ENDBRANCH 42 49
BRANCH 45 54
ATOM     54   C  A00 X   3      55.009  22.237  41.5080  0.00  0.00     0.000 C
ATOM     55   O  A00 X   3      54.134  22.829  42.1070  0.00  0.00     0.000 OA
ATOM     56   O  A00 X   3      55.859  22.890  40.9210  0.00  0.00     0.000 OA
ENDBRANCH 45 54
BRANCH 41 57
ATOM     57  O4  A00 X   4      56.626  21.507  44.1280  0.00  0.00     0.000 O
BRANCH 57 61
ATOM     58  C1  A00 X   4      60.353  23.561  44.8500  0.00  0.00     0.000 C
ATOM     59  C2  A00 X   4      60.006  23.144  43.4000  0.00  0.00     0.000 C
ATOM     60  C3  A00 X   4      58.526  22.754  43.2090  0.00  0.00     0.000 C
ATOM     61  C4  A00 X   4      58.046  21.776  44.3030  0.00  0.00     0.000 C
ATOM     62  C5  A00 X   4      58.293  22.483  45.6590  0.00  0.00     0.000 C
ATOM     63  O5  A00 X   4      59.717  22.706  45.8270  0.00  0.00     0.000 O
BRANCH 59 66
ATOM     64   N  A00 X   4      60.783  21.948  43.0260  0.00  0.00     0.000 N
ATOM     66  HD  A00 X   4      61.024  21.412  43.6630  0.00  0.00     0.000 HD
ATOM     66   O  A00 X   4      62.621  23.421  42.5260  0.00  0.00     0.000 OA
ATOM     67   S  A00 X   4      62.101  22.147  42.1410  0.00  0.00     0.000 S
ATOM     68   O  A00 X   4      62.870  21.013  42.5650  0.00  0.00     0.000 OA
ATOM     69   O  A00 X   4      61.543  22.021  40.8250  0.00  0.00     0.000 OA
ENDBRANCH 59 66
BRANCH 62 70
ATOM     70   C  A00 X   4      57.771  21.698  46.8860  0.00  0.00     0.000 C
ATOM     71   O  A00 X   4      59.017  18.601  48.2880  0.00  0.00     0.000 OA
ATOM     72   O  A00 X   4      56.827  19.257  47.7200  0.00  0.00     0.000 OA
ATOM     73   O  A00 X   4      58.712  20.667  47.2270  0.00  0.00     0.000 O
ATOM     74   O  A00 X   4      58.396  18.644  45.9580  0.00  0.00     0.000 OA
ATOM     75   S  A00 X   4      58.198  19.186  47.2640  0.00  0.00     0.000 S
ENDBRANCH 62 70
ENDBRANCH 57 61
ENDBRANCH 41 57
ENDBRANCH 40 44
ENDBRANCH 20 40
ENDBRANCH 19 23
ENDBRANCH 1 19
TORSDOF 14
ENDMDL
MODEL 92
REMARK VINA RESULT:      -0.7     46.974     53.026
ROOT
ATOM      1  C1  A00 X   1      22.787  36.358  56.9610  0.00  0.00     0.000 C
ATOM      2  C2  A00 X   1      23.150  37.840  56.6740  0.00  0.00     0.000 C
ATOM      3  C3  A00 X   1      22.258  38.574  55.6190  0.00  0.00     0.000 C
ATOM      4  C4  A00 X   1      21.378  37.655  54.7330  0.00  0.00     0.000 C
ATOM      5  C5  A00 X   1      21.920  36.228  54.6630  0.00  0.00     0.000 C
ATOM      6  O5  A00 X   1      21.864  35.747  56.0250  0.00  0.00     0.000 O
ATOM      7   O  A00 X   1      23.105  39.301  54.7320  0.00  0.00     0.000 O
ATOM      9  HD  A00 X   1      22.485  38.936  54.2510  0.00  0.00     0.000 HD
ATOM      9   O  A00 X   1      20.024  37.635  55.1860  0.00  0.00     0.000 O
ATOM     11  HD  A00 X   1      19.404  37.269  54.7040  0.00  0.00     0.000 HD
ENDROOT
BRANCH 2 11
ATOM     11   O  A00 X   1      23.086  38.556  57.9230  0.00  0.00     0.000 O
ATOM     12   O  A00 X   1      23.768  40.851  58.1060  0.00  0.00     0.000 OA
ATOM     13   O  A00 X   1      25.419  39.161  57.5290  0.00  0.00     0.000 OA
ATOM     14   O  A00 X   1      24.451  39.207  59.7010  0.00  0.00     0.000 OA
ATOM     15   S  A00 X   1      24.265  39.514  58.3090  0.00  0.00     0.000 S
ENDBRANCH 2 11
BRANCH 5 16
ATOM     16   C  A00 X   1      23.305  36.092  54.0210  0.00  0.00     0.000 C
ATOM     17   O  A00 X   1      23.728  37.012  53.3510  0.00  0.00     0.000 OA
ATOM     18   O  A00 X   1      23.995  35.103  54.1640  0.00  0.00     0.000 OA
ENDBRANCH 5 16
BRANCH 1 19
ATOM     19  O4  A00 X   2      23.953  35.525  57.1730  0.00  0.00     0.000 O
BRANCH 19 23
ATOM     20  C1  A00 X   2      22.060  33.108  60.1620  0.00  0.00     0.000 C
ATOM     21  C2  A00 X   2      22.977  34.256  60.6470  0.00  0.00     0.000 C
ATOM     22  C3  A00 X   2      23.225  35.276  59.5170  0.00  0.00     0.000 C
ATOM     23  C4  A00 X   2      23.767  34.568  58.2550  0.00  0.00     0.000 C
ATOM     24  C5  A00 X   2      22.774  33.434  57.8830  0.00  0.00     0.000 C
ATOM     25  O5  A00 X   2      22.686  32.507  58.9970  0.00  0.00     0.000 O
ATOM     26   O  A00 X   2      24.023  36.354  60.0350  0.00  0.00     0.000 O
ATOM     28  HD  A00 X   2      24.614  35.820  60.3760  0.00  0.00     0.000 HD
BRANCH 21 30
ATOM     28   N  A00 X   2      23.376  33.410  61.7760  0.00  0.00     0.000 N
ATOM     30  HD  A00 X   2      23.617  34.218  61.9710  0.00  0.00     0.000 HD
ATOM     30   O  A00 X   2      23.829  34.797  63.6010  0.00  0.00     0.000 OA
ATOM     31   S  A00 X   2      24.527  33.915  62.7340  0.00  0.00     0.000 S
ATOM     32   O  A00 X   2      25.006  32.717  63.3500  0.00  0.00     0.000 OA
ATOM     33   O  A00 X   2      25.545  34.490  61.9060  0.00  0.00     0.000 OA
ENDBRANCH 21 30
BRANCH 24 34
ATOM     34   C  A00 X   2      22.963  32.718  56.5250  0.00  0.00     0.000 C
ATOM     35   O  A00 X   2      23.701  29.171  56.1720  0.00  0.00     0.000 OA
ATOM     36   O  A00 X   2      23.585  31.429  56.6950  0.00  0.00     0.000 O
ATOM     37   O  A00 X   2      21.835  30.021  57.3480  0.00  0.00     0.000 OA
ATOM     38   S  A00 X   2      22.717  30.200  56.2360  0.00  0.00     0.000 S
ATOM     39   O  A00 X   2      22.135  30.563  54.9790  0.00  0.00     0.000 OA
ENDBRANCH 24 34
BRANCH 20 40
ATOM     40  O4  A00 X   3      20.827  33.733  59.7750  0.00  0.00     0.000 O
BRANCH 40 44
ATOM     41  C1  A00 X   3      18.104  33.974  57.3990  0.00  0.00     0.000 C
ATOM     42  C2  A00 X   3      18.252  34.853  58.6600  0.00  0.00     0.000 C
ATOM     43  C3  A00 X   3      18.496  33.981  59.9190  0.00  0.00     0.000 C
ATOM     44  C4  A00 X   3      19.612  32.954  59.7710  0.00  0.00     0.000 C
ATOM     45  C5  A00 X   3      19.390  32.108  58.4860  0.00  0.00     0.000 C
ATOM     46  O5  A00 X   3      19.154  32.971  57.3270  0.00  0.00     0.000 O
ATOM     47   O  A00 X   3      18.562  34.682  61.1590  0.00  0.00     0.000 O
ATOM     49  HD  A00 X   3      19.191  34.109  61.3200  0.00  0.00     0.000 HD
BRANCH 42 49
ATOM     49   O  A00 X   3      19.355  35.754  58.4210  0.00  0.00     0.000 O
ATOM     50   O  A00 X   3      20.501  37.455  59.6540  0.00  0.00     0.000 OA
ATOM     51   O  A00 X   3      18.144  37.340  59.7900  0.00  0.00     0.000 OA
ATOM     52   O  A00 X   3      19.124  37.989  57.7400  0.00  0.00     0.000 OA
ATOM     53   S  A00 X   3      19.293  37.225  58.9270  0.00  0.00     0.000 S
ENDBRANCH 42 49
BRANCH 45 54
ATOM     54   C  A00 X   3      18.297  31.051  58.6840  0.00  0.00     0.000 C
ATOM     55   O  A00 X   3      17.624  31.038  59.6940  0.00  0.00     0.000 OA
ATOM     56   O  A00 X   3      18.085  30.203  57.8300  0.00  0.00     0.000 OA
ENDBRANCH 45 54
BRANCH 41 57
ATOM     57  O4  A00 X   4      16.768  33.436  57.2770  0.00  0.00     0.000 O
BRANCH 57 61
ATOM     58  C1  A00 X   4      14.262  32.533  53.8800  0.00  0.00     0.000 C
ATOM     59  C2  A00 X   4      15.607  31.780  54.0290  0.00  0.00     0.000 C
ATOM     60  C3  A00 X   4      16.233  31.912  55.4330  0.00  0.00     0.000 C
ATOM     61  C4  A00 X   4      16.247  33.377  55.9190  0.00  0.00     0.000 C
ATOM     62  C5  A00 X   4      14.775  33.860  55.8880  0.00  0.00     0.000 C
ATOM     63  O5  A00 X   4      14.291  33.829  54.5210  0.00  0.00     0.000 O
BRANCH 59 66
ATOM     64   N  A00 X   4      16.611  32.332  53.1010  0.00  0.00     0.000 N
ATOM     66  HD  A00 X   4      16.531  33.163  52.8730  0.00  0.00     0.000 HD
ATOM     66   O  A00 X   4      15.626  30.964  51.3810  0.00  0.00     0.000 OA
ATOM     67   S  A00 X   4      16.880  31.556  51.7280  0.00  0.00     0.000 S
ATOM     68   O  A00 X   4      17.300  32.645  50.8950  0.00  0.00     0.000 OA
ATOM     69   O  A00 X   4      17.944  30.683  52.1350  0.00  0.00     0.000 OA
ENDBRANCH 59 66
BRANCH 62 70
ATOM     70   C  A00 X   4      14.567  35.287  56.4510  0.00  0.00     0.000 C
ATOM     71   O  A00 X   4      15.607  38.451  55.0330  0.00  0.00     0.000 OA
ATOM     72   O  A00 X   4      15.866  37.585  57.2070  0.00  0.00     0.000 OA
ATOM     73   O  A00 X   4      14.919  36.250  55.4450  0.00  0.00     0.000 O
ATOM     74   O  A00 X   4      17.276  36.750  55.4030  0.00  0.00     0.000 OA
ATOM     75   S  A00 X   4      16.022  37.308  55.7960  0.00  0.00     0.000 S
ENDBRANCH 62 70
ENDBRANCH 57 61
ENDBRANCH 41 57
ENDBRANCH 40 44
ENDBRANCH 20 40
ENDBRANCH 19 23
ENDBRANCH 1 19
TORSDOF 14
ENDMDL
MODEL 93
REMARK VINA RESULT:      -0.7     39.685     44.594
ROOT
ATOM      1  C1  A00 X   1      53.696  22.034  18.5340  0.00  0.00     0.000 C
ATOM      2  C2  A00 X   1      52.654  22.661  17.5700  0.00  0.00     0.000 C
ATOM      3  C3  A00 X   1      51.859  23.890  18.1230  0.00  0.00     0.000 C
ATOM      4  C4  A00 X   1      51.934  24.100  19.6570  0.00  0.00     0.000 C
ATOM      5  C5  A00 X   1      52.294  22.813  20.3990  0.00  0.00     0.000 C
ATOM      6  O5  A00 X   1      53.611  22.466  19.9150  0.00  0.00     0.000 O
ATOM      7   O  A00 X   1      50.479  23.722  17.8050  0.00  0.00     0.000 O
ATOM      9  HD  A00 X   1      50.519  24.029  18.6130  0.00  0.00     0.000 HD
ATOM      9   O  A00 X   1      52.863  25.129  19.9970  0.00  0.00     0.000 O
ATOM     11  HD  A00 X   1      52.903  25.436  20.8060  0.00  0.00     0.000 HD
ENDROOT
BRANCH 2 11
ATOM     11   O  A00 X   1      53.347  23.052  16.3690  0.00  0.00     0.000 O
ATOM     12   O  A00 X   1      52.262  24.294  14.6230  0.00  0.00     0.000 OA
ATOM     13   O  A00 X   1      51.489  22.047  15.1420  0.00  0.00     0.000 OA
ATOM     14   O  A00 X   1      53.623  22.388  14.1480  0.00  0.00     0.000 OA
ATOM     15   S  A00 X   1      52.602  22.944  14.9940  0.00  0.00     0.000 S
ENDBRANCH 2 11
BRANCH 5 16
ATOM     16   C  A00 X   1      51.273  21.679  20.2620  0.00  0.00     0.000 C
ATOM     17   O  A00 X   1      50.149  21.951  19.8930  0.00  0.00     0.000 OA
ATOM     18   O  A00 X   1      51.549  20.520  20.5030  0.00  0.00     0.000 OA
ENDBRANCH 5 16
BRANCH 1 19
ATOM     19  O4  A00 X   2      53.753  20.590  18.4360  0.00  0.00     0.000 O
BRANCH 19 23
ATOM     20  C1  A00 X   2      58.011  20.421  18.8960  0.00  0.00     0.000 C
ATOM     21  C2  A00 X   2      57.445  20.361  17.4560  0.00  0.00     0.000 C
ATOM     22  C3  A00 X   2      55.985  20.859  17.4190  0.00  0.00     0.000 C
ATOM     23  C4  A00 X   2      55.119  20.084  18.4370  0.00  0.00     0.000 C
ATOM     24  C5  A00 X   2      55.799  20.205  19.8280  0.00  0.00     0.000 C
ATOM     25  O5  A00 X   2      57.133  19.637  19.7470  0.00  0.00     0.000 O
ATOM     26   O  A00 X   2      55.529  20.849  16.0550  0.00  0.00     0.000 O
ATOM     28  HD  A00 X   2      55.791  20.035  15.9210  0.00  0.00     0.000 HD
BRANCH 21 30
ATOM     28   N  A00 X   2      58.545  19.459  17.1030  0.00  0.00     0.000 N
ATOM     30  HD  A00 X   2      58.206  19.744  16.3590  0.00  0.00     0.000 HD
ATOM     30   O  A00 X   2      59.091  19.821  14.8600  0.00  0.00     0.000 OA
ATOM     31   S  A00 X   2      58.547  18.790  15.6700  0.00  0.00     0.000 S
ATOM     32   O  A00 X   2      59.386  17.643  15.8330  0.00  0.00     0.000 OA
ATOM     33   O  A00 X   2      57.201  18.386  15.3900  0.00  0.00     0.000 OA
ENDBRANCH 21 30
BRANCH 24 34
ATOM     34   C  A00 X   2      55.014  19.709  21.0650  0.00  0.00     0.000 C
ATOM     35   O  A00 X   2      53.753  16.316  21.4580  0.00  0.00     0.000 OA
ATOM     36   O  A00 X   2      54.347  18.460  20.7950  0.00  0.00     0.000 O
ATOM     37   O  A00 X   2      56.020  16.843  21.0390  0.00  0.00     0.000 OA
ATOM     38   S  A00 X   2      54.809  17.248  21.6850  0.00  0.00     0.000 S
ATOM     39   O  A00 X   2      54.905  17.742  23.0250  0.00  0.00     0.000 OA
ENDBRANCH 24 34
BRANCH 20 40
ATOM     40  O4  A00 X   3      57.946  21.802  19.2810  0.00  0.00     0.000 O
BRANCH 40 44
ATOM     41  C1  A00 X   3      57.118  24.216  21.8520  0.00  0.00     0.000 C
ATOM     42  C2  A00 X   3      57.619  24.575  20.4360  0.00  0.00     0.000 C
ATOM     43  C3  A00 X   3      58.908  23.787  20.0870  0.00  0.00     0.000 C
ATOM     44  C4  A00 X   3      58.817  22.285  20.3250  0.00  0.00     0.000 C
ATOM     45  C5  A00 X   3      58.312  22.006  21.7690  0.00  0.00     0.000 C
ATOM     46  O5  A00 X   3      57.101  22.777  22.0580  0.00  0.00     0.000 O
ATOM     47   O  A00 X   3      59.511  24.103  18.8340  0.00  0.00     0.000 O
ATOM     49  HD  A00 X   3      59.646  23.248  18.8110  0.00  0.00     0.000 HD
BRANCH 42 49
ATOM     49   O  A00 X   3      56.548  24.267  19.5170  0.00  0.00     0.000 O
ATOM     50   O  A00 X   3      56.235  24.308  17.1440  0.00  0.00     0.000 OA
ATOM     51   O  A00 X   3      57.395  26.093  18.1730  0.00  0.00     0.000 OA
ATOM     52   O  A00 X   3      55.083  25.857  18.6000  0.00  0.00     0.000 OA
ATOM     53   S  A00 X   3      56.289  25.175  18.2790  0.00  0.00     0.000 S
ENDBRANCH 42 49
BRANCH 45 54
ATOM     54   C  A00 X   3      59.421  22.212  22.8080  0.00  0.00     0.000 C
ATOM     55   O  A00 X   3      59.234  21.936  23.9750  0.00  0.00     0.000 OA
ATOM     56   O  A00 X   3      60.510  22.657  22.4800  0.00  0.00     0.000 OA
ENDBRANCH 45 54
BRANCH 41 57
ATOM     57  O4  A00 X   4      57.834  24.947  22.8720  0.00  0.00     0.000 O
BRANCH 57 61
ATOM     58  C1  A00 X   4      56.667  26.545  26.7100  0.00  0.00     0.000 C
ATOM     59  C2  A00 X   4      56.588  25.014  26.4890  0.00  0.00     0.000 C
ATOM     60  C3  A00 X   4      57.355  24.532  25.2410  0.00  0.00     0.000 C
ATOM     61  C4  A00 X   4      57.025  25.389  23.9990  0.00  0.00     0.000 C
ATOM     62  C5  A00 X   4      57.377  26.850  24.3720  0.00  0.00     0.000 C
ATOM     63  O5  A00 X   4      56.532  27.279  25.4710  0.00  0.00     0.000 O
BRANCH 59 66
ATOM     64   N  A00 X   4      55.188  24.606  26.2730  0.00  0.00     0.000 N
ATOM     66  HD  A00 X   4      54.649  25.191  25.9300  0.00  0.00     0.000 HD
ATOM     66   O  A00 X   4      54.918  24.627  28.6660  0.00  0.00     0.000 OA
ATOM     67   S  A00 X   4      54.381  23.986  27.5070  0.00  0.00     0.000 S
ATOM     68   O  A00 X   4      53.043  24.363  27.1580  0.00  0.00     0.000 OA
ATOM     69   O  A00 X   4      54.667  22.591  27.3210  0.00  0.00     0.000 OA
ENDBRANCH 59 66
BRANCH 62 70
ATOM     70   C  A00 X   4      57.216  27.856  23.2070  0.00  0.00     0.000 C
ATOM     71   O  A00 X   4      54.177  28.983  21.5950  0.00  0.00     0.000 OA
ATOM     72   O  A00 X   4      56.191  28.178  20.6800  0.00  0.00     0.000 OA
ATOM     73   O  A00 X   4      55.827  28.191  23.0570  0.00  0.00     0.000 O
ATOM     74   O  A00 X   4      54.620  26.615  21.6930  0.00  0.00     0.000 OA
ATOM     75   S  A00 X   4      55.158  27.937  21.6620  0.00  0.00     0.000 S
ENDBRANCH 62 70
ENDBRANCH 57 61
ENDBRANCH 41 57
ENDBRANCH 40 44
ENDBRANCH 20 40
ENDBRANCH 19 23
ENDBRANCH 1 19
TORSDOF 14
ENDMDL
MODEL 94
REMARK VINA RESULT:      -0.7     48.928     53.952
ROOT
ATOM      1  C1  A00 X   1      46.395  52.851  11.8830  0.00  0.00     0.000 C
ATOM      2  C2  A00 X   1      45.797  51.941  10.7760  0.00  0.00     0.000 C
ATOM      3  C3  A00 X   1      45.311  50.527  11.2370  0.00  0.00     0.000 C
ATOM      4  C4  A00 X   1      45.811  50.070  12.6320  0.00  0.00     0.000 C
ATOM      5  C5  A00 X   1      47.083  50.803  13.0580  0.00  0.00     0.000 C
ATOM      6  O5  A00 X   1      46.696  52.193  13.1380  0.00  0.00     0.000 O
ATOM      7   O  A00 X   1      45.777  49.557  10.3020  0.00  0.00     0.000 O
ATOM      9  HD  A00 X   1      45.879  49.219  11.0930  0.00  0.00     0.000 HD
ATOM      9   O  A00 X   1      44.802  50.237  13.6280  0.00  0.00     0.000 O
ATOM     11  HD  A00 X   1      44.904  49.899  14.4190  0.00  0.00     0.000 HD
ENDROOT
BRANCH 2 11
ATOM     11   O  A00 X   1      44.692  52.646  10.1790  0.00  0.00     0.000 O
ATOM     12   O  A00 X   1      43.505  51.773   8.2820  0.00  0.00     0.000 OA
ATOM     13   O  A00 X   1      45.852  52.365   8.0480  0.00  0.00     0.000 OA
ATOM     14   O  A00 X   1      44.211  54.054   8.3800  0.00  0.00     0.000 OA
ATOM     15   S  A00 X   1      44.571  52.682   8.6160  0.00  0.00     0.000 S
ENDBRANCH 2 11
BRANCH 5 16
ATOM     16   C  A00 X   1      48.303  50.557  12.1630  0.00  0.00     0.000 C
ATOM     17   O  A00 X   1      49.289  51.245  12.3240  0.00  0.00     0.000 OA
ATOM     18   O  A00 X   1      48.320  49.696  11.3070  0.00  0.00     0.000 OA
ENDBRANCH 5 16
BRANCH 1 19
ATOM     19  O4  A00 X   2      47.517  53.639  11.4160  0.00  0.00     0.000 O
BRANCH 19 23
ATOM     20  C1  A00 X   2      46.474  57.073  13.7580  0.00  0.00     0.000 C
ATOM     21  C2  A00 X   2      46.040  57.063  12.2730  0.00  0.00     0.000 C
ATOM     22  C3  A00 X   2      46.091  55.633  11.6950  0.00  0.00     0.000 C
ATOM     23  C4  A00 X   2      47.486  55.006  11.9170  0.00  0.00     0.000 C
ATOM     24  C5  A00 X   2      47.810  55.094  13.4330  0.00  0.00     0.000 C
ATOM     25  O5  A00 X   2      47.802  56.489  13.8330  0.00  0.00     0.000 O
ATOM     26   O  A00 X   2      45.614  55.666  10.3390  0.00  0.00     0.000 O
ATOM     28  HD  A00 X   2      46.136  56.321  10.1190  0.00  0.00     0.000 HD
BRANCH 21 30
ATOM     28   N  A00 X   2      46.257  58.512  12.2400  0.00  0.00     0.000 N
ATOM     30  HD  A00 X   2      45.787  58.313  11.5400  0.00  0.00     0.000 HD
ATOM     30   O  A00 X   2      44.737  59.441  10.7280  0.00  0.00     0.000 OA
ATOM     31   S  A00 X   2      46.140  59.265  10.8550  0.00  0.00     0.000 S
ATOM     32   O  A00 X   2      46.884  60.470  11.0610  0.00  0.00     0.000 OA
ATOM     33   O  A00 X   2      46.784  58.445   9.8720  0.00  0.00     0.000 OA
ENDBRANCH 21 30
BRANCH 24 34
ATOM     34   C  A00 X   2      49.050  54.331  13.9560  0.00  0.00     0.000 C
ATOM     35   O  A00 X   2      51.914  55.929  15.5360  0.00  0.00     0.000 OA
ATOM     36   O  A00 X   2      50.152  55.228  14.1980  0.00  0.00     0.000 O
ATOM     37   O  A00 X   2      49.684  56.174  16.2850  0.00  0.00     0.000 OA
ATOM     38   S  A00 X   2      50.645  55.297  15.6900  0.00  0.00     0.000 S
ATOM     39   O  A00 X   2      50.694  53.946  16.1630  0.00  0.00     0.000 OA
ENDBRANCH 24 34
BRANCH 20 40
ATOM     40  O4  A00 X   3      45.539  56.226  14.4420  0.00  0.00     0.000 O
BRANCH 40 44
ATOM     41  C1  A00 X   3      44.970  53.620  16.8940  0.00  0.00     0.000 C
ATOM     42  C2  A00 X   3      43.867  54.278  16.0360  0.00  0.00     0.000 C
ATOM     43  C3  A00 X   3      43.945  55.824  16.1210  0.00  0.00     0.000 C
ATOM     44  C4  A00 X   3      45.330  56.403  15.8590  0.00  0.00     0.000 C
ATOM     45  C5  A00 X   3      46.381  55.696  16.7610  0.00  0.00     0.000 C
ATOM     46  O5  A00 X   3      46.264  54.240  16.6570  0.00  0.00     0.000 O
ATOM     47   O  A00 X   3      42.919  56.538  15.4350  0.00  0.00     0.000 O
ATOM     49  HD  A00 X   3      43.575  57.069  15.2400  0.00  0.00     0.000 HD
BRANCH 42 49
ATOM     49   O  A00 X   3      44.051  53.813  14.6810  0.00  0.00     0.000 O
ATOM     50   O  A00 X   3      43.026  54.219  12.5560  0.00  0.00     0.000 OA
ATOM     51   O  A00 X   3      41.648  53.997  14.4640  0.00  0.00     0.000 OA
ATOM     52   O  A00 X   3      42.806  52.091  13.6830  0.00  0.00     0.000 OA
ATOM     53   S  A00 X   3      42.819  53.510  13.7800  0.00  0.00     0.000 S
ENDBRANCH 42 49
BRANCH 45 54
ATOM     54   C  A00 X   3      46.324  56.205  18.2060  0.00  0.00     0.000 C
ATOM     55   O  A00 X   3      47.153  55.852  19.0200  0.00  0.00     0.000 OA
ATOM     56   O  A00 X   3      45.444  56.972  18.5640  0.00  0.00     0.000 OA
ENDBRANCH 45 54
BRANCH 41 57
ATOM     57  O4  A00 X   4      44.595  53.557  18.2880  0.00  0.00     0.000 O
BRANCH 57 61
ATOM     58  C1  A00 X   4      45.410  50.707  21.4270  0.00  0.00     0.000 C
ATOM     59  C2  A00 X   4      46.600  51.463  20.7850  0.00  0.00     0.000 C
ATOM     60  C3  A00 X   4      46.172  52.689  19.9530  0.00  0.00     0.000 C
ATOM     61  C4  A00 X   4      45.016  52.351  18.9870  0.00  0.00     0.000 C
ATOM     62  C5  A00 X   4      43.860  51.810  19.8650  0.00  0.00     0.000 C
ATOM     63  O5  A00 X   4      44.290  50.589  20.5200  0.00  0.00     0.000 O
BRANCH 59 66
ATOM     64   N  A00 X   4      47.809  51.172  19.9940  0.00  0.00     0.000 N
ATOM     66  HD  A00 X   4      47.710  50.720  19.2620  0.00  0.00     0.000 HD
ATOM     66   O  A00 X   4      48.470  49.660  21.7480  0.00  0.00     0.000 OA
ATOM     67   S  A00 X   4      49.049  50.483  20.7330  0.00  0.00     0.000 S
ATOM     68   O  A00 X   4      49.647  49.781  19.6350  0.00  0.00     0.000 OA
ATOM     69   O  A00 X   4      49.775  51.649  21.1500  0.00  0.00     0.000 OA
ENDBRANCH 59 66
BRANCH 62 70
ATOM     70   C  A00 X   4      42.557  51.515  19.0830  0.00  0.00     0.000 C
ATOM     71   O  A00 X   4      41.915  48.901  16.6610  0.00  0.00     0.000 OA
ATOM     72   O  A00 X   4      41.500  51.217  16.5660  0.00  0.00     0.000 OA
ATOM     73   O  A00 X   4      42.676  50.244  18.4240  0.00  0.00     0.000 O
ATOM     74   O  A00 X   4      43.775  50.389  16.2850  0.00  0.00     0.000 OA
ATOM     75   S  A00 X   4      42.486  50.203  16.8680  0.00  0.00     0.000 S
ENDBRANCH 62 70
ENDBRANCH 57 61
ENDBRANCH 41 57
ENDBRANCH 40 44
ENDBRANCH 20 40
ENDBRANCH 19 23
ENDBRANCH 1 19
TORSDOF 14
ENDMDL
MODEL 95
REMARK VINA RESULT:      -0.7     49.366     53.891
ROOT
ATOM      1  C1  A00 X   1      48.280  51.144  12.5860  0.00  0.00     0.000 C
ATOM      2  C2  A00 X   1      47.856  49.984  11.6460  0.00  0.00     0.000 C
ATOM      3  C3  A00 X   1      47.735  48.572  12.3070  0.00  0.00     0.000 C
ATOM      4  C4  A00 X   1      48.396  48.429  13.7030  0.00  0.00     0.000 C
ATOM      5  C5  A00 X   1      49.483  49.478  13.9370  0.00  0.00     0.000 C
ATOM      6  O5  A00 X   1      48.788  50.744  13.8830  0.00  0.00     0.000 O
ATOM      7   O  A00 X   1      48.366  47.614  11.4600  0.00  0.00     0.000 O
ATOM      9  HD  A00 X   1      48.583  47.417  12.2750  0.00  0.00     0.000 HD
ATOM      9   O  A00 X   1      47.426  48.497  14.7480  0.00  0.00     0.000 O
ATOM     11  HD  A00 X   1      47.643  48.299  15.5630  0.00  0.00     0.000 HD
ENDROOT
BRANCH 2 11
ATOM     11   O  A00 X   1      46.589  50.338  11.0580  0.00  0.00     0.000 O
ATOM     12   O  A00 X   1      45.330  48.786   9.7260  0.00  0.00     0.000 OA
ATOM     13   O  A00 X   1      47.508  49.531   8.9440  0.00  0.00     0.000 OA
ATOM     14   O  A00 X   1      45.676  51.045   9.0290  0.00  0.00     0.000 OA
ATOM     15   S  A00 X   1      46.273  49.867   9.5960  0.00  0.00     0.000 S
ENDBRANCH 2 11
BRANCH 5 16
ATOM     16   C  A00 X   1      50.680  49.394  12.9850  0.00  0.00     0.000 C
ATOM     17   O  A00 X   1      50.847  48.373  12.3500  0.00  0.00     0.000 OA
ATOM     18   O  A00 X   1      51.461  50.312  12.8370  0.00  0.00     0.000 OA
ENDBRANCH 5 16
BRANCH 1 19
ATOM     19  O4  A00 X   2      49.164  52.094  11.9420  0.00  0.00     0.000 O
BRANCH 19 23
ATOM     20  C1  A00 X   2      47.368  55.503  13.8160  0.00  0.00     0.000 C
ATOM     21  C2  A00 X   2      46.915  55.158  12.3770  0.00  0.00     0.000 C
ATOM     22  C3  A00 X   2      47.301  53.709  12.0120  0.00  0.00     0.000 C
ATOM     23  C4  A00 X   2      48.812  53.475  12.2390  0.00  0.00     0.000 C
ATOM     24  C5  A00 X   2      49.139  53.873  13.7040  0.00  0.00     0.000 C
ATOM     25  O5  A00 X   2      48.799  55.271  13.8950  0.00  0.00     0.000 O
ATOM     26   O  A00 X   2      46.801  53.416  10.6960  0.00  0.00     0.000 O
ATOM     28  HD  A00 X   2      47.141  54.134  10.3520  0.00  0.00     0.000 HD
BRANCH 21 30
ATOM     28   N  A00 X   2      46.776  56.594  12.1140  0.00  0.00     0.000 N
ATOM     30  HD  A00 X   2      46.349  56.181  11.4830  0.00  0.00     0.000 HD
ATOM     30   O  A00 X   2      45.037  56.887  10.5820  0.00  0.00     0.000 OA
ATOM     31   S  A00 X   2      46.444  57.067  10.6420  0.00  0.00     0.000 S
ATOM     32   O  A00 X   2      46.881  58.428  10.6180  0.00  0.00     0.000 OA
ATOM     33   O  A00 X   2      47.239  56.273   9.7530  0.00  0.00     0.000 OA
ENDBRANCH 21 30
BRANCH 24 34
ATOM     34   C  A00 X   2      50.539  53.518  14.2570  0.00  0.00     0.000 C
ATOM     35   O  A00 X   2      52.989  55.982  15.3460  0.00  0.00     0.000 OA
ATOM     36   O  A00 X   2      51.404  54.671  14.2690  0.00  0.00     0.000 O
ATOM     37   O  A00 X   2      50.788  55.840  16.1990  0.00  0.00     0.000 OA
ATOM     38   S  A00 X   2      51.911  55.114  15.6910  0.00  0.00     0.000 S
ATOM     39   O  A00 X   2      52.292  53.916  16.3760  0.00  0.00     0.000 OA
ENDBRANCH 24 34
BRANCH 20 40
ATOM     40  O4  A00 X   3      46.684  54.575  14.6710  0.00  0.00     0.000 O
BRANCH 40 44
ATOM     41  C1  A00 X   3      46.825  52.314  17.4980  0.00  0.00     0.000 C
ATOM     42  C2  A00 X   3      45.573  52.558  16.6270  0.00  0.00     0.000 C
ATOM     43  C3  A00 X   3      45.281  54.074  16.4880  0.00  0.00     0.000 C
ATOM     44  C4  A00 X   3      46.479  54.913  16.0590  0.00  0.00     0.000 C
ATOM     45  C5  A00 X   3      47.694  54.616  16.9830  0.00  0.00     0.000 C
ATOM     46  O5  A00 X   3      47.926  53.174  17.0940  0.00  0.00     0.000 O
ATOM     47   O  A00 X   3      44.094  54.417  15.7740  0.00  0.00     0.000 O
ATOM     49  HD  A00 X   3      44.598  55.050  15.4650  0.00  0.00     0.000 HD
BRANCH 42 49
ATOM     49   O  A00 X   3      45.825  51.948  15.3420  0.00  0.00     0.000 O
ATOM     50   O  A00 X   3      44.671  51.770  13.2530  0.00  0.00     0.000 OA
ATOM     51   O  A00 X   3      43.444  51.524  15.2590  0.00  0.00     0.000 OA
ATOM     52   O  A00 X   3      45.008  49.848  14.6820  0.00  0.00     0.000 OA
ATOM     53   S  A00 X   3      44.678  51.228  14.5750  0.00  0.00     0.000 S
ENDBRANCH 42 49
BRANCH 45 54
ATOM     54   C  A00 X   3      47.556  55.312  18.3420  0.00  0.00     0.000 C
ATOM     55   O  A00 X   3      48.478  55.314  19.1320  0.00  0.00     0.000 OA
ATOM     56   O  A00 X   3      46.518  55.873  18.6560  0.00  0.00     0.000 OA
ENDBRANCH 45 54
BRANCH 41 57
ATOM     57  O4  A00 X   4      46.516  52.378  18.9080  0.00  0.00     0.000 O
BRANCH 57 61
ATOM     58  C1  A00 X   4      48.059  50.287  22.3550  0.00  0.00     0.000 C
ATOM     59  C2  A00 X   4      49.026  51.175  21.5330  0.00  0.00     0.000 C
ATOM     60  C3  A00 X   4      48.305  52.137  20.5670  0.00  0.00     0.000 C
ATOM     61  C4  A00 X   4      47.220  51.414  19.7400  0.00  0.00     0.000 C
ATOM     62  C5  A00 X   4      46.247  50.775  20.7620  0.00  0.00     0.000 C
ATOM     63  O5  A00 X   4      46.963  49.792  21.5520  0.00  0.00     0.000 O
BRANCH 59 66
ATOM     64   N  A00 X   4      49.978  50.479  20.6490  0.00  0.00     0.000 N
ATOM     66  HD  A00 X   4      49.721  49.731  20.2940  0.00  0.00     0.000 HD
ATOM     66   O  A00 X   4      51.286  49.989  22.6110  0.00  0.00     0.000 OA
ATOM     67   S  A00 X   4      51.449  50.182  21.2040  0.00  0.00     0.000 S
ATOM     68   O  A00 X   4      51.776  49.006  20.4530  0.00  0.00     0.000 OA
ATOM     69   O  A00 X   4      52.128  51.368  20.7650  0.00  0.00     0.000 OA
ENDBRANCH 59 66
BRANCH 62 70
ATOM     70   C  A00 X   4      45.017  50.089  20.1200  0.00  0.00     0.000 C
ATOM     71   O  A00 X   4      44.891  47.048  18.1590  0.00  0.00     0.000 OA
ATOM     72   O  A00 X   4      43.971  49.177  17.7500  0.00  0.00     0.000 OA
ATOM     73   O  A00 X   4      45.393  48.784  19.6500  0.00  0.00     0.000 O
ATOM     74   O  A00 X   4      46.363  48.820  17.4450  0.00  0.00     0.000 OA
ATOM     75   S  A00 X   4      45.166  48.458  18.1330  0.00  0.00     0.000 S
ENDBRANCH 62 70
ENDBRANCH 57 61
ENDBRANCH 41 57
ENDBRANCH 40 44
ENDBRANCH 20 40
ENDBRANCH 19 23
ENDBRANCH 1 19
TORSDOF 14
ENDMDL
MODEL 96
REMARK VINA RESULT:      -0.7     41.940     48.165
ROOT
ATOM      1  C1  A00 X   1      11.223  35.495  54.6540  0.00  0.00     0.000 C
ATOM      2  C2  A00 X   1      12.142  36.695  55.0060  0.00  0.00     0.000 C
ATOM      3  C3  A00 X   1      13.563  36.688  54.3510  0.00  0.00     0.000 C
ATOM      4  C4  A00 X   1      14.011  35.334  53.7430  0.00  0.00     0.000 C
ATOM      5  C5  A00 X   1      13.259  34.150  54.3510  0.00  0.00     0.000 C
ATOM      6  O5  A00 X   1      11.875  34.377  54.0030  0.00  0.00     0.000 O
ATOM      7   O  A00 X   1      14.527  37.023  55.3460  0.00  0.00     0.000 O
ATOM      9  HD  A00 X   1      14.863  36.381  54.8720  0.00  0.00     0.000 HD
ATOM      9   O  A00 X   1      13.860  35.323  52.3230  0.00  0.00     0.000 O
ATOM     11  HD  A00 X   1      14.195  34.681  51.8490  0.00  0.00     0.000 HD
ENDROOT
BRANCH 2 11
ATOM     11   O  A00 X   1      11.455  37.902  54.6210  0.00  0.00     0.000 O
ATOM     12   O  A00 X   1      12.379  40.079  55.0410  0.00  0.00     0.000 OA
ATOM     13   O  A00 X   1      11.789  38.653  56.9220  0.00  0.00     0.000 OA
ATOM     14   O  A00 X   1      10.094  39.569  55.5270  0.00  0.00     0.000 OA
ATOM     15   S  A00 X   1      11.459  39.123  55.6040  0.00  0.00     0.000 S
ENDBRANCH 2 11
BRANCH 5 16
ATOM     16   C  A00 X   1      13.487  33.940  55.8520  0.00  0.00     0.000 C
ATOM     17   O  A00 X   1      14.443  34.476  56.3750  0.00  0.00     0.000 OA
ATOM     18   O  A00 X   1      12.745  33.264  56.5350  0.00  0.00     0.000 OA
ENDBRANCH 5 16
BRANCH 1 19
ATOM     19  O4  A00 X   2      10.418  35.058  55.7760  0.00  0.00     0.000 O
BRANCH 19 23
ATOM     20  C1  A00 X   2       7.006  34.125  53.3570  0.00  0.00     0.000 C
ATOM     21  C2  A00 X   2       7.014  35.491  54.0850  0.00  0.00     0.000 C
ATOM     22  C3  A00 X   2       8.440  35.862  54.5410  0.00  0.00     0.000 C
ATOM     23  C4  A00 X   2       9.054  34.726  55.3900  0.00  0.00     0.000 C
ATOM     24  C5  A00 X   2       8.970  33.416  54.5600  0.00  0.00     0.000 C
ATOM     25  O5  A00 X   2       7.577  33.141  54.2600  0.00  0.00     0.000 O
ATOM     26   O  A00 X   2       8.406  37.165  55.1480  0.00  0.00     0.000 O
ATOM     28  HD  A00 X   2       7.744  36.960  55.6680  0.00  0.00     0.000 HD
BRANCH 21 30
ATOM     28   N  A00 X   2       5.562  35.368  54.2520  0.00  0.00     0.000 N
ATOM     30  HD  A00 X   2       5.763  36.196  54.4050  0.00  0.00     0.000 HD
ATOM     30   O  A00 X   2       4.642  37.515  54.2090  0.00  0.00     0.000 OA
ATOM     31   S  A00 X   2       4.806  36.444  55.1280  0.00  0.00     0.000 S
ATOM     32   O  A00 X   2       3.596  35.783  55.5070  0.00  0.00     0.000 OA
ATOM     33   O  A00 X   2       5.617  36.697  56.2810  0.00  0.00     0.000 OA
ENDBRANCH 21 30
BRANCH 24 34
ATOM     34   C  A00 X   2       9.723  32.173  55.0900  0.00  0.00     0.000 C
ATOM     35   O  A00 X   2       9.127  30.659  58.3470  0.00  0.00     0.000 OA
ATOM     36   O  A00 X   2       9.542  32.017  56.5110  0.00  0.00     0.000 O
ATOM     37   O  A00 X   2       7.443  31.007  56.7230  0.00  0.00     0.000 OA
ATOM     38   S  A00 X   2       8.820  30.693  56.9550  0.00  0.00     0.000 S
ATOM     39   O  A00 X   2       9.399  29.637  56.1790  0.00  0.00     0.000 OA
ENDBRANCH 24 34
BRANCH 20 40
ATOM     40  O4  A00 X   3       7.866  34.287  52.2200  0.00  0.00     0.000 O
BRANCH 40 44
ATOM     41  C1  A00 X   3      10.498  32.917  50.1410  0.00  0.00     0.000 C
ATOM     42  C2  A00 X   3       9.846  34.302  49.9370  0.00  0.00     0.000 C
ATOM     43  C3  A00 X   3       8.300  34.189  49.9130  0.00  0.00     0.000 C
ATOM     44  C4  A00 X   3       7.703  33.414  51.0810  0.00  0.00     0.000 C
ATOM     45  C5  A00 X   3       8.406  32.034  51.2190  0.00  0.00     0.000 C
ATOM     46  O5  A00 X   3       9.862  32.188  51.2270  0.00  0.00     0.000 O
ATOM     47   O  A00 X   3       7.591  35.397  49.6430  0.00  0.00     0.000 O
ATOM     49  HD  A00 X   3       7.052  35.082  50.2420  0.00  0.00     0.000 HD
BRANCH 42 49
ATOM     49   O  A00 X   3      10.297  35.146  51.0190  0.00  0.00     0.000 O
ATOM     50   O  A00 X   3       9.900  37.392  51.7450  0.00  0.00     0.000 OA
ATOM     51   O  A00 X   3      10.165  36.970  49.4340  0.00  0.00     0.000 OA
ATOM     52   O  A00 X   3      12.040  36.710  50.8490  0.00  0.00     0.000 OA
ATOM     53   S  A00 X   3      10.622  36.646  50.7620  0.00  0.00     0.000 S
ENDBRANCH 42 49
BRANCH 45 54
ATOM     54   C  A00 X   3       7.910  31.037  50.1640  0.00  0.00     0.000 C
ATOM     55   O  A00 X   3       7.201  31.405  49.2500  0.00  0.00     0.000 OA
ATOM     56   O  A00 X   3       8.217  29.857  50.2270  0.00  0.00     0.000 OA
ENDBRANCH 45 54
BRANCH 41 57
ATOM     57  O4  A00 X   4      10.577  32.176  48.9030  0.00  0.00     0.000 O
BRANCH 57 61
ATOM     58  C1  A00 X   4      13.432  29.329  47.3590  0.00  0.00     0.000 C
ATOM     59  C2  A00 X   4      12.663  28.979  48.6570  0.00  0.00     0.000 C
ATOM     60  C3  A00 X   4      11.438  29.881  48.9090  0.00  0.00     0.000 C
ATOM     61  C4  A00 X   4      11.782  31.376  48.7370  0.00  0.00     0.000 C
ATOM     62  C5  A00 X   4      12.337  31.533  47.3000  0.00  0.00     0.000 C
ATOM     63  O5  A00 X   4      13.556  30.757  47.1710  0.00  0.00     0.000 O
BRANCH 59 66
ATOM     64   N  A00 X   4      13.494  29.139  49.8640  0.00  0.00     0.000 N
ATOM     66  HD  A00 X   4      14.123  29.734  49.8400  0.00  0.00     0.000 HD
ATOM     66   O  A00 X   4      14.454  26.987  49.3670  0.00  0.00     0.000 OA
ATOM     67   S  A00 X   4      14.188  27.838  50.4850  0.00  0.00     0.000 S
ATOM     68   O  A00 X   4      15.341  28.428  51.1000  0.00  0.00     0.000 OA
ATOM     69   O  A00 X   4      13.172  27.428  51.4120  0.00  0.00     0.000 OA
ENDBRANCH 59 66
BRANCH 62 70
ATOM     70   C  A00 X   4      12.640  32.996  46.8960  0.00  0.00     0.000 C
ATOM     71   O  A00 X   4      15.221  35.201  48.1530  0.00  0.00     0.000 OA
ATOM     72   O  A00 X   4      12.911  35.553  47.8600  0.00  0.00     0.000 OA
ATOM     73   O  A00 X   4      13.897  33.395  47.4650  0.00  0.00     0.000 O
ATOM     74   O  A00 X   4      13.695  34.198  49.7270  0.00  0.00     0.000 OA
ATOM     75   S  A00 X   4      13.914  34.658  48.3940  0.00  0.00     0.000 S
ENDBRANCH 62 70
ENDBRANCH 57 61
ENDBRANCH 41 57
ENDBRANCH 40 44
ENDBRANCH 20 40
ENDBRANCH 19 23
ENDBRANCH 1 19
TORSDOF 14
ENDMDL
MODEL 97
REMARK VINA RESULT:      -0.7     44.472     50.710
ROOT
ATOM      1  C1  A00 X   1      11.084  35.582  56.7210  0.00  0.00     0.000 C
ATOM      2  C2  A00 X   1      11.583  37.019  56.4160  0.00  0.00     0.000 C
ATOM      3  C3  A00 X   1      12.135  37.263  54.9730  0.00  0.00     0.000 C
ATOM      4  C4  A00 X   1      12.459  35.986  54.1560  0.00  0.00     0.000 C
ATOM      5  C5  A00 X   1      12.701  34.773  55.0540  0.00  0.00     0.000 C
ATOM      6  O5  A00 X   1      11.448  34.573  55.7460  0.00  0.00     0.000 O
ATOM      7   O  A00 X   1      13.351  38.002  55.0670  0.00  0.00     0.000 O
ATOM      9  HD  A00 X   1      13.468  37.395  54.4600  0.00  0.00     0.000 HD
ATOM      9   O  A00 X   1      11.426  35.692  53.2160  0.00  0.00     0.000 O
ATOM     11  HD  A00 X   1      11.542  35.085  52.6090  0.00  0.00     0.000 HD
ENDROOT
BRANCH 2 11
ATOM     11   O  A00 X   1      10.488  37.924  56.6580  0.00  0.00     0.000 O
ATOM     12   O  A00 X   1      10.609  40.250  56.0740  0.00  0.00     0.000 OA
ATOM     13   O  A00 X   1      12.116  39.368  57.7680  0.00  0.00     0.000 OA
ATOM     14   O  A00 X   1       9.782  39.531  58.1980  0.00  0.00     0.000 OA
ATOM     15   S  A00 X   1      10.798  39.364  57.1940  0.00  0.00     0.000 S
ENDBRANCH 2 11
BRANCH 5 16
ATOM     16   C  A00 X   1      13.907  34.890  55.9910  0.00  0.00     0.000 C
ATOM     17   O  A00 X   1      13.954  34.176  56.9710  0.00  0.00     0.000 OA
ATOM     18   O  A00 X   1      14.820  35.666  55.7840  0.00  0.00     0.000 OA
ENDBRANCH 5 16
BRANCH 1 19
ATOM     19  O4  A00 X   2      11.399  35.153  58.0680  0.00  0.00     0.000 O
BRANCH 19 23
ATOM     20  C1  A00 X   2       7.617  33.230  58.6720  0.00  0.00     0.000 C
ATOM     21  C2  A00 X   2       7.786  34.665  59.2260  0.00  0.00     0.000 C
ATOM     22  C3  A00 X   2       8.994  35.368  58.5730  0.00  0.00     0.000 C
ATOM     23  C4  A00 X   2      10.271  34.511  58.7290  0.00  0.00     0.000 C
ATOM     24  C5  A00 X   2       9.968  33.100  58.1560  0.00  0.00     0.000 C
ATOM     25  O5  A00 X   2       8.864  32.521  58.9000  0.00  0.00     0.000 O
ATOM     26   O  A00 X   2       9.066  36.716  59.0690  0.00  0.00     0.000 O
ATOM     28  HD  A00 X   2       9.010  36.468  59.8970  0.00  0.00     0.000 HD
BRANCH 21 30
ATOM     28   N  A00 X   2       6.916  34.290  60.3450  0.00  0.00     0.000 N
ATOM     30  HD  A00 X   2       6.962  35.155  60.3420  0.00  0.00     0.000 HD
ATOM     30   O  A00 X   2       5.734  36.191  61.0160  0.00  0.00     0.000 OA
ATOM     31   S  A00 X   2       6.724  35.315  61.5330  0.00  0.00     0.000 S
ATOM     32   O  A00 X   2       6.295  34.494  62.6230  0.00  0.00     0.000 OA
ATOM     33   O  A00 X   2       8.010  35.883  61.8140  0.00  0.00     0.000 OA
ENDBRANCH 21 30
BRANCH 24 34
ATOM     34   C  A00 X   2      11.150  32.118  57.9810  0.00  0.00     0.000 C
ATOM     35   O  A00 X   2      11.463  28.960  59.7660  0.00  0.00     0.000 OA
ATOM     36   O  A00 X   2      11.189  31.151  59.0490  0.00  0.00     0.000 O
ATOM     37   O  A00 X   2       9.593  29.552  58.4440  0.00  0.00     0.000 OA
ATOM     38   S  A00 X   2      11.011  29.653  58.6040  0.00  0.00     0.000 S
ATOM     39   O  A00 X   2      11.825  29.477  57.4390  0.00  0.00     0.000 OA
ENDBRANCH 24 34
BRANCH 20 40
ATOM     40  O4  A00 X   3       7.403  33.382  57.2610  0.00  0.00     0.000 O
BRANCH 40 44
ATOM     41  C1  A00 X   3       8.173  32.288  53.8940  0.00  0.00     0.000 C
ATOM     42  C2  A00 X   3       7.217  33.448  54.2460  0.00  0.00     0.000 C
ATOM     43  C3  A00 X   3       6.168  33.005  55.2980  0.00  0.00     0.000 C
ATOM     44  C4  A00 X   3       6.754  32.321  56.5270  0.00  0.00     0.000 C
ATOM     45  C5  A00 X   3       7.699  31.165  56.0930  0.00  0.00     0.000 C
ATOM     46  O5  A00 X   3       8.664  31.626  55.0920  0.00  0.00     0.000 O
ATOM     47   O  A00 X   3       5.176  33.973  55.6360  0.00  0.00     0.000 O
ATOM     49  HD  A00 X   3       5.295  33.651  56.4310  0.00  0.00     0.000 HD
BRANCH 42 49
ATOM     49   O  A00 X   3       8.032  34.534  54.7380  0.00  0.00     0.000 O
ATOM     50   O  A00 X   3       7.650  36.728  55.6160  0.00  0.00     0.000 OA
ATOM     51   O  A00 X   3       6.379  36.005  53.7580  0.00  0.00     0.000 OA
ATOM     52   O  A00 X   3       8.691  36.390  53.4590  0.00  0.00     0.000 OA
ATOM     53   S  A00 X   3       7.679  36.007  54.3820  0.00  0.00     0.000 S
ENDBRANCH 42 49
BRANCH 45 54
ATOM     54   C  A00 X   3       6.912  29.927  55.6460  0.00  0.00     0.000 C
ATOM     55   O  A00 X   3       5.705  29.972  55.5230  0.00  0.00     0.000 OA
ATOM     56   O  A00 X   3       7.484  28.874  55.4090  0.00  0.00     0.000 OA
ENDBRANCH 45 54
BRANCH 41 57
ATOM     57  O4  A00 X   4       7.588  31.390  52.9240  0.00  0.00     0.000 O
BRANCH 57 61
ATOM     58  C1  A00 X   4       9.261  29.043  49.7100  0.00  0.00     0.000 C
ATOM     59  C2  A00 X   4       9.725  28.753  51.1600  0.00  0.00     0.000 C
ATOM     60  C3  A00 X   4       8.816  29.384  52.2340  0.00  0.00     0.000 C
ATOM     61  C4  A00 X   4       8.514  30.867  51.9300  0.00  0.00     0.000 C
ATOM     62  C5  A00 X   4       7.864  30.899  50.5240  0.00  0.00     0.000 C
ATOM     63  O5  A00 X   4       8.818  30.409  49.5470  0.00  0.00     0.000 O
BRANCH 59 66
ATOM     64   N  A00 X   4      11.059  29.356  51.3310  0.00  0.00     0.000 N
ATOM     66  HD  A00 X   4      11.258  30.035  50.8310  0.00  0.00     0.000 HD
ATOM     66   O  A00 X   4      11.977  27.368  50.3300  0.00  0.00     0.000 OA
ATOM     67   S  A00 X   4      12.339  28.400  51.2500  0.00  0.00     0.000 S
ATOM     68   O  A00 X   4      13.325  29.328  50.7780  0.00  0.00     0.000 OA
ATOM     69   O  A00 X   4      12.478  28.046  52.6330  0.00  0.00     0.000 OA
ENDBRANCH 59 66
BRANCH 62 70
ATOM     70   C  A00 X   4       7.384  32.302  50.0820  0.00  0.00     0.000 C
ATOM     71   O  A00 X   4       9.370  35.205  49.2210  0.00  0.00     0.000 OA
ATOM     72   O  A00 X   4       7.526  34.982  50.6680  0.00  0.00     0.000 OA
ATOM     73   O  A00 X   4       8.508  33.060  49.6060  0.00  0.00     0.000 O
ATOM     74   O  A00 X   4       9.713  34.171  51.3720  0.00  0.00     0.000 OA
ATOM     75   S  A00 X   4       8.812  34.435  50.2970  0.00  0.00     0.000 S
ENDBRANCH 62 70
ENDBRANCH 57 61
ENDBRANCH 41 57
ENDBRANCH 40 44
ENDBRANCH 20 40
ENDBRANCH 19 23
ENDBRANCH 1 19
TORSDOF 14
ENDMDL
MODEL 98
REMARK VINA RESULT:      -0.1      4.677      9.300
ROOT
ATOM      1  C1  A00 X   1      12.488  19.030   9.0600  0.00  0.00     0.000 C
ATOM      2  C2  A00 X   1      11.482  19.503  10.1420  0.00  0.00     0.000 C
ATOM      3  C3  A00 X   1       9.986  19.600   9.6950  0.00  0.00     0.000 C
ATOM      4  C4  A00 X   1       9.743  19.573   8.1640  0.00  0.00     0.000 C
ATOM      5  C5  A00 X   1      10.981  20.000   7.3760  0.00  0.00     0.000 C
ATOM      6  O5  A00 X   1      11.982  19.010   7.7020  0.00  0.00     0.000 O
ATOM      7   O  A00 X   1       9.446  20.832  10.1690  0.00  0.00     0.000 O
ATOM      9  HD  A00 X   1       9.150  20.716   9.3640  0.00  0.00     0.000 HD
ATOM      9   O  A00 X   1       9.312  18.284   7.7270  0.00  0.00     0.000 O
ATOM     11  HD  A00 X   1       9.016  18.169   6.9210  0.00  0.00     0.000 HD
ENDROOT
BRANCH 2 11
ATOM     11   O  A00 X   1      11.580  18.597  11.2580  0.00  0.00     0.000 O
ATOM     12   O  A00 X   1       9.958  18.583  13.0290  0.00  0.00     0.000 OA
ATOM     13   O  A00 X   1      11.331  20.561  12.6890  0.00  0.00     0.000 OA
ATOM     14   O  A00 X   1      12.305  18.539  13.4770  0.00  0.00     0.000 OA
ATOM     15   S  A00 X   1      11.250  19.127  12.6960  0.00  0.00     0.000 S
ENDBRANCH 2 11
BRANCH 5 16
ATOM     16   C  A00 X   1      11.440  21.440   7.6200  0.00  0.00     0.000 C
ATOM     17   O  A00 X   1      12.516  21.790   7.1790  0.00  0.00     0.000 OA
ATOM     18   O  A00 X   1      10.766  22.245   8.2320  0.00  0.00     0.000 OA
ENDBRANCH 5 16
BRANCH 1 19
ATOM     19  O4  A00 X   2      13.762  19.715   9.1390  0.00  0.00     0.000 O
BRANCH 19 23
ATOM     20  C1  A00 X   2      15.955  16.109   9.8840  0.00  0.00     0.000 C
ATOM     21  C2  A00 X   2      15.904  17.161  11.0180  0.00  0.00     0.000 C
ATOM     22  C3  A00 X   2      14.758  18.167  10.7830  0.00  0.00     0.000 C
ATOM     23  C4  A00 X   2      14.872  18.803   9.3790  0.00  0.00     0.000 C
ATOM     24  C5  A00 X   2      14.933  17.651   8.3390  0.00  0.00     0.000 C
ATOM     25  O5  A00 X   2      16.090  16.823   8.6260  0.00  0.00     0.000 O
ATOM     26   O  A00 X   2      14.709  19.079  11.8940  0.00  0.00     0.000 O
ATOM     28  HD  A00 X   2      15.556  19.255  11.8510  0.00  0.00     0.000 HD
BRANCH 21 30
ATOM     28   N  A00 X   2      16.970  16.305  11.5460  0.00  0.00     0.000 N
ATOM     30  HD  A00 X   2      16.945  17.012  12.0460  0.00  0.00     0.000 HD
ATOM     30   O  A00 X   2      17.502  17.048  13.6960  0.00  0.00     0.000 OA
ATOM     31   S  A00 X   2      18.112  16.966  12.4170  0.00  0.00     0.000 S
ATOM     32   O  A00 X   2      19.193  16.033  12.3220  0.00  0.00     0.000 OA
ATOM     33   O  A00 X   2      18.465  18.202  11.7850  0.00  0.00     0.000 OA
ENDBRANCH 21 30
BRANCH 24 34
ATOM     34   C  A00 X   2      14.819  18.018   6.8410  0.00  0.00     0.000 C
ATOM     35   O  A00 X   2      16.815  16.490   4.2070  0.00  0.00     0.000 OA
ATOM     36   O  A00 X   2      15.950  17.528   6.0950  0.00  0.00     0.000 O
ATOM     37   O  A00 X   2      15.467  15.270   5.7200  0.00  0.00     0.000 OA
ATOM     38   S  A00 X   2      15.611  16.482   4.9710  0.00  0.00     0.000 S
ATOM     39   O  A00 X   2      14.455  16.981   4.2890  0.00  0.00     0.000 OA
ENDBRANCH 24 34
BRANCH 20 40
ATOM     40  O4  A00 X   3      14.687  15.438   9.9200  0.00  0.00     0.000 O
BRANCH 40 44
ATOM     41  C1  A00 X   3      12.210  12.834  10.3750  0.00  0.00     0.000 C
ATOM     42  C2  A00 X   3      13.609  12.841  11.0280  0.00  0.00     0.000 C
ATOM     43  C3  A00 X   3      14.714  13.089   9.9690  0.00  0.00     0.000 C
ATOM     44  C4  A00 X   3      14.470  14.293   9.0680  0.00  0.00     0.000 C
ATOM     45  C5  A00 X   3      13.047  14.211   8.4460  0.00  0.00     0.000 C
ATOM     46  O5  A00 X   3      12.038  13.966   9.4780  0.00  0.00     0.000 O
ATOM     47   O  A00 X   3      16.057  13.030  10.4450  0.00  0.00     0.000 O
ATOM     49  HD  A00 X   3      16.160  13.696   9.9010  0.00  0.00     0.000 HD
BRANCH 42 49
ATOM     49   O  A00 X   3      13.601  13.876  12.0350  0.00  0.00     0.000 O
ATOM     50   O  A00 X   3      15.162  14.770  13.6140  0.00  0.00     0.000 OA
ATOM     51   O  A00 X   3      15.068  12.429  13.3030  0.00  0.00     0.000 OA
ATOM     52   O  A00 X   3      13.228  13.505  14.3230  0.00  0.00     0.000 OA
ATOM     53   S  A00 X   3      14.304  13.647  13.4040  0.00  0.00     0.000 S
ENDBRANCH 42 49
BRANCH 45 54
ATOM     54   C  A00 X   3      12.989  13.201   7.2940  0.00  0.00     0.000 C
ATOM     55   O  A00 X   3      11.938  12.957   6.7370  0.00  0.00     0.000 OA
ATOM     56   O  A00 X   3      13.997  12.623   6.9170  0.00  0.00     0.000 OA
ENDBRANCH 45 54
BRANCH 41 57
ATOM     57  O4  A00 X   4      11.909  11.556   9.7700  0.00  0.00     0.000 O
BRANCH 57 61
ATOM     58  C1  A00 X   4      10.873   7.721  11.4610  0.00  0.00     0.000 C
ATOM     59  C2  A00 X   4      10.058   8.966  11.8920  0.00  0.00     0.000 C
ATOM     60  C3  A00 X   4      10.270  10.187  10.9750  0.00  0.00     0.000 C
ATOM     61  C4  A00 X   4      11.767  10.448  10.7050  0.00  0.00     0.000 C
ATOM     62  C5  A00 X   4      12.331   9.147  10.0830  0.00  0.00     0.000 C
ATOM     63  O5  A00 X   4      12.214   8.068  11.0450  0.00  0.00     0.000 O
BRANCH 59 66
ATOM     64   N  A00 X   4       9.111   9.686  12.7630  0.00  0.00     0.000 N
ATOM     66  HD  A00 X   4       9.423  10.338  13.2390  0.00  0.00     0.000 HD
ATOM     66   O  A00 X   4       9.023   7.707  14.1330  0.00  0.00     0.000 OA
ATOM     67   S  A00 X   4       8.216   8.832  13.7770  0.00  0.00     0.000 S
ATOM     68   O  A00 X   4       8.010   9.798  14.8160  0.00  0.00     0.000 OA
ATOM     69   O  A00 X   4       7.061   8.595  12.9570  0.00  0.00     0.000 OA
ENDBRANCH 59 66
BRANCH 62 70
ATOM     70   C  A00 X   4      13.810   9.248   9.6370  0.00  0.00     0.000 C
ATOM     71   O  A00 X   4      16.204   6.582   9.1210  0.00  0.00     0.000 OA
ATOM     72   O  A00 X   4      16.386   8.595  10.3300  0.00  0.00     0.000 OA
ATOM     73   O  A00 X   4      14.303   7.935   9.3240  0.00  0.00     0.000 O
ATOM     74   O  A00 X   4      15.102   6.743  11.2590  0.00  0.00     0.000 OA
ATOM     75   S  A00 X   4      15.569   7.424  10.0950  0.00  0.00     0.000 S
ENDBRANCH 62 70
ENDBRANCH 57 61
ENDBRANCH 41 57
ENDBRANCH 40 44
ENDBRANCH 20 40
ENDBRANCH 19 23
ENDBRANCH 1 19
TORSDOF 14
ENDMDL
MODEL 99
REMARK VINA RESULT:       0.5      5.107     10.728
ROOT
ATOM      1  C1  A00 X   1      16.644  20.662  10.6110  0.00  0.00     0.000 C
ATOM      2  C2  A00 X   1      17.776  19.762  11.1730  0.00  0.00     0.000 C
ATOM      3  C3  A00 X   1      18.268  20.100  12.6190  0.00  0.00     0.000 C
ATOM      4  C4  A00 X   1      17.842  21.487  13.1630  0.00  0.00     0.000 C
ATOM      5  C5  A00 X   1      17.504  22.468  12.0410  0.00  0.00     0.000 C
ATOM      6  O5  A00 X   1      16.376  21.873  11.3610  0.00  0.00     0.000 O
ATOM      7   O  A00 X   1      19.694  20.080  12.6330  0.00  0.00     0.000 O
ATOM      9  HD  A00 X   1      19.443  20.760  13.1070  0.00  0.00     0.000 HD
ATOM      9   O  A00 X   1      16.736  21.379  14.0590  0.00  0.00     0.000 O
ATOM     11  HD  A00 X   1      16.485  22.059  14.5330  0.00  0.00     0.000 HD
ENDROOT
BRANCH 2 11
ATOM     11   O  A00 X   1      17.309  18.399  11.1430  0.00  0.00     0.000 O
ATOM     12   O  A00 X   1      18.420  16.648  12.3530  0.00  0.00     0.000 OA
ATOM     13   O  A00 X   1      19.596  17.780  10.5500  0.00  0.00     0.000 OA
ATOM     14   O  A00 X   1      17.742  16.367  10.0790  0.00  0.00     0.000 OA
ATOM     15   S  A00 X   1      18.358  17.240  11.0410  0.00  0.00     0.000 S
ENDBRANCH 2 11
BRANCH 5 16
ATOM     16   C  A00 X   1      18.669  22.814  11.1090  0.00  0.00     0.000 C
ATOM     17   O  A00 X   1      18.437  23.436  10.0930  0.00  0.00     0.000 OA
ATOM     18   O  A00 X   1      19.816  22.494  11.3530  0.00  0.00     0.000 OA
ENDBRANCH 5 16
BRANCH 1 19
ATOM     19  O4  A00 X   2      16.797  20.939   9.1970  0.00  0.00     0.000 O
BRANCH 19 23
ATOM     20  C1  A00 X   2      14.360  17.661   7.9020  0.00  0.00     0.000 C
ATOM     21  C2  A00 X   2      15.713  17.875   7.1800  0.00  0.00     0.000 C
ATOM     22  C3  A00 X   2      16.643  18.780   8.0140  0.00  0.00     0.000 C
ATOM     23  C4  A00 X   2      15.936  20.108   8.3680  0.00  0.00     0.000 C
ATOM     24  C5  A00 X   2      14.593  19.758   9.0650  0.00  0.00     0.000 C
ATOM     25  O5  A00 X   2      13.784  18.970   8.1540  0.00  0.00     0.000 O
ATOM     26   O  A00 X   2      17.907  18.891   7.3360  0.00  0.00     0.000 O
ATOM     28  HD  A00 X   2      17.540  19.100   6.5800  0.00  0.00     0.000 HD
BRANCH 21 30
ATOM     28   N  A00 X   2      15.163  16.802   6.3450  0.00  0.00     0.000 N
ATOM     30  HD  A00 X   2      15.810  17.162   5.8960  0.00  0.00     0.000 HD
ATOM     30   O  A00 X   2      16.709  16.329   4.6580  0.00  0.00     0.000 OA
ATOM     31   S  A00 X   2      15.398  16.861   4.7830  0.00  0.00     0.000 S
ATOM     32   O  A00 X   2      14.358  16.035   4.2520  0.00  0.00     0.000 OA
ATOM     33   O  A00 X   2      15.209  18.222   4.3770  0.00  0.00     0.000 OA
ENDBRANCH 21 30
BRANCH 24 34
ATOM     34   C  A00 X   2      13.798  20.909   9.7270  0.00  0.00     0.000 C
ATOM     35   O  A00 X   2      10.202  21.367   9.3800  0.00  0.00     0.000 OA
ATOM     36   O  A00 X   2      12.488  21.044   9.1390  0.00  0.00     0.000 O
ATOM     37   O  A00 X   2      11.211  19.381  10.1750  0.00  0.00     0.000 OA
ATOM     38   S  A00 X   2      11.284  20.810  10.1230  0.00  0.00     0.000 S
ATOM     39   O  A00 X   2      11.610  21.502  11.3340  0.00  0.00     0.000 OA
ENDBRANCH 24 34
BRANCH 20 40
ATOM     40  O4  A00 X   3      14.682  17.030   9.1500  0.00  0.00     0.000 O
BRANCH 40 44
ATOM     41  C1  A00 X   3      14.365  14.055  11.1920  0.00  0.00     0.000 C
ATOM     42  C2  A00 X   3      13.866  14.180   9.7360  0.00  0.00     0.000 C
ATOM     43  C3  A00 X   3      12.993  15.448   9.5560  0.00  0.00     0.000 C
ATOM     44  C4  A00 X   3      13.622  16.731  10.0840  0.00  0.00     0.000 C
ATOM     45  C5  A00 X   3      14.093  16.528  11.5520  0.00  0.00     0.000 C
ATOM     46  O5  A00 X   3      14.904  15.316  11.6770  0.00  0.00     0.000 O
ATOM     47   O  A00 X   3      12.405  15.621   8.2680  0.00  0.00     0.000 O
ATOM     49  HD  A00 X   3      12.601  16.452   8.4140  0.00  0.00     0.000 HD
BRANCH 42 49
ATOM     49   O  A00 X   3      15.037  14.220   8.8910  0.00  0.00     0.000 O
ATOM     50   O  A00 X   3      15.516  13.837   6.5770  0.00  0.00     0.000 OA
ATOM     51   O  A00 X   3      14.033  12.372   7.6930  0.00  0.00     0.000 OA
ATOM     52   O  A00 X   3      16.317  12.343   8.3000  0.00  0.00     0.000 OA
ATOM     53   S  A00 X   3      15.251  13.137   7.7940  0.00  0.00     0.000 S
ENDBRANCH 42 49
BRANCH 45 54
ATOM     54   C  A00 X   3      12.917  16.572  12.5360  0.00  0.00     0.000 C
ATOM     55   O  A00 X   3      11.826  16.968  12.1790  0.00  0.00     0.000 OA
ATOM     56   O  A00 X   3      13.058  16.212  13.6940  0.00  0.00     0.000 OA
ENDBRANCH 45 54
BRANCH 41 57
ATOM     57  O4  A00 X   4      13.358  13.477  12.0540  0.00  0.00     0.000 O
BRANCH 57 61
ATOM     58  C1  A00 X   4      13.414  10.077  14.7140  0.00  0.00     0.000 C
ATOM     59  C2  A00 X   4      13.694  11.483  15.3010  0.00  0.00     0.000 C
ATOM     60  C3  A00 X   4      13.299  12.635  14.3550  0.00  0.00     0.000 C
ATOM     61  C4  A00 X   4      13.828  12.408  12.9230  0.00  0.00     0.000 C
ATOM     62  C5  A00 X   4      13.255  11.047  12.4570  0.00  0.00     0.000 C
ATOM     63  O5  A00 X   4      13.767   9.995  13.3140  0.00  0.00     0.000 O
BRANCH 59 66
ATOM     64   N  A00 X   4      14.974  12.027  15.7900  0.00  0.00     0.000 N
ATOM     66  HD  A00 X   4      15.686  11.848  15.3300  0.00  0.00     0.000 HD
ATOM     66   O  A00 X   4      14.827  10.463  17.6150  0.00  0.00     0.000 OA
ATOM     67   S  A00 X   4      15.388  11.741  17.3080  0.00  0.00     0.000 S
ATOM     68   O  A00 X   4      16.817  11.778  17.1980  0.00  0.00     0.000 OA
ATOM     69   O  A00 X   4      14.818  12.894  17.9470  0.00  0.00     0.000 OA
ENDBRANCH 59 66
BRANCH 62 70
ATOM     70   C  A00 X   4      13.588  10.690  10.9880  0.00  0.00     0.000 C
ATOM     71   O  A00 X   4      11.321  10.227   8.2040  0.00  0.00     0.000 OA
ATOM     72   O  A00 X   4      13.096   8.886   8.9770  0.00  0.00     0.000 OA
ATOM     73   O  A00 X   4      12.410  10.852  10.1810  0.00  0.00     0.000 O
ATOM     74   O  A00 X   4      10.985   8.909  10.1950  0.00  0.00     0.000 OA
ATOM     75   S  A00 X   4      11.906   9.613   9.3620  0.00  0.00     0.000 S
ENDBRANCH 62 70
ENDBRANCH 57 61
ENDBRANCH 41 57
ENDBRANCH 40 44
ENDBRANCH 20 40
ENDBRANCH 19 23
ENDBRANCH 1 19
TORSDOF 14
ENDMDL
MODEL 100
REMARK VINA RESULT:       1.3      4.147      9.083
ROOT
ATOM      1  C1  A00 X   1      13.376  18.318   9.7690  0.00  0.00     0.000 C
ATOM      2  C2  A00 X   1      12.159  19.217  10.1130  0.00  0.00     0.000 C
ATOM      3  C3  A00 X   1      10.977  19.195   9.0890  0.00  0.00     0.000 C
ATOM      4  C4  A00 X   1      11.306  18.586   7.7020  0.00  0.00     0.000 C
ATOM      5  C5  A00 X   1      12.803  18.620   7.3970  0.00  0.00     0.000 C
ATOM      6  O5  A00 X   1      13.405  17.794   8.4180  0.00  0.00     0.000 O
ATOM      7   O  A00 X   1      10.552  20.536   8.8510  0.00  0.00     0.000 O
ATOM      9  HD  A00 X   1      10.553  20.129   8.0870  0.00  0.00     0.000 HD
ATOM      9   O  A00 X   1      10.821  17.247   7.5920  0.00  0.00     0.000 O
ATOM     11  HD  A00 X   1      10.821  16.841   6.8270  0.00  0.00     0.000 HD
ENDROOT
BRANCH 2 11
ATOM     11   O  A00 X   1      11.667  18.813  11.4060  0.00  0.00     0.000 O
ATOM     12   O  A00 X   1       9.578  19.616  12.2780  0.00  0.00     0.000 OA
ATOM     13   O  A00 X   1      11.388  21.192  11.8830  0.00  0.00     0.000 OA
ATOM     14   O  A00 X   1      11.560  19.568  13.6120  0.00  0.00     0.000 OA
ATOM     15   S  A00 X   1      10.993  19.885  12.3300  0.00  0.00     0.000 S
ENDBRANCH 2 11
BRANCH 5 16
ATOM     16   C  A00 X   1      13.414  20.022   7.3040  0.00  0.00     0.000 C
ATOM     17   O  A00 X   1      12.670  20.972   7.1720  0.00  0.00     0.000 OA
ATOM     18   O  A00 X   1      14.611  20.216   7.3640  0.00  0.00     0.000 OA
ENDBRANCH 5 16
BRANCH 1 19
ATOM     19  O4  A00 X   2      14.641  18.927  10.1260  0.00  0.00     0.000 O
BRANCH 19 23
ATOM     20  C1  A00 X   2      16.256  15.299  11.7380  0.00  0.00     0.000 C
ATOM     21  C2  A00 X   2      15.731  16.355  12.7410  0.00  0.00     0.000 C
ATOM     22  C3  A00 X   2      14.811  17.373  12.0350  0.00  0.00     0.000 C
ATOM     23  C4  A00 X   2      15.529  18.004  10.8200  0.00  0.00     0.000 C
ATOM     24  C5  A00 X   2      16.021  16.848   9.9070  0.00  0.00     0.000 C
ATOM     25  O5  A00 X   2      16.930  16.008  10.6640  0.00  0.00     0.000 O
ATOM     26   O  A00 X   2      14.297  18.288  13.0180  0.00  0.00     0.000 O
ATOM     28  HD  A00 X   2      15.080  18.455  13.3460  0.00  0.00     0.000 HD
BRANCH 21 30
ATOM     28   N  A00 X   2      16.802  15.968  13.6640  0.00  0.00     0.000 N
ATOM     30  HD  A00 X   2      16.221  16.413  14.1270  0.00  0.00     0.000 HD
ATOM     30   O  A00 X   2      16.012  16.231  15.8470  0.00  0.00     0.000 OA
ATOM     31   S  A00 X   2      16.994  16.800  14.9940  0.00  0.00     0.000 S
ATOM     32   O  A00 X   2      18.348  16.531  15.3690  0.00  0.00     0.000 OA
ATOM     33   O  A00 X   2      16.838  18.183  14.6550  0.00  0.00     0.000 OA
ENDBRANCH 21 30
BRANCH 24 34
ATOM     34   C  A00 X   2      16.570  17.212   8.5070  0.00  0.00     0.000 C
ATOM     35   O  A00 X   2      19.213  15.372   6.8100  0.00  0.00     0.000 OA
ATOM     36   O  A00 X   2      17.823  16.548   8.2490  0.00  0.00     0.000 O
ATOM     37   O  A00 X   2      17.213  14.386   7.5980  0.00  0.00     0.000 OA
ATOM     38   S  A00 X   2      17.816  15.554   7.0310  0.00  0.00     0.000 S
ATOM     39   O  A00 X   2      17.115  16.215   5.9720  0.00  0.00     0.000 OA
ENDBRANCH 24 34
BRANCH 20 40
ATOM     40  O4  A00 X   3      15.090  14.642  11.2210  0.00  0.00     0.000 O
BRANCH 40 44
ATOM     41  C1  A00 X   3      13.307  11.514  10.8170  0.00  0.00     0.000 C
ATOM     42  C2  A00 X   3      12.843  12.872  10.2460  0.00  0.00     0.000 C
ATOM     43  C3  A00 X   3      12.844  13.966  11.3440  0.00  0.00     0.000 C
ATOM     44  C4  A00 X   3      14.139  14.064  12.1400  0.00  0.00     0.000 C
ATOM     45  C5  A00 X   3      14.536  12.663  12.6850  0.00  0.00     0.000 C
ATOM     46  O5  A00 X   3      14.513  11.661  11.6170  0.00  0.00     0.000 O
ATOM     47   O  A00 X   3      12.349  15.244  10.9500  0.00  0.00     0.000 O
ATOM     49  HD  A00 X   3      12.999  15.524  11.4500  0.00  0.00     0.000 HD
BRANCH 42 49
ATOM     49   O  A00 X   3      13.744  13.207   9.1670  0.00  0.00     0.000 O
ATOM     50   O  A00 X   3      14.015  15.029   7.6390  0.00  0.00     0.000 OA
ATOM     51   O  A00 X   3      11.833  14.253   8.1140  0.00  0.00     0.000 OA
ATOM     52   O  A00 X   3      13.288  12.848   6.8920  0.00  0.00     0.000 OA
ATOM     53   S  A00 X   3      13.203  13.876   7.8700  0.00  0.00     0.000 S
ENDBRANCH 42 49
BRANCH 45 54
ATOM     54   C  A00 X   3      13.692  12.267  13.9020  0.00  0.00     0.000 C
ATOM     55   O  A00 X   3      12.960  13.075  14.4370  0.00  0.00     0.000 OA
ATOM     56   O  A00 X   3      13.742  11.134  14.3560  0.00  0.00     0.000 OA
ENDBRANCH 45 54
BRANCH 41 57
ATOM     57  O4  A00 X   4      12.232  10.825  11.4950  0.00  0.00     0.000 O
BRANCH 57 61
ATOM     58  C1  A00 X   4      11.091   6.706  10.8910  0.00  0.00     0.000 C
ATOM     59  C2  A00 X   4      11.250   7.226  12.3420  0.00  0.00     0.000 C
ATOM     60  C3  A00 X   4      11.301   8.764  12.4410  0.00  0.00     0.000 C
ATOM     61  C4  A00 X   4      12.284   9.372  11.4170  0.00  0.00     0.000 C
ATOM     62  C5  A00 X   4      11.812   8.893  10.0220  0.00  0.00     0.000 C
ATOM     63  O5  A00 X   4      11.909   7.447   9.9570  0.00  0.00     0.000 O
BRANCH 59 66
ATOM     64   N  A00 X   4      12.569   6.601  12.5430  0.00  0.00     0.000 N
ATOM     66  HD  A00 X   4      13.012   6.364  11.8370  0.00  0.00     0.000 HD
ATOM     66   O  A00 X   4      11.412   4.674  13.4080  0.00  0.00     0.000 OA
ATOM     67   S  A00 X   4      12.669   5.344  13.5280  0.00  0.00     0.000 S
ATOM     68   O  A00 X   4      13.791   4.657  12.9580  0.00  0.00     0.000 OA
ATOM     69   O  A00 X   4      12.956   6.014  14.7650  0.00  0.00     0.000 OA
ENDBRANCH 59 66
BRANCH 62 70
ATOM     70   C  A00 X   4      12.615   9.492   8.8430  0.00  0.00     0.000 C
ATOM     71   O  A00 X   4      15.655   8.254   7.3150  0.00  0.00     0.000 OA
ATOM     72   O  A00 X   4      15.091  10.407   8.0830  0.00  0.00     0.000 OA
ATOM     73   O  A00 X   4      13.605   8.545   8.4120  0.00  0.00     0.000 O
ATOM     74   O  A00 X   4      15.643   8.662   9.6910  0.00  0.00     0.000 OA
ATOM     75   S  A00 X   4      15.106   8.999   8.4120  0.00  0.00     0.000 S
ENDBRANCH 62 70
ENDBRANCH 57 61
ENDBRANCH 41 57
ENDBRANCH 40 44
ENDBRANCH 20 40
ENDBRANCH 19 23
ENDBRANCH 1 19
TORSDOF 14
ENDMDL
