MODEL 1
REMARK VINA RESULT:     -10.7      0.000      0.000
ROOT
ATOM      1  C1  BGC B   1      19.314   4.303 -11.3560  0.00  0.00     0.000 C
ATOM      2  C2  BGC B   1      20.552   5.195 -11.4280  0.00  0.00     0.000 C
ATOM      3  C3  BGC B   1      20.400   6.374 -10.4870  0.00  0.00     0.000 C
ATOM      4  C4  BGC B   1      19.081   7.096 -10.7350  0.00  0.00     0.000 C
ATOM      5  C5  BGC B   1      17.949   6.086 -10.6150  0.00  0.00     0.000 C
ATOM      6  O5  BGC B   1      18.158   5.083 -11.6260  0.00  0.00     0.000 O
ATOM      7   O  BGC B   1      21.708   4.431 -11.0460  0.00  0.00     0.000 O
ATOM      9  HD  BGC B   1      22.376   4.859 -10.6970  0.00  0.00     0.000 HD
ATOM      9   O  BGC B   1      21.508   7.260 -10.6720  0.00  0.00     0.000 O
ATOM     11  HD  BGC B   1      22.176   7.687 -10.3220  0.00  0.00     0.000 HD
ATOM     11   O  BGC B   1      18.915   8.121  -9.7800  0.00  0.00     0.000 O
ATOM     13  HD  BGC B   1      19.582   8.548  -9.4310  0.00  0.00     0.000 HD
ATOM     13   C  BGC B   1      16.554   6.667 -10.7910  0.00  0.00     0.000 C
ATOM     14   O  BGC B   1      16.408   7.366 -12.0230  0.00  0.00     0.000 O
ATOM     16  HD  BGC B   1      17.076   7.793 -11.6740  0.00  0.00     0.000 HD
ENDROOT
BRANCH 1 16
ATOM     16  O4  BGC B   2      19.414   3.394 -12.4510  0.00  0.00     0.000 O
BRANCH 16 20
ATOM     17  C1  BGC B   2      18.397  -0.377 -13.5830  0.00  0.00     0.000 C
ATOM     18  C2  BGC B   2      17.206   0.556 -13.4260  0.00  0.00     0.000 C
ATOM     19  C3  BGC B   2      17.720   1.993 -13.3650  0.00  0.00     0.000 C
ATOM     20  C4  BGC B   2      18.770   2.134 -12.2820  0.00  0.00     0.000 C
ATOM     21  C5  BGC B   2      19.847   1.053 -12.3700  0.00  0.00     0.000 C
ATOM     22  O5  BGC B   2      19.206  -0.228 -12.4010  0.00  0.00     0.000 O
ATOM     23   O  BGC B   2      16.321   0.421 -14.5500  0.00  0.00     0.000 O
ATOM     25  HD  BGC B   2      16.912   1.012 -14.3240  0.00  0.00     0.000 HD
ATOM     25   O  BGC B   2      16.638   2.885 -13.1220  0.00  0.00     0.000 O
ATOM     27  HD  BGC B   2      17.229   3.476 -12.8960  0.00  0.00     0.000 HD
ATOM     27   C  BGC B   2      20.801   1.066 -11.1810  0.00  0.00     0.000 C
ATOM     28   O  BGC B   2      20.142   0.942  -9.9310  0.00  0.00     0.000 O
ATOM     30  HD  BGC B   2      20.733   1.533  -9.7050  0.00  0.00     0.000 HD
BRANCH 17 30
ATOM     30  O4  BGC B   3      17.893  -1.698 -13.5220  0.00  0.00     0.000 O
BRANCH 30 34
ATOM     31  C1  BGC B   3      18.563  -5.399 -15.1870  0.00  0.00     0.000 C
ATOM     32  C2  BGC B   3      19.623  -4.956 -14.1790  0.00  0.00     0.000 C
ATOM     33  C3  BGC B   3      19.071  -3.801 -13.3620  0.00  0.00     0.000 C
ATOM     34  C4  BGC B   3      18.610  -2.673 -14.2850  0.00  0.00     0.000 C
ATOM     35  C5  BGC B   3      17.671  -3.212 -15.3500  0.00  0.00     0.000 C
ATOM     36  O5  BGC B   3      18.304  -4.295 -16.0390  0.00  0.00     0.000 O
ATOM     37   O  BGC B   3      19.918  -6.035 -13.2950  0.00  0.00     0.000 O
ATOM     39  HD  BGC B   3      20.580  -5.573 -12.9800  0.00  0.00     0.000 HD
ATOM     39   O  BGC B   3      20.088  -3.346 -12.4830  0.00  0.00     0.000 O
ATOM     41  HD  BGC B   3      20.750  -2.885 -12.1680  0.00  0.00     0.000 HD
ATOM     41   C  BGC B   3      17.233  -2.170 -16.3730  0.00  0.00     0.000 C
ATOM     42   O  BGC B   3      18.357  -1.611 -17.0090  0.00  0.00     0.000 O
ATOM     44  HD  BGC B   3      19.020  -1.149 -16.6950  0.00  0.00     0.000 HD
BRANCH 31 44
ATOM     44  O4  BGC B   4      19.144  -6.395 -15.9900  0.00  0.00     0.000 O
BRANCH 44 48
ATOM     45  C1  BGC B   4      18.057  -9.454 -18.4940  0.00  0.00     0.000 C
ATOM     46  C2  BGC B   4      18.058  -8.073 -19.1360  0.00  0.00     0.000 C
ATOM     47  C3  BGC B   4      18.833  -7.115 -18.2660  0.00  0.00     0.000 C
ATOM     48  C4  BGC B   4      18.284  -7.131 -16.8360  0.00  0.00     0.000 C
ATOM     49  C5  BGC B   4      18.220  -8.566 -16.3000  0.00  0.00     0.000 C
ATOM     50  O5  BGC B   4      17.459  -9.386 -17.1980  0.00  0.00     0.000 O
ATOM     51   O  BGC B   4      18.677  -8.134 -20.4350  0.00  0.00     0.000 O
ATOM     53  HD  BGC B   4      19.332  -7.789 -19.9870  0.00  0.00     0.000 HD
ATOM     53   O  BGC B   4      18.715  -5.794 -18.8150  0.00  0.00     0.000 O
ATOM     55  HD  BGC B   4      19.371  -5.449 -18.3670  0.00  0.00     0.000 HD
ATOM     55   C  BGC B   4      17.579  -8.696 -14.9290  0.00  0.00     0.000 C
ATOM     56   O  BGC B   4      16.283  -8.100 -14.9970  0.00  0.00     0.000 O
ATOM     58  HD  BGC B   4      16.939  -7.754 -14.5490  0.00  0.00     0.000 HD
BRANCH 45 58
ATOM     58  O4  BGC B   5      17.105 -10.225 -19.2260  0.00  0.00     0.000 O
BRANCH 58 62
ATOM     59  C1  BGC B   5      16.375 -14.296 -19.4300  0.00  0.00     0.000 C
ATOM     60  C2  BGC B   5      15.186 -13.441 -19.0400  0.00  0.00     0.000 C
ATOM     61  C3  BGC B   5      15.436 -11.987 -19.3960  0.00  0.00     0.000 C
ATOM     62  C4  BGC B   5      16.739 -11.527 -18.7630  0.00  0.00     0.000 C
ATOM     63  C5  BGC B   5      17.886 -12.479 -19.1310  0.00  0.00     0.000 C
ATOM     64  O5  BGC B   5      17.529 -13.801 -18.7430  0.00  0.00     0.000 O
ATOM     65   O  BGC B   5      18.914 -12.157 -17.0490  0.00  0.00     0.000 O
ATOM     67  HD  BGC B   5      18.942 -11.598 -16.3870  0.00  0.00     0.000 HD
ATOM     67   O  BGC B   5      18.914 -12.157 -17.0490  0.00  0.00     0.000 O
ATOM     69  HD  BGC B   5      18.942 -11.598 -16.3870  0.00  0.00     0.000 HD
ENDBRANCH 58 62
ENDBRANCH 45 58
ENDBRANCH 44 48
ENDBRANCH 31 44
ENDBRANCH 30 34
ENDBRANCH 17 30
ENDBRANCH 16 20
ENDBRANCH 1 16
TORSDOF 8
ENDMDL
MODEL 2
REMARK VINA RESULT:     -10.0      2.049      6.172
ROOT
ATOM      1  C1  BGC B   1      18.695   9.275  -9.5970  0.00  0.00     0.000 C
ATOM      2  C2  BGC B   1      17.769   9.717  -8.4650  0.00  0.00     0.000 C
ATOM      3  C3  BGC B   1      17.639  11.228  -8.4570  0.00  0.00     0.000 C
ATOM      4  C4  BGC B   1      19.012  11.887  -8.4490  0.00  0.00     0.000 C
ATOM      5  C5  BGC B   1      19.806  11.362  -9.6370  0.00  0.00     0.000 C
ATOM      6  O5  BGC B   1      19.944   9.939  -9.4670  0.00  0.00     0.000 O
ATOM      7   O  BGC B   1      16.471   9.131  -8.6590  0.00  0.00     0.000 O
ATOM      9  HD  BGC B   1      15.787   9.554  -8.3390  0.00  0.00     0.000 HD
ATOM      9   O  BGC B   1      16.878  11.620  -7.3110  0.00  0.00     0.000 O
ATOM     11  HD  BGC B   1      16.194  12.044  -6.9910  0.00  0.00     0.000 HD
ATOM     11   O  BGC B   1      18.866  13.287  -8.5490  0.00  0.00     0.000 O
ATOM     13  HD  BGC B   1      18.182  13.710  -8.2290  0.00  0.00     0.000 HD
ATOM     13   C  BGC B   1      21.193  11.967  -9.7960  0.00  0.00     0.000 C
ATOM     14   O  BGC B   1      21.986  11.822  -8.6220  0.00  0.00     0.000 O
ATOM     16  HD  BGC B   1      21.302  12.245  -8.3020  0.00  0.00     0.000 HD
ENDROOT
BRANCH 1 16
ATOM     16  O4  BGC B   2      18.980   7.897  -9.3640  0.00  0.00     0.000 O
BRANCH 16 20
ATOM     17  C1  BGC B   2      19.651   4.396 -11.3210  0.00  0.00     0.000 C
ATOM     18  C2  BGC B   2      20.781   5.405 -11.4680  0.00  0.00     0.000 C
ATOM     19  C3  BGC B   2      20.593   6.500 -10.4200  0.00  0.00     0.000 C
ATOM     20  C4  BGC B   2      19.205   7.098 -10.5230  0.00  0.00     0.000 C
ATOM     21  C5  BGC B   2      18.111   6.030 -10.5620  0.00  0.00     0.000 C
ATOM     22  O5  BGC B   2      18.424   5.095 -11.6020  0.00  0.00     0.000 O
ATOM     23   O  BGC B   2      22.048   4.762 -11.2540  0.00  0.00     0.000 O
ATOM     25  HD  BGC B   2      21.550   5.276 -10.7660  0.00  0.00     0.000 HD
ATOM     25   O  BGC B   2      21.579   7.510 -10.5930  0.00  0.00     0.000 O
ATOM     27  HD  BGC B   2      21.081   8.024 -10.1060  0.00  0.00     0.000 HD
ATOM     27   C  BGC B   2      16.730   6.605 -10.8550  0.00  0.00     0.000 C
ATOM     28   O  BGC B   2      16.675   7.347 -12.0620  0.00  0.00     0.000 O
ATOM     30  HD  BGC B   2      16.176   7.861 -11.5740  0.00  0.00     0.000 HD
BRANCH 17 30
ATOM     30  O4  BGC B   3      19.795   3.464 -12.3760  0.00  0.00     0.000 O
BRANCH 30 34
ATOM     31  C1  BGC B   3      18.734  -0.390 -13.3490  0.00  0.00     0.000 C
ATOM     32  C2  BGC B   3      17.560   0.581 -13.2320  0.00  0.00     0.000 C
ATOM     33  C3  BGC B   3      18.093   2.003 -13.2720  0.00  0.00     0.000 C
ATOM     34  C4  BGC B   3      19.147   2.202 -12.1840  0.00  0.00     0.000 C
ATOM     35  C5  BGC B   3      20.207   1.118 -12.2700  0.00  0.00     0.000 C
ATOM     36  O5  BGC B   3      19.578  -0.167 -12.2300  0.00  0.00     0.000 O
ATOM     37   O  BGC B   3      16.680   0.398 -14.3390  0.00  0.00     0.000 O
ATOM     39  HD  BGC B   3      16.109   0.921 -13.9500  0.00  0.00     0.000 HD
ATOM     39   O  BGC B   3      17.005   2.896 -13.0850  0.00  0.00     0.000 O
ATOM     41  HD  BGC B   3      16.434   3.419 -12.6960  0.00  0.00     0.000 HD
ATOM     41   C  BGC B   3      21.253   1.185 -11.1630  0.00  0.00     0.000 C
ATOM     42   O  BGC B   3      20.632   1.104  -9.9020  0.00  0.00     0.000 O
ATOM     44  HD  BGC B   3      20.061   1.627  -9.5130  0.00  0.00     0.000 HD
BRANCH 31 44
ATOM     44  O4  BGC B   4      18.216  -1.688 -13.2060  0.00  0.00     0.000 O
BRANCH 44 48
ATOM     45  C1  BGC B   4      18.775  -5.513 -14.5710  0.00  0.00     0.000 C
ATOM     46  C2  BGC B   4      19.921  -4.959 -13.7360  0.00  0.00     0.000 C
ATOM     47  C3  BGC B   4      19.451  -3.741 -12.9800  0.00  0.00     0.000 C
ATOM     48  C4  BGC B   4      18.838  -2.720 -13.9430  0.00  0.00     0.000 C
ATOM     49  C5  BGC B   4      17.764  -3.380 -14.8170  0.00  0.00     0.000 C
ATOM     50  O5  BGC B   4      18.320  -4.519 -15.4910  0.00  0.00     0.000 O
ATOM     51   O  BGC B   4      20.371  -5.953 -12.7960  0.00  0.00     0.000 O
ATOM     53  HD  BGC B   4      19.907  -5.456 -12.2590  0.00  0.00     0.000 HD
ATOM     53   O  BGC B   4      20.572  -3.156 -12.3030  0.00  0.00     0.000 O
ATOM     55  HD  BGC B   4      20.108  -2.660 -11.7660  0.00  0.00     0.000 HD
ATOM     55   C  BGC B   4      17.179  -2.474 -15.8850  0.00  0.00     0.000 C
ATOM     56   O  BGC B   4      18.262  -1.971 -16.6690  0.00  0.00     0.000 O
ATOM     58  HD  BGC B   4      17.798  -1.475 -16.1330  0.00  0.00     0.000 HD
BRANCH 45 58
ATOM     58  O4  BGC B   5      19.356  -6.484 -15.4390  0.00  0.00     0.000 O
BRANCH 58 62
ATOM     59  C1  BGC B   5      18.382  -9.318 -18.2970  0.00  0.00     0.000 C
ATOM     60  C2  BGC B   5      17.960  -7.899 -18.6190  0.00  0.00     0.000 C
ATOM     61  C3  BGC B   5      18.709  -6.910 -17.7460  0.00  0.00     0.000 C
ATOM     62  C4  BGC B   5      18.517  -7.275 -16.2830  0.00  0.00     0.000 C
ATOM     63  C5  BGC B   5      18.886  -8.746 -16.0400  0.00  0.00     0.000 C
ATOM     64  O5  BGC B   5      18.114  -9.565 -16.9130  0.00  0.00     0.000 O
ATOM     65   O  BGC B   5      17.231  -8.960 -14.3930  0.00  0.00     0.000 O
ATOM     67  HD  BGC B   5      16.751  -8.486 -13.8500  0.00  0.00     0.000 HD
ATOM     67   O  BGC B   5      17.231  -8.960 -14.3930  0.00  0.00     0.000 O
ATOM     69  HD  BGC B   5      16.751  -8.486 -13.8500  0.00  0.00     0.000 HD
ENDBRANCH 58 62
ENDBRANCH 45 58
ENDBRANCH 44 48
ENDBRANCH 31 44
ENDBRANCH 30 34
ENDBRANCH 17 30
ENDBRANCH 16 20
ENDBRANCH 1 16
TORSDOF 8
ENDMDL
MODEL 3
REMARK VINA RESULT:     -10.0      2.045      6.024
ROOT
ATOM      1  C1  BGC B   1      18.537  -0.162 -13.3970  0.00  0.00     0.000 C
ATOM      2  C2  BGC B   1      17.318   0.750 -13.2640  0.00  0.00     0.000 C
ATOM      3  C3  BGC B   1      17.757   2.157 -12.9080  0.00  0.00     0.000 C
ATOM      4  C4  BGC B   1      18.677   2.144 -11.6930  0.00  0.00     0.000 C
ATOM      5  C5  BGC B   1      19.843   1.210 -11.9820  0.00  0.00     0.000 C
ATOM      6  O5  BGC B   1      19.298  -0.105 -12.1990  0.00  0.00     0.000 O
ATOM      7   O  BGC B   1      16.609   0.778 -14.5140  0.00  0.00     0.000 O
ATOM      9  HD  BGC B   1      16.150   1.488 -14.7010  0.00  0.00     0.000 HD
ATOM      9   O  BGC B   1      16.596   2.955 -12.6590  0.00  0.00     0.000 O
ATOM     11  HD  BGC B   1      16.137   3.665 -12.8460  0.00  0.00     0.000 HD
ATOM     11   O  BGC B   1      19.155   3.448 -11.4470  0.00  0.00     0.000 O
ATOM     13  HD  BGC B   1      18.696   4.158 -11.6330  0.00  0.00     0.000 HD
ATOM     13   C  BGC B   1      20.883   1.125 -10.8740  0.00  0.00     0.000 C
ATOM     14   O  BGC B   1      20.312   0.762  -9.6210  0.00  0.00     0.000 O
ATOM     16  HD  BGC B   1      19.853   1.473  -9.8070  0.00  0.00     0.000 HD
ENDROOT
BRANCH 1 16
ATOM     16  O4  BGC B   2      18.032  -1.495 -13.4540  0.00  0.00     0.000 O
BRANCH 16 20
ATOM     17  C1  BGC B   2      18.731  -5.092 -15.2170  0.00  0.00     0.000 C
ATOM     18  C2  BGC B   2      19.702  -4.763 -14.0930  0.00  0.00     0.000 C
ATOM     19  C3  BGC B   2      19.133  -3.599 -13.2850  0.00  0.00     0.000 C
ATOM     20  C4  BGC B   2      18.812  -2.431 -14.1940  0.00  0.00     0.000 C
ATOM     21  C5  BGC B   2      17.990  -2.849 -15.4140  0.00  0.00     0.000 C
ATOM     22  O5  BGC B   2      18.663  -3.932 -16.0670  0.00  0.00     0.000 O
ATOM     23   O  BGC B   2      19.863  -5.901 -13.2300  0.00  0.00     0.000 O
ATOM     25  HD  BGC B   2      19.417  -5.161 -13.1650  0.00  0.00     0.000 HD
ATOM     25   O  BGC B   2      20.063  -3.204 -12.2840  0.00  0.00     0.000 O
ATOM     27  HD  BGC B   2      19.618  -2.464 -12.2190  0.00  0.00     0.000 HD
ATOM     27   C  BGC B   2      17.821  -1.727 -16.4300  0.00  0.00     0.000 C
ATOM     28   O  BGC B   2      19.053  -1.189 -16.8830  0.00  0.00     0.000 O
ATOM     30  HD  BGC B   2      18.607  -0.449 -16.8190  0.00  0.00     0.000 HD
BRANCH 17 30
ATOM     30  O4  BGC B   3      19.343  -6.094 -16.0070  0.00  0.00     0.000 O
BRANCH 30 34
ATOM     31  C1  BGC B   3      18.308  -9.105 -18.6130  0.00  0.00     0.000 C
ATOM     32  C2  BGC B   3      18.207  -7.696 -19.1970  0.00  0.00     0.000 C
ATOM     33  C3  BGC B   3      18.976  -6.738 -18.3060  0.00  0.00     0.000 C
ATOM     34  C4  BGC B   3      18.467  -6.829 -16.8680  0.00  0.00     0.000 C
ATOM     35  C5  BGC B   3      18.461  -8.273 -16.4000  0.00  0.00     0.000 C
ATOM     36  O5  BGC B   3      17.713  -9.070 -17.3250  0.00  0.00     0.000 O
ATOM     37   O  BGC B   3      18.795  -7.677 -20.4960  0.00  0.00     0.000 O
ATOM     39  HD  BGC B   3      18.481  -6.878 -20.6080  0.00  0.00     0.000 HD
ATOM     39   O  BGC B   3      18.812  -5.422 -18.8140  0.00  0.00     0.000 O
ATOM     41  HD  BGC B   3      18.498  -4.623 -18.9260  0.00  0.00     0.000 HD
ATOM     41   C  BGC B   3      17.880  -8.470 -15.0040  0.00  0.00     0.000 C
ATOM     42   O  BGC B   3      16.562  -7.976 -14.9530  0.00  0.00     0.000 O
ATOM     44  HD  BGC B   3      16.248  -7.177 -15.0650  0.00  0.00     0.000 HD
BRANCH 31 44
ATOM     44  O4  BGC B   4      17.503  -9.942 -19.4020  0.00  0.00     0.000 O
BRANCH 44 48
ATOM     45  C1  BGC B   4      16.884 -13.918 -20.1860  0.00  0.00     0.000 C
ATOM     46  C2  BGC B   4      16.263 -13.419 -18.8890  0.00  0.00     0.000 C
ATOM     47  C3  BGC B   4      16.212 -11.911 -18.9030  0.00  0.00     0.000 C
ATOM     48  C4  BGC B   4      17.603 -11.334 -19.1840  0.00  0.00     0.000 C
ATOM     49  C5  BGC B   4      18.201 -11.962 -20.4490  0.00  0.00     0.000 C
ATOM     50  O5  BGC B   4      18.205 -13.391 -20.3260  0.00  0.00     0.000 O
ATOM     51   O  BGC B   4      14.925 -13.934 -18.7530  0.00  0.00     0.000 O
ATOM     53  HD  BGC B   4      14.736 -13.127 -19.0070  0.00  0.00     0.000 HD
ATOM     53   O  BGC B   4      15.747 -11.452 -17.6250  0.00  0.00     0.000 O
ATOM     55  HD  BGC B   4      15.559 -10.646 -17.8790  0.00  0.00     0.000 HD
ATOM     55   C  BGC B   4      19.628 -11.538 -20.7460  0.00  0.00     0.000 C
ATOM     56   O  BGC B   4      20.417 -11.826 -19.5900  0.00  0.00     0.000 O
ATOM     58  HD  BGC B   4      20.229 -11.019 -19.8440  0.00  0.00     0.000 HD
BRANCH 45 58
ATOM     58  O4  BGC B   5      17.133 -15.309 -19.9910  0.00  0.00     0.000 O
BRANCH 58 62
ATOM     59  C1  BGC B   5      18.777 -18.621 -21.8560  0.00  0.00     0.000 C
ATOM     60  C2  BGC B   5      19.771 -17.576 -21.3900  0.00  0.00     0.000 C
ATOM     61  C3  BGC B   5      19.130 -16.643 -20.3810  0.00  0.00     0.000 C
ATOM     62  C4  BGC B   5      17.865 -16.044 -20.9740  0.00  0.00     0.000 C
ATOM     63  C5  BGC B   5      16.937 -17.150 -21.4980  0.00  0.00     0.000 C
ATOM     64  O5  BGC B   5      17.655 -17.947 -22.4340  0.00  0.00     0.000 O
ATOM     65   O  BGC B   5      16.188 -15.785 -23.2500  0.00  0.00     0.000 O
ATOM     67  HD  BGC B   5      16.126 -14.952 -23.4800  0.00  0.00     0.000 HD
ATOM     67   O  BGC B   5      16.188 -15.785 -23.2500  0.00  0.00     0.000 O
ATOM     69  HD  BGC B   5      16.126 -14.952 -23.4800  0.00  0.00     0.000 HD
ENDBRANCH 58 62
ENDBRANCH 45 58
ENDBRANCH 44 48
ENDBRANCH 31 44
ENDBRANCH 30 34
ENDBRANCH 17 30
ENDBRANCH 16 20
ENDBRANCH 1 16
TORSDOF 8
ENDMDL
MODEL 4
REMARK VINA RESULT:      -9.7      5.634     11.382
ROOT
ATOM      1  C1  BGC B   1      20.632  -6.126 -14.3610  0.00  0.00     0.000 C
ATOM      2  C2  BGC B   1      19.752  -5.408 -13.3380  0.00  0.00     0.000 C
ATOM      3  C3  BGC B   1      20.321  -4.036 -13.0340  0.00  0.00     0.000 C
ATOM      4  C4  BGC B   1      21.792  -4.135 -12.6480  0.00  0.00     0.000 C
ATOM      5  C5  BGC B   1      22.535  -4.855 -13.7640  0.00  0.00     0.000 C
ATOM      6  O5  BGC B   1      21.968  -6.173 -13.8780  0.00  0.00     0.000 O
ATOM      7   O  BGC B   1      18.427  -5.263 -13.8750  0.00  0.00     0.000 O
ATOM      9  HD  BGC B   1      17.951  -4.595 -13.5960  0.00  0.00     0.000 HD
ATOM      9   O  BGC B   1      19.557  -3.442 -11.9800  0.00  0.00     0.000 O
ATOM     11  HD  BGC B   1      19.081  -2.774 -11.7020  0.00  0.00     0.000 HD
ATOM     11   O  BGC B   1      22.324  -2.840 -12.4730  0.00  0.00     0.000 O
ATOM     13  HD  BGC B   1      21.848  -2.172 -12.1940  0.00  0.00     0.000 HD
ATOM     13   C  BGC B   1      24.035  -4.991 -13.5470  0.00  0.00     0.000 C
ATOM     14   O  BGC B   1      24.350  -5.625 -12.3110  0.00  0.00     0.000 O
ATOM     16  HD  BGC B   1      23.874  -4.957 -12.0330  0.00  0.00     0.000 HD
ENDROOT
BRANCH 1 16
ATOM     16  O4  BGC B   2      20.195  -7.483 -14.3790  0.00  0.00     0.000 O
BRANCH 16 20
ATOM     17  C1  BGC B   2      19.665 -10.629 -16.9010  0.00  0.00     0.000 C
ATOM     18  C2  BGC B   2      21.044  -9.993 -16.9990  0.00  0.00     0.000 C
ATOM     19  C3  BGC B   2      21.249  -9.092 -15.7830  0.00  0.00     0.000 C
ATOM     20  C4  BGC B   2      20.111  -8.099 -15.6620  0.00  0.00     0.000 C
ATOM     21  C5  BGC B   2      18.740  -8.768 -15.7600  0.00  0.00     0.000 C
ATOM     22  O5  BGC B   2      18.703  -9.559 -16.9550  0.00  0.00     0.000 O
ATOM     23   O  BGC B   2      22.058 -11.011 -17.0060  0.00  0.00     0.000 O
ATOM     25  HD  BGC B   2      21.764 -10.465 -16.4010  0.00  0.00     0.000 HD
ATOM     25   O  BGC B   2      22.491  -8.407 -15.8920  0.00  0.00     0.000 O
ATOM     27  HD  BGC B   2      22.198  -7.862 -15.2870  0.00  0.00     0.000 HD
ATOM     27   C  BGC B   2      17.594  -7.767 -15.8300  0.00  0.00     0.000 C
ATOM     28   O  BGC B   2      17.719  -6.843 -16.8990  0.00  0.00     0.000 O
ATOM     30  HD  BGC B   2      17.425  -6.298 -16.2940  0.00  0.00     0.000 HD
BRANCH 17 30
ATOM     30  O4  BGC B   3      19.467 -11.363 -18.0950  0.00  0.00     0.000 O
BRANCH 30 34
ATOM     31  C1  BGC B   3      17.703 -14.840 -19.4090  0.00  0.00     0.000 C
ATOM     32  C2  BGC B   3      16.742 -13.850 -18.7510  0.00  0.00     0.000 C
ATOM     33  C3  BGC B   3      17.411 -12.489 -18.6810  0.00  0.00     0.000 C
ATOM     34  C4  BGC B   3      18.753 -12.595 -17.9560  0.00  0.00     0.000 C
ATOM     35  C5  BGC B   3      19.600 -13.695 -18.5720  0.00  0.00     0.000 C
ATOM     36  O5  BGC B   3      18.856 -14.918 -18.5860  0.00  0.00     0.000 O
ATOM     37   O  BGC B   3      15.563 -13.733 -19.5440  0.00  0.00     0.000 O
ATOM     39  HD  BGC B   3      15.199 -13.276 -18.9050  0.00  0.00     0.000 HD
ATOM     39   O  BGC B   3      16.543 -11.595 -17.9990  0.00  0.00     0.000 O
ATOM     41  HD  BGC B   3      16.179 -11.138 -17.3610  0.00  0.00     0.000 HD
ATOM     41   C  BGC B   3      20.922 -13.934 -17.8520  0.00  0.00     0.000 C
ATOM     42   O  BGC B   3      20.689 -14.253 -16.5010  0.00  0.00     0.000 O
ATOM     44  HD  BGC B   3      20.325 -13.796 -15.8620  0.00  0.00     0.000 HD
BRANCH 31 44
ATOM     44  O4  BGC B   4      17.093 -16.104 -19.3630  0.00  0.00     0.000 O
BRANCH 44 48
ATOM     45  C1  BGC B   4      17.816 -20.010 -20.3770  0.00  0.00     0.000 C
ATOM     46  C2  BGC B   4      18.522 -19.537 -19.1140  0.00  0.00     0.000 C
ATOM     47  C3  BGC B   4      17.888 -18.255 -18.6320  0.00  0.00     0.000 C
ATOM     48  C4  BGC B   4      17.871 -17.215 -19.7570  0.00  0.00     0.000 C
ATOM     49  C5  BGC B   4      17.237 -17.802 -21.0240  0.00  0.00     0.000 C
ATOM     50  O5  BGC B   4      17.918 -19.010 -21.3930  0.00  0.00     0.000 O
ATOM     51   O  BGC B   4      18.407 -20.535 -18.0820  0.00  0.00     0.000 O
ATOM     53  HD  BGC B   4      17.804 -19.979 -17.8030  0.00  0.00     0.000 HD
ATOM     53   O  BGC B   4      18.645 -17.754 -17.5210  0.00  0.00     0.000 O
ATOM     55  HD  BGC B   4      18.042 -17.198 -17.2420  0.00  0.00     0.000 HD
ATOM     55   C  BGC B   4      17.280 -16.882 -22.2310  0.00  0.00     0.000 C
ATOM     56   O  BGC B   4      18.643 -16.511 -22.4470  0.00  0.00     0.000 O
ATOM     58  HD  BGC B   4      18.040 -15.955 -22.1680  0.00  0.00     0.000 HD
BRANCH 45 58
ATOM     58  O4  BGC B   5      18.623 -21.061 -20.9060  0.00  0.00     0.000 O
BRANCH 58 62
ATOM     59  C1  BGC B   5      18.378 -24.756 -22.7610  0.00  0.00     0.000 C
ATOM     60  C2  BGC B   5      17.691 -23.617 -23.4870  0.00  0.00     0.000 C
ATOM     61  C3  BGC B   5      18.182 -22.279 -22.9660  0.00  0.00     0.000 C
ATOM     62  C4  BGC B   5      18.001 -22.224 -21.4580  0.00  0.00     0.000 C
ATOM     63  C5  BGC B   5      18.650 -23.445 -20.7900  0.00  0.00     0.000 C
ATOM     64  O5  BGC B   5      18.102 -24.628 -21.3620  0.00  0.00     0.000 O
ATOM     65   O  BGC B   5      17.000 -23.498 -19.1260  0.00  0.00     0.000 O
ATOM     67  HD  BGC B   5      16.409 -22.994 -18.7420  0.00  0.00     0.000 HD
ATOM     67   O  BGC B   5      17.000 -23.498 -19.1260  0.00  0.00     0.000 O
ATOM     69  HD  BGC B   5      16.409 -22.994 -18.7420  0.00  0.00     0.000 HD
ENDBRANCH 58 62
ENDBRANCH 45 58
ENDBRANCH 44 48
ENDBRANCH 31 44
ENDBRANCH 30 34
ENDBRANCH 17 30
ENDBRANCH 16 20
ENDBRANCH 1 16
TORSDOF 8
ENDMDL
MODEL 5
REMARK VINA RESULT:      -9.5      4.849     10.726
ROOT
ATOM      1  C1  BGC B   1      19.289  -5.761 -14.4160  0.00  0.00     0.000 C
ATOM      2  C2  BGC B   1      20.204  -5.034 -13.4320  0.00  0.00     0.000 C
ATOM      3  C3  BGC B   1      19.537  -3.764 -12.9420  0.00  0.00     0.000 C
ATOM      4  C4  BGC B   1      19.064  -2.915 -14.1150  0.00  0.00     0.000 C
ATOM      5  C5  BGC B   1      18.155  -3.767 -14.9890  0.00  0.00     0.000 C
ATOM      6  O5  BGC B   1      18.936  -4.876 -15.4700  0.00  0.00     0.000 O
ATOM      7   O  BGC B   1      20.471  -5.892 -12.3110  0.00  0.00     0.000 O
ATOM      9  HD  BGC B   1      20.648  -5.518 -11.5500  0.00  0.00     0.000 HD
ATOM      9   O  BGC B   1      20.466  -3.038 -12.1300  0.00  0.00     0.000 O
ATOM     11  HD  BGC B   1      20.643  -2.663 -11.3700  0.00  0.00     0.000 HD
ATOM     11   O  BGC B   1      18.355  -1.794 -13.6340  0.00  0.00     0.000 O
ATOM     13  HD  BGC B   1      18.532  -1.419 -12.8730  0.00  0.00     0.000 HD
ATOM     13   C  BGC B   1      17.557  -3.041 -16.1860  0.00  0.00     0.000 C
ATOM     14   O  BGC B   1      18.553  -2.447 -17.0130  0.00  0.00     0.000 O
ATOM     16  HD  BGC B   1      18.731  -2.072 -16.2520  0.00  0.00     0.000 HD
ENDROOT
BRANCH 1 16
ATOM     16  O4  BGC B   2      20.086  -6.772 -15.0300  0.00  0.00     0.000 O
BRANCH 16 20
ATOM     17  C1  BGC B   2      19.626  -9.916 -17.5670  0.00  0.00     0.000 C
ATOM     18  C2  BGC B   2      20.081  -8.638 -18.2540  0.00  0.00     0.000 C
ATOM     19  C3  BGC B   2      20.564  -7.659 -17.1870  0.00  0.00     0.000 C
ATOM     20  C4  BGC B   2      19.495  -7.454 -16.1330  0.00  0.00     0.000 C
ATOM     21  C5  BGC B   2      18.934  -8.775 -15.6080  0.00  0.00     0.000 C
ATOM     22  O5  BGC B   2      18.511  -9.567 -16.7240  0.00  0.00     0.000 O
ATOM     23   O  BGC B   2      21.162  -8.921 -19.1580  0.00  0.00     0.000 O
ATOM     25  HD  BGC B   2      21.122  -8.572 -18.3660  0.00  0.00     0.000 HD
ATOM     25   O  BGC B   2      20.908  -6.416 -17.7890  0.00  0.00     0.000 O
ATOM     27  HD  BGC B   2      20.867  -6.067 -16.9980  0.00  0.00     0.000 HD
ATOM     27   C  BGC B   2      17.732  -8.587 -14.6910  0.00  0.00     0.000 C
ATOM     28   O  BGC B   2      16.674  -7.859 -15.2930  0.00  0.00     0.000 O
ATOM     30  HD  BGC B   2      16.633  -7.510 -14.5010  0.00  0.00     0.000 HD
BRANCH 17 30
ATOM     30  O4  BGC B   3      19.082 -10.751 -18.5720  0.00  0.00     0.000 O
BRANCH 30 34
ATOM     31  C1  BGC B   3      17.695 -14.596 -19.0370  0.00  0.00     0.000 C
ATOM     32  C2  BGC B   3      16.719 -13.649 -18.3390  0.00  0.00     0.000 C
ATOM     33  C3  BGC B   3      17.162 -12.218 -18.5840  0.00  0.00     0.000 C
ATOM     34  C4  BGC B   3      18.610 -12.028 -18.1320  0.00  0.00     0.000 C
ATOM     35  C5  BGC B   3      19.501 -13.090 -18.7530  0.00  0.00     0.000 C
ATOM     36  O5  BGC B   3      18.972 -14.387 -18.4560  0.00  0.00     0.000 O
ATOM     37   O  BGC B   3      15.415 -13.819 -18.8910  0.00  0.00     0.000 O
ATOM     39  HD  BGC B   3      15.100 -13.317 -18.2590  0.00  0.00     0.000 HD
ATOM     39   O  BGC B   3      16.296 -11.350 -17.8690  0.00  0.00     0.000 O
ATOM     41  HD  BGC B   3      15.982 -10.848 -17.2370  0.00  0.00     0.000 HD
ATOM     41   C  BGC B   3      20.950 -13.034 -18.2840  0.00  0.00     0.000 C
ATOM     42   O  BGC B   3      21.013 -13.160 -16.8830  0.00  0.00     0.000 O
ATOM     44  HD  BGC B   3      20.698 -12.658 -16.2510  0.00  0.00     0.000 HD
BRANCH 31 44
ATOM     44  O4  BGC B   4      17.313 -15.906 -18.7040  0.00  0.00     0.000 O
BRANCH 44 48
ATOM     45  C1  BGC B   4      18.034 -19.688 -20.1130  0.00  0.00     0.000 C
ATOM     46  C2  BGC B   4      18.795 -19.323 -18.8460  0.00  0.00     0.000 C
ATOM     47  C3  BGC B   4      18.169 -18.102 -18.2170  0.00  0.00     0.000 C
ATOM     48  C4  BGC B   4      18.085 -16.963 -19.2370  0.00  0.00     0.000 C
ATOM     49  C5  BGC B   4      17.397 -17.439 -20.5220  0.00  0.00     0.000 C
ATOM     50  O5  BGC B   4      18.074 -18.596 -21.0340  0.00  0.00     0.000 O
ATOM     51   O  BGC B   4      18.742 -20.414 -17.9080  0.00  0.00     0.000 O
ATOM     53  HD  BGC B   4      18.147 -19.897 -17.5500  0.00  0.00     0.000 HD
ATOM     53   O  BGC B   4      18.973 -17.694 -17.1010  0.00  0.00     0.000 O
ATOM     55  HD  BGC B   4      18.378 -17.177 -16.7430  0.00  0.00     0.000 HD
ATOM     55   C  BGC B   4      17.370 -16.411 -21.6390  0.00  0.00     0.000 C
ATOM     56   O  BGC B   4      18.716 -15.998 -21.8820  0.00  0.00     0.000 O
ATOM     58  HD  BGC B   4      18.121 -15.480 -21.5250  0.00  0.00     0.000 HD
BRANCH 45 58
ATOM     58  O4  BGC B   5      18.827 -20.672 -20.7760  0.00  0.00     0.000 O
BRANCH 58 62
ATOM     59  C1  BGC B   5      18.538 -24.179 -22.9590  0.00  0.00     0.000 C
ATOM     60  C2  BGC B   5      17.878 -22.967 -23.5850  0.00  0.00     0.000 C
ATOM     61  C3  BGC B   5      18.387 -21.691 -22.9410  0.00  0.00     0.000 C
ATOM     62  C4  BGC B   5      18.191 -21.769 -21.4360  0.00  0.00     0.000 C
ATOM     63  C5  BGC B   5      18.813 -23.057 -20.8750  0.00  0.00     0.000 C
ATOM     64  O5  BGC B   5      18.251 -24.173 -21.5570  0.00  0.00     0.000 O
ATOM     65   O  BGC B   5      17.145 -23.230 -19.2370  0.00  0.00     0.000 O
ATOM     67  HD  BGC B   5      16.559 -22.752 -18.8140  0.00  0.00     0.000 HD
ATOM     67   O  BGC B   5      17.145 -23.230 -19.2370  0.00  0.00     0.000 O
ATOM     69  HD  BGC B   5      16.559 -22.752 -18.8140  0.00  0.00     0.000 HD
ENDBRANCH 58 62
ENDBRANCH 45 58
ENDBRANCH 44 48
ENDBRANCH 31 44
ENDBRANCH 30 34
ENDBRANCH 17 30
ENDBRANCH 16 20
ENDBRANCH 1 16
TORSDOF 8
ENDMDL
MODEL 6
REMARK VINA RESULT:      -9.2      2.215     15.397
ROOT
ATOM      1  C1  BGC B   1      18.202 -14.976 -19.6320  0.00  0.00     0.000 C
ATOM      2  C2  BGC B   1      17.833 -16.247 -18.8690  0.00  0.00     0.000 C
ATOM      3  C3  BGC B   1      18.198 -17.471 -19.6880  0.00  0.00     0.000 C
ATOM      4  C4  BGC B   1      17.608 -17.377 -21.0890  0.00  0.00     0.000 C
ATOM      5  C5  BGC B   1      18.074 -16.074 -21.7220  0.00  0.00     0.000 C
ATOM      6  O5  BGC B   1      17.576 -14.997 -20.9070  0.00  0.00     0.000 O
ATOM      7   O  BGC B   1      18.554 -16.279 -17.6250  0.00  0.00     0.000 O
ATOM      9  HD  BGC B   1      18.730 -17.054 -17.2820  0.00  0.00     0.000 HD
ATOM      9   O  BGC B   1      17.722 -18.638 -19.0120  0.00  0.00     0.000 O
ATOM     11  HD  BGC B   1      17.899 -19.413 -18.6680  0.00  0.00     0.000 HD
ATOM     11   O  BGC B   1      18.047 -18.472 -21.8630  0.00  0.00     0.000 O
ATOM     13  HD  BGC B   1      18.223 -19.247 -21.5190  0.00  0.00     0.000 HD
ATOM     13   C  BGC B   1      17.604 -15.854 -23.1530  0.00  0.00     0.000 C
ATOM     14   O  BGC B   1      16.188 -15.936 -23.2770  0.00  0.00     0.000 O
ATOM     16  HD  BGC B   1      16.364 -16.711 -22.9330  0.00  0.00     0.000 HD
ENDROOT
BRANCH 1 16
ATOM     16  O4  BGC B   2      17.584 -13.898 -18.9310  0.00  0.00     0.000 O
BRANCH 16 20
ATOM     17  C1  BGC B   2      17.307  -9.841 -18.9120  0.00  0.00     0.000 C
ATOM     18  C2  BGC B   2      16.593 -10.497 -20.0850  0.00  0.00     0.000 C
ATOM     19  C3  BGC B   2      16.452 -11.989 -19.7930  0.00  0.00     0.000 C
ATOM     20  C4  BGC B   2      17.801 -12.595 -19.4670  0.00  0.00     0.000 C
ATOM     21  C5  BGC B   2      18.563 -11.789 -18.4140  0.00  0.00     0.000 C
ATOM     22  O5  BGC B   2      18.623 -10.422 -18.8420  0.00  0.00     0.000 O
ATOM     23   O  BGC B   2      15.286  -9.924 -20.2500  0.00  0.00     0.000 O
ATOM     25  HD  BGC B   2      15.573 -10.667 -19.9100  0.00  0.00     0.000 HD
ATOM     25   O  BGC B   2      15.873 -12.649 -20.9130  0.00  0.00     0.000 O
ATOM     27  HD  BGC B   2      16.161 -13.392 -20.5730  0.00  0.00     0.000 HD
ATOM     27   C  BGC B   2      19.993 -12.275 -18.2140  0.00  0.00     0.000 C
ATOM     28   O  BGC B   2      20.756 -12.285 -19.4100  0.00  0.00     0.000 O
ATOM     30  HD  BGC B   2      21.044 -13.028 -19.0700  0.00  0.00     0.000 HD
BRANCH 17 30
ATOM     30  O4  BGC B   3      17.520  -8.488 -19.2670  0.00  0.00     0.000 O
BRANCH 30 34
ATOM     31  C1  BGC B   3      18.816  -5.181 -17.1900  0.00  0.00     0.000 C
ATOM     32  C2  BGC B   3      19.787  -5.680 -18.2600  0.00  0.00     0.000 C
ATOM     33  C3  BGC B   3      19.046  -6.616 -19.1980  0.00  0.00     0.000 C
ATOM     34  C4  BGC B   3      18.392  -7.748 -18.4060  0.00  0.00     0.000 C
ATOM     35  C5  BGC B   3      17.556  -7.185 -17.2710  0.00  0.00     0.000 C
ATOM     36  O5  BGC B   3      18.364  -6.317 -16.4690  0.00  0.00     0.000 O
ATOM     37   O  BGC B   3      20.270  -4.572 -19.0170  0.00  0.00     0.000 O
ATOM     39  HD  BGC B   3      20.843  -5.100 -19.3940  0.00  0.00     0.000 HD
ATOM     39   O  BGC B   3      19.972  -7.134 -20.1410  0.00  0.00     0.000 O
ATOM     41  HD  BGC B   3      20.546  -7.663 -20.5170  0.00  0.00     0.000 HD
ATOM     41   C  BGC B   3      16.938  -8.248 -16.3700  0.00  0.00     0.000 C
ATOM     42   O  BGC B   3      17.945  -9.065 -15.8210  0.00  0.00     0.000 O
ATOM     44  HD  BGC B   3      18.518  -9.594 -16.1980  0.00  0.00     0.000 HD
BRANCH 31 44
ATOM     44  O4  BGC B   4      19.557  -4.403 -16.2860  0.00  0.00     0.000 O
BRANCH 44 48
ATOM     45  C1  BGC B   4      19.091  -1.127 -13.8670  0.00  0.00     0.000 C
ATOM     46  C2  BGC B   4      18.691  -2.451 -13.2310  0.00  0.00     0.000 C
ATOM     47  C3  BGC B   4      19.263  -3.590 -14.0400  0.00  0.00     0.000 C
ATOM     48  C4  BGC B   4      18.849  -3.459 -15.5090  0.00  0.00     0.000 C
ATOM     49  C5  BGC B   4      19.194  -2.064 -16.0440  0.00  0.00     0.000 C
ATOM     50  O5  BGC B   4      18.598  -1.062 -15.2060  0.00  0.00     0.000 O
ATOM     51   O  BGC B   4      19.201  -2.526 -11.8870  0.00  0.00     0.000 O
ATOM     53  HD  BGC B   4      19.781  -3.034 -12.2820  0.00  0.00     0.000 HD
ATOM     53   O  BGC B   4      18.770  -4.827 -13.5060  0.00  0.00     0.000 O
ATOM     55  HD  BGC B   4      19.350  -5.335 -13.9020  0.00  0.00     0.000 HD
ATOM     55   C  BGC B   4      18.716  -1.799 -17.4610  0.00  0.00     0.000 C
ATOM     56   O  BGC B   4      17.310  -2.046 -17.4990  0.00  0.00     0.000 O
ATOM     58  HD  BGC B   4      17.889  -2.554 -17.8940  0.00  0.00     0.000 HD
BRANCH 45 58
ATOM     58  O4  BGC B   5      18.312  -0.127 -13.2110  0.00  0.00     0.000 O
BRANCH 58 62
ATOM     59  C1  BGC B   5      18.409   3.930 -12.3840  0.00  0.00     0.000 C
ATOM     60  C2  BGC B   5      19.097   3.511 -13.6680  0.00  0.00     0.000 C
ATOM     61  C3  BGC B   5      18.655   2.120 -14.0800  0.00  0.00     0.000 C
ATOM     62  C4  BGC B   5      18.888   1.152 -12.9320  0.00  0.00     0.000 C
ATOM     63  C5  BGC B   5      18.234   1.672 -11.6440  0.00  0.00     0.000 C
ATOM     64  O5  BGC B   5      18.734   2.976 -11.3680  0.00  0.00     0.000 O
ATOM     65   O  BGC B   5      19.938   0.750 -10.3240  0.00  0.00     0.000 O
ATOM     67  HD  BGC B   5      20.552   0.140 -10.3420  0.00  0.00     0.000 HD
ATOM     67   O  BGC B   5      19.938   0.750 -10.3240  0.00  0.00     0.000 O
ATOM     69  HD  BGC B   5      20.552   0.140 -10.3420  0.00  0.00     0.000 HD
ENDBRANCH 58 62
ENDBRANCH 45 58
ENDBRANCH 44 48
ENDBRANCH 31 44
ENDBRANCH 30 34
ENDBRANCH 17 30
ENDBRANCH 16 20
ENDBRANCH 1 16
TORSDOF 8
ENDMDL
MODEL 7
REMARK VINA RESULT:      -9.2      3.099     15.924
ROOT
ATOM      1  C1  BGC B   1      18.642 -16.591 -18.8460  0.00  0.00     0.000 C
ATOM      2  C2  BGC B   1      18.085 -17.880 -18.2440  0.00  0.00     0.000 C
ATOM      3  C3  BGC B   1      18.312 -19.039 -19.1950  0.00  0.00     0.000 C
ATOM      4  C4  BGC B   1      17.786 -18.707 -20.5860  0.00  0.00     0.000 C
ATOM      5  C5  BGC B   1      18.440 -17.415 -21.0530  0.00  0.00     0.000 C
ATOM      6  O5  BGC B   1      18.061 -16.381 -20.1250  0.00  0.00     0.000 O
ATOM      7   O  BGC B   1      18.753 -18.150 -17.0010  0.00  0.00     0.000 O
ATOM      9  HD  BGC B   1      18.815 -18.976 -16.7480  0.00  0.00     0.000 HD
ATOM      9   O  BGC B   1      17.665 -20.202 -18.6700  0.00  0.00     0.000 O
ATOM     11  HD  BGC B   1      17.727 -21.028 -18.4170  0.00  0.00     0.000 HD
ATOM     11   O  BGC B   1      18.103 -19.755 -21.4760  0.00  0.00     0.000 O
ATOM     13  HD  BGC B   1      18.165 -20.581 -21.2230  0.00  0.00     0.000 HD
ATOM     13   C  BGC B   1      18.050 -16.972 -22.4560  0.00  0.00     0.000 C
ATOM     14   O  BGC B   1      16.640 -16.848 -22.6130  0.00  0.00     0.000 O
ATOM     16  HD  BGC B   1      16.702 -17.674 -22.3610  0.00  0.00     0.000 HD
ENDROOT
BRANCH 1 16
ATOM     16  O4  BGC B   2      18.148 -15.527 -18.0340  0.00  0.00     0.000 O
BRANCH 16 20
ATOM     17  C1  BGC B   2      18.820 -11.573 -17.3630  0.00  0.00     0.000 C
ATOM     18  C2  BGC B   2      17.757 -11.842 -18.4180  0.00  0.00     0.000 C
ATOM     19  C3  BGC B   2      17.337 -13.307 -18.3200  0.00  0.00     0.000 C
ATOM     20  C4  BGC B   2      18.548 -14.212 -18.4110  0.00  0.00     0.000 C
ATOM     21  C5  BGC B   2      19.669 -13.784 -17.4620  0.00  0.00     0.000 C
ATOM     22  O5  BGC B   2      19.954 -12.398 -17.6900  0.00  0.00     0.000 O
ATOM     23   O  BGC B   2      16.610 -11.007 -18.1860  0.00  0.00     0.000 O
ATOM     25  HD  BGC B   2      16.780 -11.843 -18.0350  0.00  0.00     0.000 HD
ATOM     25   O  BGC B   2      16.412 -13.615 -19.3560  0.00  0.00     0.000 O
ATOM     27  HD  BGC B   2      16.582 -14.451 -19.2050  0.00  0.00     0.000 HD
ATOM     27   C  BGC B   2      20.959 -14.565 -17.6760  0.00  0.00     0.000 C
ATOM     28   O  BGC B   2      21.446 -14.492 -19.0060  0.00  0.00     0.000 O
ATOM     30  HD  BGC B   2      21.617 -15.328 -18.8550  0.00  0.00     0.000 HD
BRANCH 17 30
ATOM     30  O4  BGC B   3      19.263 -10.243 -17.5590  0.00  0.00     0.000 O
BRANCH 30 34
ATOM     31  C1  BGC B   3      20.516  -6.983 -15.3840  0.00  0.00     0.000 C
ATOM     32  C2  BGC B   3      21.319  -8.259 -15.1340  0.00  0.00     0.000 C
ATOM     33  C3  BGC B   3      21.035  -9.246 -16.2530  0.00  0.00     0.000 C
ATOM     34  C4  BGC B   3      19.531  -9.495 -16.3680  0.00  0.00     0.000 C
ATOM     35  C5  BGC B   3      18.783  -8.178 -16.4700  0.00  0.00     0.000 C
ATOM     36  O5  BGC B   3      19.143  -7.340 -15.3670  0.00  0.00     0.000 O
ATOM     37   O  BGC B   3      22.712  -7.954 -15.1450  0.00  0.00     0.000 O
ATOM     39  HD  BGC B   3      22.873  -8.755 -14.8580  0.00  0.00     0.000 HD
ATOM     39   O  BGC B   3      21.723 -10.455 -15.9730  0.00  0.00     0.000 O
ATOM     41  HD  BGC B   3      21.884 -11.256 -15.6860  0.00  0.00     0.000 HD
ATOM     41   C  BGC B   3      17.266  -8.327 -16.4970  0.00  0.00     0.000 C
ATOM     42   O  BGC B   3      16.825  -9.005 -15.3440  0.00  0.00     0.000 O
ATOM     44  HD  BGC B   3      16.985  -9.806 -15.0570  0.00  0.00     0.000 HD
BRANCH 31 44
ATOM     44  O4  BGC B   4      20.724  -6.139 -14.2810  0.00  0.00     0.000 O
BRANCH 44 48
ATOM     45  C1  BGC B   4      20.779  -2.161 -13.2910  0.00  0.00     0.000 C
ATOM     46  C2  BGC B   4      19.391  -2.742 -13.5210  0.00  0.00     0.000 C
ATOM     47  C3  BGC B   4      19.464  -4.249 -13.4850  0.00  0.00     0.000 C
ATOM     48  C4  BGC B   4      20.518  -4.754 -14.4750  0.00  0.00     0.000 C
ATOM     49  C5  BGC B   4      21.859  -4.048 -14.2420  0.00  0.00     0.000 C
ATOM     50  O5  BGC B   4      21.674  -2.626 -14.3030  0.00  0.00     0.000 O
ATOM     51   O  BGC B   4      18.490  -2.289 -12.4930  0.00  0.00     0.000 O
ATOM     53  HD  BGC B   4      18.641  -3.091 -12.2010  0.00  0.00     0.000 HD
ATOM     53   O  BGC B   4      18.178  -4.782 -13.8330  0.00  0.00     0.000 O
ATOM     55  HD  BGC B   4      18.328  -5.583 -13.5410  0.00  0.00     0.000 HD
ATOM     55   C  BGC B   4      22.937  -4.399 -15.2520  0.00  0.00     0.000 C
ATOM     56   O  BGC B   4      22.417  -4.130 -16.5550  0.00  0.00     0.000 O
ATOM     58  HD  BGC B   4      22.567  -4.931 -16.2630  0.00  0.00     0.000 HD
BRANCH 45 58
ATOM     58  O4  BGC B   5      20.677  -0.770 -13.5940  0.00  0.00     0.000 O
BRANCH 58 62
ATOM     59  C1  BGC B   5      22.380   2.878 -12.6260  0.00  0.00     0.000 C
ATOM     60  C2  BGC B   5      23.353   1.727 -12.7820  0.00  0.00     0.000 C
ATOM     61  C3  BGC B   5      22.703   0.577 -13.5260  0.00  0.00     0.000 C
ATOM     62  C4  BGC B   5      21.414   0.181 -12.8220  0.00  0.00     0.000 C
ATOM     63  C5  BGC B   5      20.508   1.404 -12.6240  0.00  0.00     0.000 C
ATOM     64  O5  BGC B   5      21.233   2.403 -11.9140  0.00  0.00     0.000 O
ATOM     65   O  BGC B   5      19.699   0.561 -10.5910  0.00  0.00     0.000 O
ATOM     67  HD  BGC B   5      19.613  -0.181 -10.1530  0.00  0.00     0.000 HD
ATOM     67   O  BGC B   5      19.699   0.561 -10.5910  0.00  0.00     0.000 O
ATOM     69  HD  BGC B   5      19.613  -0.181 -10.1530  0.00  0.00     0.000 HD
ENDBRANCH 58 62
ENDBRANCH 45 58
ENDBRANCH 44 48
ENDBRANCH 31 44
ENDBRANCH 30 34
ENDBRANCH 17 30
ENDBRANCH 16 20
ENDBRANCH 1 16
TORSDOF 8
ENDMDL
MODEL 8
REMARK VINA RESULT:      -9.2      8.029     16.039
ROOT
ATOM      1  C1  BGC B   1      19.280 -10.057 -17.0880  0.00  0.00     0.000 C
ATOM      2  C2  BGC B   1      18.125  -9.270 -16.4710  0.00  0.00     0.000 C
ATOM      3  C3  BGC B   1      18.455  -7.790 -16.4530  0.00  0.00     0.000 C
ATOM      4  C4  BGC B   1      19.810  -7.547 -15.8000  0.00  0.00     0.000 C
ATOM      5  C5  BGC B   1      20.853  -8.382 -16.5300  0.00  0.00     0.000 C
ATOM      6  O5  BGC B   1      20.477  -9.764 -16.3820  0.00  0.00     0.000 O
ATOM      7   O  BGC B   1      16.938  -9.480 -17.2520  0.00  0.00     0.000 O
ATOM      9  HD  BGC B   1      16.340  -8.853 -17.2540  0.00  0.00     0.000 HD
ATOM      9   O  BGC B   1      17.420  -7.094 -15.7520  0.00  0.00     0.000 O
ATOM     11  HD  BGC B   1      16.823  -6.467 -15.7530  0.00  0.00     0.000 HD
ATOM     11   O  BGC B   1      20.142  -6.179 -15.8900  0.00  0.00     0.000 O
ATOM     13  HD  BGC B   1      19.545  -5.552 -15.8920  0.00  0.00     0.000 HD
ATOM     13   C  BGC B   1      22.277  -8.211 -16.0230  0.00  0.00     0.000 C
ATOM     14   O  BGC B   1      22.390  -8.466 -14.6260  0.00  0.00     0.000 O
ATOM     16  HD  BGC B   1      21.793  -7.839 -14.6270  0.00  0.00     0.000 HD
ENDROOT
BRANCH 1 16
ATOM     16  O4  BGC B   2      19.014 -11.432 -16.8160  0.00  0.00     0.000 O
BRANCH 16 20
ATOM     17  C1  BGC B   2      19.381 -15.147 -18.4300  0.00  0.00     0.000 C
ATOM     18  C2  BGC B   2      20.713 -14.458 -18.1710  0.00  0.00     0.000 C
ATOM     19  C3  BGC B   2      20.471 -13.264 -17.2500  0.00  0.00     0.000 C
ATOM     20  C4  BGC B   2      19.403 -12.358 -17.8270  0.00  0.00     0.000 C
ATOM     21  C5  BGC B   2      18.151 -13.129 -18.2490  0.00  0.00     0.000 C
ATOM     22  O5  BGC B   2      18.544 -14.198 -19.1180  0.00  0.00     0.000 O
ATOM     23   O  BGC B   2      21.624 -15.368 -17.5320  0.00  0.00     0.000 O
ATOM     25  HD  BGC B   2      21.140 -14.709 -17.2460  0.00  0.00     0.000 HD
ATOM     25   O  BGC B   2      21.683 -12.542 -17.0650  0.00  0.00     0.000 O
ATOM     27  HD  BGC B   2      21.199 -11.883 -16.7800  0.00  0.00     0.000 HD
ATOM     27   C  BGC B   2      17.147 -12.264 -19.0010  0.00  0.00     0.000 C
ATOM     28   O  BGC B   2      17.695 -11.637 -20.1490  0.00  0.00     0.000 O
ATOM     30  HD  BGC B   2      17.211 -10.978 -19.8640  0.00  0.00     0.000 HD
BRANCH 17 30
ATOM     30  O4  BGC B   3      19.628 -16.173 -19.3720  0.00  0.00     0.000 O
BRANCH 30 34
ATOM     31  C1  BGC B   3      18.341 -19.977 -20.2680  0.00  0.00     0.000 C
ATOM     32  C2  BGC B   3      17.385 -18.865 -20.7010  0.00  0.00     0.000 C
ATOM     33  C3  BGC B   3      18.131 -17.543 -20.6840  0.00  0.00     0.000 C
ATOM     34  C4  BGC B   3      18.749 -17.301 -19.3080  0.00  0.00     0.000 C
ATOM     35  C5  BGC B   3      19.569 -18.504 -18.8780  0.00  0.00     0.000 C
ATOM     36  O5  BGC B   3      18.758 -19.682 -18.9440  0.00  0.00     0.000 O
ATOM     37   O  BGC B   3      16.937 -19.115 -22.0310  0.00  0.00     0.000 O
ATOM     39  HD  BGC B   3      16.364 -18.472 -21.9410  0.00  0.00     0.000 HD
ATOM     39   O  BGC B   3      17.217 -16.507 -21.0120  0.00  0.00     0.000 O
ATOM     41  HD  BGC B   3      16.644 -15.864 -20.9220  0.00  0.00     0.000 HD
ATOM     41   C  BGC B   3      20.150 -18.388 -17.4730  0.00  0.00     0.000 C
ATOM     42   O  BGC B   3      19.117 -18.193 -16.5360  0.00  0.00     0.000 O
ATOM     44  HD  BGC B   3      18.544 -17.550 -16.4450  0.00  0.00     0.000 HD
BRANCH 31 44
ATOM     44  O4  BGC B   4      17.593 -21.163 -20.1960  0.00  0.00     0.000 O
BRANCH 44 48
ATOM     45  C1  BGC B   4      17.977 -25.210 -20.7240  0.00  0.00     0.000 C
ATOM     46  C2  BGC B   4      18.732 -24.649 -19.5270  0.00  0.00     0.000 C
ATOM     47  C3  BGC B   4      18.212 -23.269 -19.2070  0.00  0.00     0.000 C
ATOM     48  C4  BGC B   4      18.272 -22.376 -20.4500  0.00  0.00     0.000 C
ATOM     49  C5  BGC B   4      17.578 -23.057 -21.6370  0.00  0.00     0.000 C
ATOM     50  O5  BGC B   4      18.153 -24.354 -21.8540  0.00  0.00     0.000 O
ATOM     51   O  BGC B   4      18.543 -25.500 -18.3810  0.00  0.00     0.000 O
ATOM     53  HD  BGC B   4      17.992 -24.866 -18.1730  0.00  0.00     0.000 HD
ATOM     53   O  BGC B   4      19.018 -22.702 -18.1640  0.00  0.00     0.000 O
ATOM     55  HD  BGC B   4      18.467 -22.067 -17.9560  0.00  0.00     0.000 HD
ATOM     55   C  BGC B   4      17.687 -22.298 -22.9470  0.00  0.00     0.000 C
ATOM     56   O  BGC B   4      19.074 -22.071 -23.2050  0.00  0.00     0.000 O
ATOM     58  HD  BGC B   4      18.523 -21.437 -22.9970  0.00  0.00     0.000 HD
BRANCH 45 58
ATOM     58  O4  BGC B   5      18.689 -26.382 -21.1200  0.00  0.00     0.000 O
BRANCH 58 62
ATOM     59  C1  BGC B   5      18.109 -30.327 -22.2410  0.00  0.00     0.000 C
ATOM     60  C2  BGC B   5      17.669 -29.291 -23.2550  0.00  0.00     0.000 C
ATOM     61  C3  BGC B   5      18.290 -27.943 -22.9450  0.00  0.00     0.000 C
ATOM     62  C4  BGC B   5      17.967 -27.553 -21.5110  0.00  0.00     0.000 C
ATOM     63  C5  BGC B   5      18.364 -28.676 -20.5420  0.00  0.00     0.000 C
ATOM     64  O5  BGC B   5      17.714 -29.878 -20.9400  0.00  0.00     0.000 O
ATOM     65   O  BGC B   5      16.562 -28.183 -19.1250  0.00  0.00     0.000 O
ATOM     67  HD  BGC B   5      16.014 -27.544 -18.9250  0.00  0.00     0.000 HD
ATOM     67   O  BGC B   5      16.562 -28.183 -19.1250  0.00  0.00     0.000 O
ATOM     69  HD  BGC B   5      16.014 -27.544 -18.9250  0.00  0.00     0.000 HD
ENDBRANCH 58 62
ENDBRANCH 45 58
ENDBRANCH 44 48
ENDBRANCH 31 44
ENDBRANCH 30 34
ENDBRANCH 17 30
ENDBRANCH 16 20
ENDBRANCH 1 16
TORSDOF 8
ENDMDL
MODEL 9
REMARK VINA RESULT:      -9.1      2.712      6.634
ROOT
ATOM      1  C1  BGC B   1      18.455  -1.049 -13.8920  0.00  0.00     0.000 C
ATOM      2  C2  BGC B   1      17.119  -0.317 -14.0120  0.00  0.00     0.000 C
ATOM      3  C3  BGC B   1      17.332   1.180 -13.8850  0.00  0.00     0.000 C
ATOM      4  C4  BGC B   1      18.126   1.507 -12.6270  0.00  0.00     0.000 C
ATOM      5  C5  BGC B   1      19.428   0.719 -12.6590  0.00  0.00     0.000 C
ATOM      6  O5  BGC B   1      19.085  -0.678 -12.6730  0.00  0.00     0.000 O
ATOM      7   O  BGC B   1      16.535  -0.605 -15.2930  0.00  0.00     0.000 O
ATOM      9  HD  BGC B   1      16.006  -0.012 -15.6360  0.00  0.00     0.000 HD
ATOM      9   O  BGC B   1      16.057   1.828 -13.8670  0.00  0.00     0.000 O
ATOM     11  HD  BGC B   1      15.528   2.421 -14.2110  0.00  0.00     0.000 HD
ATOM     11   O  BGC B   1      18.402   2.890 -12.5870  0.00  0.00     0.000 O
ATOM     13  HD  BGC B   1      17.872   3.483 -12.9300  0.00  0.00     0.000 HD
ATOM     13   C  BGC B   1      20.360   0.977 -11.4840  0.00  0.00     0.000 C
ATOM     14   O  BGC B   1      19.725   0.751 -10.2290  0.00  0.00     0.000 O
ATOM     16  HD  BGC B   1      19.196   1.344 -10.5730  0.00  0.00     0.000 HD
ENDROOT
BRANCH 1 16
ATOM     16  O4  BGC B   2      18.139  -2.431 -13.7420  0.00  0.00     0.000 O
BRANCH 16 20
ATOM     17  C1  BGC B   2      19.602  -6.149 -14.5010  0.00  0.00     0.000 C
ATOM     18  C2  BGC B   2      20.391  -5.385 -13.4480  0.00  0.00     0.000 C
ATOM     19  C3  BGC B   2      19.558  -4.189 -12.9910  0.00  0.00     0.000 C
ATOM     20  C4  BGC B   2      19.133  -3.354 -14.1810  0.00  0.00     0.000 C
ATOM     21  C5  BGC B   2      18.515  -4.198 -15.2960  0.00  0.00     0.000 C
ATOM     22  O5  BGC B   2      19.421  -5.260 -15.6190  0.00  0.00     0.000 O
ATOM     23   O  BGC B   2      20.658  -6.232 -12.3180  0.00  0.00     0.000 O
ATOM     25  HD  BGC B   2      20.089  -5.595 -12.4660  0.00  0.00     0.000 HD
ATOM     25   O  BGC B   2      20.307  -3.399 -12.0760  0.00  0.00     0.000 O
ATOM     27  HD  BGC B   2      19.739  -2.762 -12.2230  0.00  0.00     0.000 HD
ATOM     27   C  BGC B   2      18.258  -3.404 -16.5700  0.00  0.00     0.000 C
ATOM     28   O  BGC B   2      19.418  -2.769 -17.0810  0.00  0.00     0.000 O
ATOM     30  HD  BGC B   2      18.850  -2.132 -17.2280  0.00  0.00     0.000 HD
BRANCH 17 30
ATOM     30  O4  BGC B   3      20.448  -7.178 -14.9790  0.00  0.00     0.000 O
BRANCH 30 34
ATOM     31  C1  BGC B   3      19.802 -10.492 -17.3300  0.00  0.00     0.000 C
ATOM     32  C2  BGC B   3      20.679  -9.419 -17.9730  0.00  0.00     0.000 C
ATOM     33  C3  BGC B   3      21.163  -8.467 -16.8930  0.00  0.00     0.000 C
ATOM     34  C4  BGC B   3      19.973  -7.890 -16.1270  0.00  0.00     0.000 C
ATOM     35  C5  BGC B   3      19.067  -9.006 -15.6380  0.00  0.00     0.000 C
ATOM     36  O5  BGC B   3      18.690  -9.832 -16.7450  0.00  0.00     0.000 O
ATOM     37   O  BGC B   3      21.817 -10.033 -18.5760  0.00  0.00     0.000 O
ATOM     39  HD  BGC B   3      22.013  -9.272 -18.9410  0.00  0.00     0.000 HD
ATOM     39   O  BGC B   3      21.912  -7.431 -17.5100  0.00  0.00     0.000 O
ATOM     41  HD  BGC B   3      22.108  -6.670 -17.8750  0.00  0.00     0.000 HD
ATOM     41   C  BGC B   3      17.804  -8.518 -14.9400  0.00  0.00     0.000 C
ATOM     42   O  BGC B   3      17.063  -7.685 -15.8010  0.00  0.00     0.000 O
ATOM     44  HD  BGC B   3      17.259  -6.925 -16.1660  0.00  0.00     0.000 HD
BRANCH 31 44
ATOM     44  O4  BGC B   4      19.293 -11.290 -18.3680  0.00  0.00     0.000 O
BRANCH 44 48
ATOM     45  C1  BGC B   4      18.131 -15.158 -19.0710  0.00  0.00     0.000 C
ATOM     46  C2  BGC B   4      17.058 -14.271 -18.4560  0.00  0.00     0.000 C
ATOM     47  C3  BGC B   4      17.453 -12.823 -18.6090  0.00  0.00     0.000 C
ATOM     48  C4  BGC B   4      18.853 -12.590 -18.0320  0.00  0.00     0.000 C
ATOM     49  C5  BGC B   4      19.854 -13.588 -18.6270  0.00  0.00     0.000 C
ATOM     50  O5  BGC B   4      19.382 -14.928 -18.4210  0.00  0.00     0.000 O
ATOM     51   O  BGC B   4      15.799 -14.488 -19.1200  0.00  0.00     0.000 O
ATOM     53  HD  BGC B   4      16.025 -13.740 -19.4950  0.00  0.00     0.000 HD
ATOM     53   O  BGC B   4      16.500 -12.008 -17.9110  0.00  0.00     0.000 O
ATOM     55  HD  BGC B   4      16.726 -11.260 -18.2860  0.00  0.00     0.000 HD
ATOM     55   C  BGC B   4      21.247 -13.511 -18.0290  0.00  0.00     0.000 C
ATOM     56   O  BGC B   4      21.123 -13.667 -16.6140  0.00  0.00     0.000 O
ATOM     58  HD  BGC B   4      21.349 -12.919 -16.9880  0.00  0.00     0.000 HD
BRANCH 45 58
ATOM     58  O4  BGC B   5      17.820 -16.489 -18.6640  0.00  0.00     0.000 O
BRANCH 58 62
ATOM     59  C1  BGC B   5      19.730 -20.163 -18.7100  0.00  0.00     0.000 C
ATOM     60  C2  BGC B   5      20.611 -18.969 -19.0140  0.00  0.00     0.000 C
ATOM     61  C3  BGC B   5      19.938 -17.684 -18.5710  0.00  0.00     0.000 C
ATOM     62  C4  BGC B   5      18.559 -17.588 -19.2030  0.00  0.00     0.000 C
ATOM     63  C5  BGC B   5      17.746 -18.861 -18.9250  0.00  0.00     0.000 C
ATOM     64  O5  BGC B   5      18.483 -19.988 -19.3900  0.00  0.00     0.000 O
ATOM     65   O  BGC B   5      16.676 -18.715 -21.0050  0.00  0.00     0.000 O
ATOM     67  HD  BGC B   5      16.484 -18.145 -21.6290  0.00  0.00     0.000 HD
ATOM     67   O  BGC B   5      16.676 -18.715 -21.0050  0.00  0.00     0.000 O
ATOM     69  HD  BGC B   5      16.484 -18.145 -21.6290  0.00  0.00     0.000 HD
ENDBRANCH 58 62
ENDBRANCH 45 58
ENDBRANCH 44 48
ENDBRANCH 31 44
ENDBRANCH 30 34
ENDBRANCH 17 30
ENDBRANCH 16 20
ENDBRANCH 1 16
TORSDOF 8
ENDMDL
MODEL 10
REMARK VINA RESULT:      -8.9      8.674     21.999
ROOT
ATOM      1  C1  BGC B   1      17.903 -26.547 -20.8890  0.00  0.00     0.000 C
ATOM      2  C2  BGC B   1      16.795 -27.384 -20.2520  0.00  0.00     0.000 C
ATOM      3  C3  BGC B   1      17.299 -28.786 -19.9680  0.00  0.00     0.000 C
ATOM      4  C4  BGC B   1      17.919 -29.399 -21.2170  0.00  0.00     0.000 C
ATOM      5  C5  BGC B   1      19.009 -28.464 -21.7220  0.00  0.00     0.000 C
ATOM      6  O5  BGC B   1      18.382 -27.211 -22.0510  0.00  0.00     0.000 O
ATOM      7   O  BGC B   1      16.388 -26.769 -19.0180  0.00  0.00     0.000 O
ATOM      9  HD  BGC B   1      16.063 -27.282 -18.4000  0.00  0.00     0.000 HD
ATOM      9   O  BGC B   1      16.208 -29.583 -19.4970  0.00  0.00     0.000 O
ATOM     11  HD  BGC B   1      15.884 -30.096 -18.8800  0.00  0.00     0.000 HD
ATOM     11   O  BGC B   1      18.474 -30.658 -20.9020  0.00  0.00     0.000 O
ATOM     13  HD  BGC B   1      18.150 -31.171 -20.2840  0.00  0.00     0.000 HD
ATOM     13   C  BGC B   1      19.762 -28.964 -22.9470  0.00  0.00     0.000 C
ATOM     14   O  BGC B   1      18.891 -29.272 -24.0310  0.00  0.00     0.000 O
ATOM     16  HD  BGC B   1      18.567 -29.785 -23.4130  0.00  0.00     0.000 HD
ENDROOT
BRANCH 1 16
ATOM     16  O4  BGC B   2      17.278 -25.359 -21.3700  0.00  0.00     0.000 O
BRANCH 16 20
ATOM     17  C1  BGC B   2      17.927 -21.345 -21.3310  0.00  0.00     0.000 C
ATOM     18  C2  BGC B   2      18.367 -22.023 -22.6200  0.00  0.00     0.000 C
ATOM     19  C3  BGC B   2      17.753 -23.420 -22.6680  0.00  0.00     0.000 C
ATOM     20  C4  BGC B   2      18.094 -24.192 -21.4090  0.00  0.00     0.000 C
ATOM     21  C5  BGC B   2      17.809 -23.390 -20.1390  0.00  0.00     0.000 C
ATOM     22  O5  BGC B   2      18.464 -22.121 -20.2430  0.00  0.00     0.000 O
ATOM     23   O  BGC B   2      17.910 -21.270 -23.7560  0.00  0.00     0.000 O
ATOM     25  HD  BGC B   2      17.639 -21.999 -23.3750  0.00  0.00     0.000 HD
ATOM     25   O  BGC B   2      18.223 -24.117 -23.8160  0.00  0.00     0.000 O
ATOM     27  HD  BGC B   2      17.951 -24.846 -23.4350  0.00  0.00     0.000 HD
ATOM     27   C  BGC B   2      18.321 -24.074 -18.8770  0.00  0.00     0.000 C
ATOM     28   O  BGC B   2      19.708 -24.367 -18.9200  0.00  0.00     0.000 O
ATOM     30  HD  BGC B   2      19.436 -25.096 -18.5390  0.00  0.00     0.000 HD
BRANCH 17 30
ATOM     30  O4  BGC B   3      18.604 -20.104 -21.2700  0.00  0.00     0.000 O
BRANCH 30 34
ATOM     31  C1  BGC B   3      18.010 -16.271 -19.8970  0.00  0.00     0.000 C
ATOM     32  C2  BGC B   3      17.674 -17.367 -18.8860  0.00  0.00     0.000 C
ATOM     33  C3  BGC B   3      18.299 -18.671 -19.3490  0.00  0.00     0.000 C
ATOM     34  C4  BGC B   3      17.840 -19.003 -20.7680  0.00  0.00     0.000 C
ATOM     35  C5  BGC B   3      18.073 -17.818 -21.6890  0.00  0.00     0.000 C
ATOM     36  O5  BGC B   3      17.443 -16.656 -21.1390  0.00  0.00     0.000 O
ATOM     37   O  BGC B   3      18.227 -17.027 -17.6160  0.00  0.00     0.000 O
ATOM     39  HD  BGC B   3      17.787 -17.687 -17.2670  0.00  0.00     0.000 HD
ATOM     39   O  BGC B   3      17.918 -19.698 -18.4460  0.00  0.00     0.000 O
ATOM     41  HD  BGC B   3      17.478 -20.357 -18.0970  0.00  0.00     0.000 HD
ATOM     41   C  BGC B   3      17.559 -18.027 -23.1090  0.00  0.00     0.000 C
ATOM     42   O  BGC B   3      16.180 -18.315 -23.0890  0.00  0.00     0.000 O
ATOM     44  HD  BGC B   3      15.741 -18.974 -22.7400  0.00  0.00     0.000 HD
BRANCH 31 44
ATOM     44  O4  BGC B   4      17.334 -15.109 -19.4920  0.00  0.00     0.000 O
BRANCH 44 48
ATOM     45  C1  BGC B   4      17.645 -11.026 -19.6810  0.00  0.00     0.000 C
ATOM     46  C2  BGC B   4      17.203 -11.693 -20.9760  0.00  0.00     0.000 C
ATOM     47  C3  BGC B   4      16.750 -13.103 -20.6870  0.00  0.00     0.000 C
ATOM     48  C4  BGC B   4      17.845 -13.870 -19.9390  0.00  0.00     0.000 C
ATOM     49  C5  BGC B   4      18.306 -13.085 -18.7050  0.00  0.00     0.000 C
ATOM     50  O5  BGC B   4      18.717 -11.767 -19.0950  0.00  0.00     0.000 O
ATOM     51   O  BGC B   4      16.110 -10.959 -21.5610  0.00  0.00     0.000 O
ATOM     53  HD  BGC B   4      15.664 -11.617 -21.2160  0.00  0.00     0.000 HD
ATOM     53   O  BGC B   4      16.461 -13.760 -21.9290  0.00  0.00     0.000 O
ATOM     55  HD  BGC B   4      16.015 -14.418 -21.5850  0.00  0.00     0.000 HD
ATOM     55   C  BGC B   4      19.473 -13.712 -17.9620  0.00  0.00     0.000 C
ATOM     56   O  BGC B   4      20.536 -13.897 -18.8980  0.00  0.00     0.000 O
ATOM     58  HD  BGC B   4      20.090 -14.555 -18.5540  0.00  0.00     0.000 HD
BRANCH 45 58
ATOM     58  O4  BGC B   5      18.291  -9.813 -20.0670  0.00  0.00     0.000 O
BRANCH 58 62
ATOM     59  C1  BGC B   5      19.058  -6.015 -18.6060  0.00  0.00     0.000 C
ATOM     60  C2  BGC B   5      18.992  -7.112 -17.5620  0.00  0.00     0.000 C
ATOM     61  C3  BGC B   5      19.126  -8.476 -18.2130  0.00  0.00     0.000 C
ATOM     62  C4  BGC B   5      18.078  -8.623 -19.3050  0.00  0.00     0.000 C
ATOM     63  C5  BGC B   5      18.146  -7.440 -20.2830  0.00  0.00     0.000 C
ATOM     64  O5  BGC B   5      18.003  -6.228 -19.5490  0.00  0.00     0.000 O
ATOM     65   O  BGC B   5      15.826  -7.497 -20.6190  0.00  0.00     0.000 O
ATOM     67  HD  BGC B   5      15.145  -8.027 -20.5470  0.00  0.00     0.000 HD
ATOM     67   O  BGC B   5      15.826  -7.497 -20.6190  0.00  0.00     0.000 O
ATOM     69  HD  BGC B   5      15.145  -8.027 -20.5470  0.00  0.00     0.000 HD
ENDBRANCH 58 62
ENDBRANCH 45 58
ENDBRANCH 44 48
ENDBRANCH 31 44
ENDBRANCH 30 34
ENDBRANCH 17 30
ENDBRANCH 16 20
ENDBRANCH 1 16
TORSDOF 8
ENDMDL
MODEL 11
REMARK VINA RESULT:      -8.9      4.506     17.817
ROOT
ATOM      1  C1  BGC B   1      17.942 -19.932 -21.0800  0.00  0.00     0.000 C
ATOM      2  C2  BGC B   1      17.312 -21.068 -20.2760  0.00  0.00     0.000 C
ATOM      3  C3  BGC B   1      17.922 -22.395 -20.6840  0.00  0.00     0.000 C
ATOM      4  C4  BGC B   1      17.859 -22.575 -22.1950  0.00  0.00     0.000 C
ATOM      5  C5  BGC B   1      18.536 -21.380 -22.8520  0.00  0.00     0.000 C
ATOM      6  O5  BGC B   1      17.800 -20.204 -22.4670  0.00  0.00     0.000 O
ATOM      7   O  BGC B   1      17.553 -20.847 -18.8760  0.00  0.00     0.000 O
ATOM      9  HD  BGC B   1      17.587 -21.541 -18.3590  0.00  0.00     0.000 HD
ATOM      9   O  BGC B   1      17.224 -23.450 -20.0150  0.00  0.00     0.000 O
ATOM     11  HD  BGC B   1      17.258 -24.144 -19.4980  0.00  0.00     0.000 HD
ATOM     11   O  BGC B   1      18.525 -23.765 -22.5590  0.00  0.00     0.000 O
ATOM     13  HD  BGC B   1      18.560 -24.459 -22.0420  0.00  0.00     0.000 HD
ATOM     13   C  BGC B   1      18.598 -21.437 -24.3710  0.00  0.00     0.000 C
ATOM     14   O  BGC B   1      17.312 -21.609 -24.9600  0.00  0.00     0.000 O
ATOM     16  HD  BGC B   1      17.347 -22.303 -24.4430  0.00  0.00     0.000 HD
ENDROOT
BRANCH 1 16
ATOM     16  O4  BGC B   2      17.134 -18.781 -20.8430  0.00  0.00     0.000 O
BRANCH 16 20
ATOM     17  C1  BGC B   2      17.426 -14.746 -20.4240  0.00  0.00     0.000 C
ATOM     18  C2  BGC B   2      17.399 -15.210 -21.8730  0.00  0.00     0.000 C
ATOM     19  C3  BGC B   2      16.926 -16.662 -21.9080  0.00  0.00     0.000 C
ATOM     20  C4  BGC B   2      17.779 -17.519 -20.9950  0.00  0.00     0.000 C
ATOM     21  C5  BGC B   2      17.931 -16.911 -19.6000  0.00  0.00     0.000 C
ATOM     22  O5  BGC B   2      18.395 -15.562 -19.7390  0.00  0.00     0.000 O
ATOM     23   O  BGC B   2      16.488 -14.400 -22.6340  0.00  0.00     0.000 O
ATOM     25  HD  BGC B   2      16.440 -15.197 -22.2980  0.00  0.00     0.000 HD
ATOM     25   O  BGC B   2      16.982 -17.156 -23.2410  0.00  0.00     0.000 O
ATOM     27  HD  BGC B   2      16.934 -17.953 -22.9050  0.00  0.00     0.000 HD
ATOM     27   C  BGC B   2      18.935 -17.659 -18.7320  0.00  0.00     0.000 C
ATOM     28   O  BGC B   2      20.222 -17.760 -19.3200  0.00  0.00     0.000 O
ATOM     30  HD  BGC B   2      20.174 -18.556 -18.9840  0.00  0.00     0.000 HD
BRANCH 17 30
ATOM     30  O4  BGC B   3      17.974 -13.441 -20.4220  0.00  0.00     0.000 O
BRANCH 30 34
ATOM     31  C1  BGC B   3      19.068 -10.515 -17.7450  0.00  0.00     0.000 C
ATOM     32  C2  BGC B   3      20.078 -11.653 -17.8900  0.00  0.00     0.000 C
ATOM     33  C3  BGC B   3      19.766 -12.429 -19.1570  0.00  0.00     0.000 C
ATOM     34  C4  BGC B   3      18.316 -12.912 -19.1370  0.00  0.00     0.000 C
ATOM     35  C5  BGC B   3      17.377 -11.755 -18.8460  0.00  0.00     0.000 C
ATOM     36  O5  BGC B   3      17.782 -11.105 -17.6370  0.00  0.00     0.000 O
ATOM     37   O  BGC B   3      21.392 -11.110 -18.0050  0.00  0.00     0.000 O
ATOM     39  HD  BGC B   3      21.712 -11.911 -17.9280  0.00  0.00     0.000 HD
ATOM     39   O  BGC B   3      20.660 -13.528 -19.2430  0.00  0.00     0.000 O
ATOM     41  HD  BGC B   3      20.980 -14.329 -19.1660  0.00  0.00     0.000 HD
ATOM     41   C  BGC B   3      15.914 -12.162 -18.7160  0.00  0.00     0.000 C
ATOM     42   O  BGC B   3      15.766 -13.125 -17.6990  0.00  0.00     0.000 O
ATOM     44  HD  BGC B   3      16.086 -13.926 -17.6220  0.00  0.00     0.000 HD
BRANCH 31 44
ATOM     44  O4  BGC B   4      19.324  -9.887 -16.5150  0.00  0.00     0.000 O
BRANCH 44 48
ATOM     45  C1  BGC B   4      19.247  -6.146 -14.8390  0.00  0.00     0.000 C
ATOM     46  C2  BGC B   4      17.920  -6.891 -14.7980  0.00  0.00     0.000 C
ATOM     47  C3  BGC B   4      18.157  -8.357 -15.0690  0.00  0.00     0.000 C
ATOM     48  C4  BGC B   4      18.927  -8.537 -16.3810  0.00  0.00     0.000 C
ATOM     49  C5  BGC B   4      20.196  -7.676 -16.3840  0.00  0.00     0.000 C
ATOM     50  O5  BGC B   4      19.854  -6.307 -16.1220  0.00  0.00     0.000 O
ATOM     51   O  BGC B   4      17.313  -6.746 -13.5000  0.00  0.00     0.000 O
ATOM     53  HD  BGC B   4      17.624  -7.549 -13.4160  0.00  0.00     0.000 HD
ATOM     53   O  BGC B   4      16.889  -9.022 -15.1560  0.00  0.00     0.000 O
ATOM     55  HD  BGC B   4      17.200  -9.826 -15.0720  0.00  0.00     0.000 HD
ATOM     55   C  BGC B   4      20.967  -7.699 -17.6910  0.00  0.00     0.000 C
ATOM     56   O  BGC B   4      20.068  -7.317 -18.7340  0.00  0.00     0.000 O
ATOM     58  HD  BGC B   4      20.379  -8.121 -18.6500  0.00  0.00     0.000 HD
BRANCH 45 58
ATOM     58  O4  BGC B   5      18.916  -4.758 -14.8340  0.00  0.00     0.000 O
BRANCH 58 62
ATOM     59  C1  BGC B   5      20.564  -1.013 -14.1970  0.00  0.00     0.000 C
ATOM     60  C2  BGC B   5      21.309  -1.892 -15.1810  0.00  0.00     0.000 C
ATOM     61  C3  BGC B   5      20.426  -3.033 -15.6500  0.00  0.00     0.000 C
ATOM     62  C4  BGC B   5      19.898  -3.795 -14.4450  0.00  0.00     0.000 C
ATOM     63  C5  BGC B   5      19.226  -2.838 -13.4510  0.00  0.00     0.000 C
ATOM     64  O5  BGC B   5      20.157  -1.822 -13.0890  0.00  0.00     0.000 O
ATOM     65   O  BGC B   5      19.938  -4.125 -11.6250  0.00  0.00     0.000 O
ATOM     67  HD  BGC B   5      20.202  -4.924 -11.4230  0.00  0.00     0.000 HD
ATOM     67   O  BGC B   5      19.938  -4.125 -11.6250  0.00  0.00     0.000 O
ATOM     69  HD  BGC B   5      20.202  -4.924 -11.4230  0.00  0.00     0.000 HD
ENDBRANCH 58 62
ENDBRANCH 45 58
ENDBRANCH 44 48
ENDBRANCH 31 44
ENDBRANCH 30 34
ENDBRANCH 17 30
ENDBRANCH 16 20
ENDBRANCH 1 16
TORSDOF 8
ENDMDL
MODEL 12
REMARK VINA RESULT:      -8.9      2.216     14.656
ROOT
ATOM      1  C1  BGC B   1      18.768 -11.408 -17.4350  0.00  0.00     0.000 C
ATOM      2  C2  BGC B   1      17.658 -11.967 -18.3240  0.00  0.00     0.000 C
ATOM      3  C3  BGC B   1      17.511 -13.459 -18.0980  0.00  0.00     0.000 C
ATOM      4  C4  BGC B   1      18.855 -14.161 -18.2420  0.00  0.00     0.000 C
ATOM      5  C5  BGC B   1      19.845 -13.508 -17.2890  0.00  0.00     0.000 C
ATOM      6  O5  BGC B   1      19.969 -12.127 -17.6770  0.00  0.00     0.000 O
ATOM      7   O  BGC B   1      16.419 -11.314 -18.0010  0.00  0.00     0.000 O
ATOM      9  HD  BGC B   1      15.685 -11.753 -18.1390  0.00  0.00     0.000 HD
ATOM      9   O  BGC B   1      16.562 -13.977 -19.0350  0.00  0.00     0.000 O
ATOM     11  HD  BGC B   1      15.828 -14.416 -19.1730  0.00  0.00     0.000 HD
ATOM     11   O  BGC B   1      18.712 -15.528 -17.9230  0.00  0.00     0.000 O
ATOM     13  HD  BGC B   1      17.978 -15.967 -18.0620  0.00  0.00     0.000 HD
ATOM     13   C  BGC B   1      21.232 -14.134 -17.2800  0.00  0.00     0.000 C
ATOM     14   O  BGC B   1      21.816 -14.178 -18.5780  0.00  0.00     0.000 O
ATOM     16  HD  BGC B   1      21.082 -14.617 -18.7170  0.00  0.00     0.000 HD
ENDROOT
BRANCH 1 16
ATOM     16  O4  BGC B   2      19.026 -10.086 -17.9040  0.00  0.00     0.000 O
BRANCH 16 20
ATOM     17  C1  BGC B   2      20.311  -6.437 -16.6480  0.00  0.00     0.000 C
ATOM     18  C2  BGC B   2      21.386  -7.513 -16.6050  0.00  0.00     0.000 C
ATOM     19  C3  BGC B   2      20.908  -8.710 -17.4240  0.00  0.00     0.000 C
ATOM     20  C4  BGC B   2      19.547  -9.170 -16.9440  0.00  0.00     0.000 C
ATOM     21  C5  BGC B   2      18.551  -8.016 -16.8220  0.00  0.00     0.000 C
ATOM     22  O5  BGC B   2      19.140  -6.989 -16.0160  0.00  0.00     0.000 O
ATOM     23   O  BGC B   2      22.608  -7.012 -17.1730  0.00  0.00     0.000 O
ATOM     25  HD  BGC B   2      21.986  -7.538 -17.4660  0.00  0.00     0.000 HD
ATOM     25   O  BGC B   2      21.851  -9.771 -17.3250  0.00  0.00     0.000 O
ATOM     27  HD  BGC B   2      21.228 -10.297 -17.6180  0.00  0.00     0.000 HD
ATOM     27   C  BGC B   2      17.241  -8.430 -16.1640  0.00  0.00     0.000 C
ATOM     28   O  BGC B   2      17.415  -9.008 -14.8800  0.00  0.00     0.000 O
ATOM     30  HD  BGC B   2      16.792  -9.534 -15.1730  0.00  0.00     0.000 HD
BRANCH 17 30
ATOM     30  O4  BGC B   3      20.738  -5.397 -15.7900  0.00  0.00     0.000 O
BRANCH 30 34
ATOM     31  C1  BGC B   3      19.507  -1.673 -14.5460  0.00  0.00     0.000 C
ATOM     32  C2  BGC B   3      18.811  -2.839 -13.8440  0.00  0.00     0.000 C
ATOM     33  C3  BGC B   3      19.612  -4.106 -14.0860  0.00  0.00     0.000 C
ATOM     34  C4  BGC B   3      19.801  -4.334 -15.5850  0.00  0.00     0.000 C
ATOM     35  C5  BGC B   3      20.363  -3.087 -16.2430  0.00  0.00     0.000 C
ATOM     36  O5  BGC B   3      19.525  -1.967 -15.9340  0.00  0.00     0.000 O
ATOM     37   O  BGC B   3      18.769  -2.592 -12.4410  0.00  0.00     0.000 O
ATOM     39  HD  BGC B   3      18.244  -3.275 -12.3530  0.00  0.00     0.000 HD
ATOM     39   O  BGC B   3      18.918  -5.195 -13.4960  0.00  0.00     0.000 O
ATOM     41  HD  BGC B   3      18.393  -5.878 -13.4090  0.00  0.00     0.000 HD
ATOM     41   C  BGC B   3      20.499  -3.193 -17.7580  0.00  0.00     0.000 C
ATOM     42   O  BGC B   3      19.249  -3.481 -18.3380  0.00  0.00     0.000 O
ATOM     44  HD  BGC B   3      18.723  -4.164 -18.2510  0.00  0.00     0.000 HD
BRANCH 31 44
ATOM     44  O4  BGC B   4      18.687  -0.543 -14.3880  0.00  0.00     0.000 O
BRANCH 44 48
ATOM     45  C1  BGC B   4      18.915   3.484 -13.6560  0.00  0.00     0.000 C
ATOM     46  C2  BGC B   4      19.499   3.044 -14.9910  0.00  0.00     0.000 C
ATOM     47  C3  BGC B   4      19.016   1.652 -15.3180  0.00  0.00     0.000 C
ATOM     48  C4  BGC B   4      19.327   0.696 -14.1620  0.00  0.00     0.000 C
ATOM     49  C5  BGC B   4      18.794   1.260 -12.8390  0.00  0.00     0.000 C
ATOM     50  O5  BGC B   4      19.319   2.579 -12.6280  0.00  0.00     0.000 O
ATOM     51   O  BGC B   4      19.080   3.944 -16.0340  0.00  0.00     0.000 O
ATOM     53  HD  BGC B   4      18.540   3.286 -16.1960  0.00  0.00     0.000 HD
ATOM     53   O  BGC B   4      19.677   1.202 -16.5100  0.00  0.00     0.000 O
ATOM     55  HD  BGC B   4      19.137   0.544 -16.6710  0.00  0.00     0.000 HD
ATOM     55   C  BGC B   4      19.155   0.437 -11.6160  0.00  0.00     0.000 C
ATOM     56   O  BGC B   4      20.577   0.291 -11.5930  0.00  0.00     0.000 O
ATOM     58  HD  BGC B   4      20.037  -0.367 -11.7550  0.00  0.00     0.000 HD
BRANCH 45 58
ATOM     58  O4  BGC B   5      19.610   4.677 -13.2990  0.00  0.00     0.000 O
BRANCH 58 62
ATOM     59  C1  BGC B   5      19.061   7.962 -10.8380  0.00  0.00     0.000 C
ATOM     60  C2  BGC B   5      18.241   6.738 -10.4810  0.00  0.00     0.000 C
ATOM     61  C3  BGC B   5      18.808   5.503 -11.1550  0.00  0.00     0.000 C
ATOM     62  C4  BGC B   5      18.908   5.742 -12.6530  0.00  0.00     0.000 C
ATOM     63  C5  BGC B   5      19.681   7.037 -12.9440  0.00  0.00     0.000 C
ATOM     64  O5  BGC B   5      19.047   8.114 -12.2610  0.00  0.00     0.000 O
ATOM     65   O  BGC B   5      18.366   7.477 -14.8350  0.00  0.00     0.000 O
ATOM     67  HD  BGC B   5      17.852   7.081 -15.4080  0.00  0.00     0.000 HD
ATOM     67   O  BGC B   5      18.366   7.477 -14.8350  0.00  0.00     0.000 O
ATOM     69  HD  BGC B   5      17.852   7.081 -15.4080  0.00  0.00     0.000 HD
ENDBRANCH 58 62
ENDBRANCH 45 58
ENDBRANCH 44 48
ENDBRANCH 31 44
ENDBRANCH 30 34
ENDBRANCH 17 30
ENDBRANCH 16 20
ENDBRANCH 1 16
TORSDOF 8
ENDMDL
MODEL 13
REMARK VINA RESULT:      -8.8      1.708     14.707
ROOT
ATOM      1  C1  BGC B   1      17.824 -10.189 -19.6170  0.00  0.00     0.000 C
ATOM      2  C2  BGC B   1      18.765 -10.867 -20.6120  0.00  0.00     0.000 C
ATOM      3  C3  BGC B   1      18.036 -11.975 -21.3470  0.00  0.00     0.000 C
ATOM      4  C4  BGC B   1      17.363 -12.923 -20.3620  0.00  0.00     0.000 C
ATOM      5  C5  BGC B   1      16.452 -12.109 -19.4550  0.00  0.00     0.000 C
ATOM      6  O5  BGC B   1      17.280 -11.170 -18.7450  0.00  0.00     0.000 O
ATOM      7   O  BGC B   1      19.228  -9.894 -21.5630  0.00  0.00     0.000 O
ATOM      9  HD  BGC B   1      19.449 -10.175 -22.3520  0.00  0.00     0.000 HD
ATOM      9   O  BGC B   1      18.972 -12.677 -22.1710  0.00  0.00     0.000 O
ATOM     11  HD  BGC B   1      19.192 -12.958 -22.9600  0.00  0.00     0.000 HD
ATOM     11   O  BGC B   1      16.606 -13.881 -21.0690  0.00  0.00     0.000 O
ATOM     13  HD  BGC B   1      16.826 -14.163 -21.8580  0.00  0.00     0.000 HD
ATOM     13   C  BGC B   1      15.665 -12.925 -18.4400  0.00  0.00     0.000 C
ATOM     14   O  BGC B   1      16.508 -13.735 -17.6260  0.00  0.00     0.000 O
ATOM     16  HD  BGC B   1      16.728 -14.016 -18.4150  0.00  0.00     0.000 HD
ENDROOT
BRANCH 1 16
ATOM     16  O4  BGC B   2      18.644  -9.368 -18.7890  0.00  0.00     0.000 O
BRANCH 16 20
ATOM     17  C1  BGC B   2      18.580  -5.930 -16.6170  0.00  0.00     0.000 C
ATOM     18  C2  BGC B   2      17.605  -6.987 -16.1180  0.00  0.00     0.000 C
ATOM     19  C3  BGC B   2      17.972  -8.325 -16.7570  0.00  0.00     0.000 C
ATOM     20  C4  BGC B   2      18.030  -8.193 -18.2650  0.00  0.00     0.000 C
ATOM     21  C5  BGC B   2      18.872  -6.998 -18.7140  0.00  0.00     0.000 C
ATOM     22  O5  BGC B   2      18.394  -5.826 -18.0410  0.00  0.00     0.000 O
ATOM     23   O  BGC B   2      17.697  -7.107 -14.6890  0.00  0.00     0.000 O
ATOM     25  HD  BGC B   2      17.995  -7.583 -15.3480  0.00  0.00     0.000 HD
ATOM     25   O  BGC B   2      17.021  -9.315 -16.3850  0.00  0.00     0.000 O
ATOM     27  HD  BGC B   2      17.319  -9.791 -17.0440  0.00  0.00     0.000 HD
ATOM     27   C  BGC B   2      18.786  -6.740 -20.2130  0.00  0.00     0.000 C
ATOM     28   O  BGC B   2      17.459  -6.552 -20.6760  0.00  0.00     0.000 O
ATOM     30  HD  BGC B   2      17.757  -7.028 -21.3350  0.00  0.00     0.000 HD
BRANCH 17 30
ATOM     30  O4  BGC B   3      18.142  -4.690 -16.0960  0.00  0.00     0.000 O
BRANCH 30 34
ATOM     31  C1  BGC B   3      19.659  -1.060 -14.8920  0.00  0.00     0.000 C
ATOM     32  C2  BGC B   3      19.764  -1.326 -16.3940  0.00  0.00     0.000 C
ATOM     33  C3  BGC B   3      18.837  -2.473 -16.7560  0.00  0.00     0.000 C
ATOM     34  C4  BGC B   3      19.158  -3.701 -15.9050  0.00  0.00     0.000 C
ATOM     35  C5  BGC B   3      19.178  -3.333 -14.4320  0.00  0.00     0.000 C
ATOM     36  O5  BGC B   3      20.079  -2.240 -14.2260  0.00  0.00     0.000 O
ATOM     37   O  BGC B   3      19.350  -0.166 -17.1120  0.00  0.00     0.000 O
ATOM     39  HD  BGC B   3      19.635  -0.536 -17.8410  0.00  0.00     0.000 HD
ATOM     39   O  BGC B   3      18.998  -2.763 -18.1360  0.00  0.00     0.000 O
ATOM     41  HD  BGC B   3      19.283  -3.133 -18.8660  0.00  0.00     0.000 HD
ATOM     41   C  BGC B   3      19.580  -4.480 -13.5120  0.00  0.00     0.000 C
ATOM     42   O  BGC B   3      20.853  -4.965 -13.8690  0.00  0.00     0.000 O
ATOM     44  HD  BGC B   3      21.138  -5.334 -14.5990  0.00  0.00     0.000 HD
BRANCH 31 44
ATOM     44  O4  BGC B   4      20.602  -0.068 -14.5790  0.00  0.00     0.000 O
BRANCH 44 48
ATOM     45  C1  BGC B   4      21.068   3.144 -12.0750  0.00  0.00     0.000 C
ATOM     46  C2  BGC B   4      21.413   1.797 -11.4550  0.00  0.00     0.000 C
ATOM     47  C3  BGC B   4      21.585   0.771 -12.5480  0.00  0.00     0.000 C
ATOM     48  C4  BGC B   4      20.345   0.738 -13.4470  0.00  0.00     0.000 C
ATOM     49  C5  BGC B   4      20.005   2.148 -13.9470  0.00  0.00     0.000 C
ATOM     50  O5  BGC B   4      19.860   3.036 -12.8290  0.00  0.00     0.000 O
ATOM     51   O  BGC B   4      22.640   1.898 -10.7080  0.00  0.00     0.000 O
ATOM     53  HD  BGC B   4      22.944   1.509 -11.4190  0.00  0.00     0.000 HD
ATOM     53   O  BGC B   4      21.780  -0.517 -11.9460  0.00  0.00     0.000 O
ATOM     55  HD  BGC B   4      22.084  -0.906 -12.6570  0.00  0.00     0.000 HD
ATOM     55   C  BGC B   4      18.721   2.235 -14.7530  0.00  0.00     0.000 C
ATOM     56   O  BGC B   4      17.669   1.689 -13.9560  0.00  0.00     0.000 O
ATOM     58  HD  BGC B   4      17.973   1.299 -14.6670  0.00  0.00     0.000 HD
BRANCH 45 58
ATOM     58  O4  BGC B   5      20.672   3.983 -10.9900  0.00  0.00     0.000 O
BRANCH 58 62
ATOM     59  C1  BGC B   5      19.328   7.805 -10.1330  0.00  0.00     0.000 C
ATOM     60  C2  BGC B   5      18.391   6.959 -10.9720  0.00  0.00     0.000 C
ATOM     61  C3  BGC B   5      18.767   5.493 -10.8750  0.00  0.00     0.000 C
ATOM     62  C4  BGC B   5      20.230   5.318 -11.2490  0.00  0.00     0.000 C
ATOM     63  C5  BGC B   5      21.117   6.259 -10.4210  0.00  0.00     0.000 C
ATOM     64  O5  BGC B   5      20.664   7.596 -10.6020  0.00  0.00     0.000 O
ATOM     65   O  BGC B   5      22.610   6.533 -12.2080  0.00  0.00     0.000 O
ATOM     67  HD  BGC B   5      22.864   6.152 -12.9420  0.00  0.00     0.000 HD
ATOM     67   O  BGC B   5      22.610   6.533 -12.2080  0.00  0.00     0.000 O
ATOM     69  HD  BGC B   5      22.864   6.152 -12.9420  0.00  0.00     0.000 HD
ENDBRANCH 58 62
ENDBRANCH 45 58
ENDBRANCH 44 48
ENDBRANCH 31 44
ENDBRANCH 30 34
ENDBRANCH 17 30
ENDBRANCH 16 20
ENDBRANCH 1 16
TORSDOF 8
ENDMDL
MODEL 14
REMARK VINA RESULT:      -8.8      1.888     14.914
ROOT
ATOM      1  C1  BGC B   1      18.636  -7.566 -17.1370  0.00  0.00     0.000 C
ATOM      2  C2  BGC B   1      17.596  -8.670 -16.9560  0.00  0.00     0.000 C
ATOM      3  C3  BGC B   1      18.027  -9.919 -17.7010  0.00  0.00     0.000 C
ATOM      4  C4  BGC B   1      18.361  -9.593 -19.1510  0.00  0.00     0.000 C
ATOM      5  C5  BGC B   1      19.415  -8.495 -19.1670  0.00  0.00     0.000 C
ATOM      6  O5  BGC B   1      18.843  -7.341 -18.5250  0.00  0.00     0.000 O
ATOM      7   O  BGC B   1      17.468  -8.974 -15.5570  0.00  0.00     0.000 O
ATOM      9  HD  BGC B   1      17.219  -9.775 -15.3400  0.00  0.00     0.000 HD
ATOM      9   O  BGC B   1      16.977 -10.888 -17.6250  0.00  0.00     0.000 O
ATOM     11  HD  BGC B   1      16.728 -11.688 -17.4080  0.00  0.00     0.000 HD
ATOM     11   O  BGC B   1      18.859 -10.747 -19.7930  0.00  0.00     0.000 O
ATOM     13  HD  BGC B   1      18.610 -11.548 -19.5760  0.00  0.00     0.000 HD
ATOM     13   C  BGC B   1      19.893  -8.090 -20.5540  0.00  0.00     0.000 C
ATOM     14   O  BGC B   1      18.820  -7.701 -21.4060  0.00  0.00     0.000 O
ATOM     16  HD  BGC B   1      18.571  -8.501 -21.1890  0.00  0.00     0.000 HD
ENDROOT
BRANCH 1 16
ATOM     16  O4  BGC B   2      18.033  -6.368 -16.6520  0.00  0.00     0.000 O
BRANCH 16 20
ATOM     17  C1  BGC B   2      18.934  -2.586 -15.4570  0.00  0.00     0.000 C
ATOM     18  C2  BGC B   2      19.203  -2.842 -16.9330  0.00  0.00     0.000 C
ATOM     19  C3  BGC B   2      18.501  -4.136 -17.3370  0.00  0.00     0.000 C
ATOM     20  C4  BGC B   2      18.914  -5.271 -16.4230  0.00  0.00     0.000 C
ATOM     21  C5  BGC B   2      18.804  -4.897 -14.9440  0.00  0.00     0.000 C
ATOM     22  O5  BGC B   2      19.524  -3.677 -14.7270  0.00  0.00     0.000 O
ATOM     23   O  BGC B   2      18.687  -1.759 -17.7240  0.00  0.00     0.000 O
ATOM     25  HD  BGC B   2      18.408  -2.562 -17.5570  0.00  0.00     0.000 HD
ATOM     25   O  BGC B   2      18.812  -4.454 -18.6890  0.00  0.00     0.000 O
ATOM     27  HD  BGC B   2      18.534  -5.257 -18.5220  0.00  0.00     0.000 HD
ATOM     27   C  BGC B   2      19.392  -5.954 -14.0180  0.00  0.00     0.000 C
ATOM     28   O  BGC B   2      20.747  -6.260 -14.3030  0.00  0.00     0.000 O
ATOM     30  HD  BGC B   2      20.469  -7.063 -14.1360  0.00  0.00     0.000 HD
BRANCH 17 30
ATOM     30  O4  BGC B   3      19.690  -1.446 -15.0940  0.00  0.00     0.000 O
BRANCH 30 34
ATOM     31  C1  BGC B   3      19.447   1.760 -12.5280  0.00  0.00     0.000 C
ATOM     32  C2  BGC B   3      19.948   0.468 -11.8840  0.00  0.00     0.000 C
ATOM     33  C3  BGC B   3      20.368  -0.496 -12.9790  0.00  0.00     0.000 C
ATOM     34  C4  BGC B   3      19.214  -0.721 -13.9560  0.00  0.00     0.000 C
ATOM     35  C5  BGC B   3      18.671   0.609 -14.4470  0.00  0.00     0.000 C
ATOM     36  O5  BGC B   3      18.321   1.425 -13.3240  0.00  0.00     0.000 O
ATOM     37   O  BGC B   3      21.085   0.752 -11.0720  0.00  0.00     0.000 O
ATOM     39  HD  BGC B   3      21.045  -0.056 -10.7630  0.00  0.00     0.000 HD
ATOM     39   O  BGC B   3      20.758  -1.720 -12.3750  0.00  0.00     0.000 O
ATOM     41  HD  BGC B   3      20.718  -2.528 -12.0660  0.00  0.00     0.000 HD
ATOM     41   C  BGC B   3      17.455   0.483 -15.3580  0.00  0.00     0.000 C
ATOM     42   O  BGC B   3      16.421  -0.205 -14.6950  0.00  0.00     0.000 O
ATOM     44  HD  BGC B   3      16.381  -1.013 -14.3860  0.00  0.00     0.000 HD
BRANCH 31 44
ATOM     44  O4  BGC B   4      18.974   2.584 -11.4940  0.00  0.00     0.000 O
BRANCH 44 48
ATOM     45  C1  BGC B   4      18.617   6.557 -10.5480  0.00  0.00     0.000 C
ATOM     46  C2  BGC B   4      17.509   6.011 -11.4370  0.00  0.00     0.000 C
ATOM     47  C3  BGC B   4      17.524   4.503 -11.3910  0.00  0.00     0.000 C
ATOM     48  C4  BGC B   4      18.917   3.974 -11.7440  0.00  0.00     0.000 C
ATOM     49  C5  BGC B   4      19.986   4.647 -10.8750  0.00  0.00     0.000 C
ATOM     50  O5  BGC B   4      19.884   6.073 -10.9990  0.00  0.00     0.000 O
ATOM     51   O  BGC B   4      16.229   6.483 -10.9760  0.00  0.00     0.000 O
ATOM     53  HD  BGC B   4      16.200   5.677 -10.6590  0.00  0.00     0.000 HD
ATOM     53   O  BGC B   4      16.562   4.002 -12.3310  0.00  0.00     0.000 O
ATOM     55  HD  BGC B   4      16.534   3.196 -12.0140  0.00  0.00     0.000 HD
ATOM     55   C  BGC B   4      21.413   4.272 -11.2320  0.00  0.00     0.000 C
ATOM     56   O  BGC B   4      21.604   4.557 -12.6190  0.00  0.00     0.000 O
ATOM     58  HD  BGC B   4      21.576   3.751 -12.3020  0.00  0.00     0.000 HD
BRANCH 45 58
ATOM     58  O4  BGC B   5      18.704   7.951 -10.8440  0.00  0.00     0.000 O
BRANCH 58 62
ATOM     59  C1  BGC B   5      19.414  11.623  -9.0660  0.00  0.00     0.000 C
ATOM     60  C2  BGC B   5      20.446  10.551  -8.7780  0.00  0.00     0.000 C
ATOM     61  C3  BGC B   5      20.329   9.416  -9.7780  0.00  0.00     0.000 C
ATOM     62  C4  BGC B   5      18.902   8.890  -9.7840  0.00  0.00     0.000 C
ATOM     63  C5  BGC B   5      17.904  10.036 -10.0010  0.00  0.00     0.000 C
ATOM     64  O5  BGC B   5      18.115  11.026  -9.0000  0.00  0.00     0.000 O
ATOM     65   O  BGC B   5      16.313   9.000  -8.6250  0.00  0.00     0.000 O
ATOM     67  HD  BGC B   5      16.097   8.225  -8.3040  0.00  0.00     0.000 HD
ATOM     67   O  BGC B   5      16.313   9.000  -8.6250  0.00  0.00     0.000 O
ATOM     69  HD  BGC B   5      16.097   8.225  -8.3040  0.00  0.00     0.000 HD
ENDBRANCH 58 62
ENDBRANCH 45 58
ENDBRANCH 44 48
ENDBRANCH 31 44
ENDBRANCH 30 34
ENDBRANCH 17 30
ENDBRANCH 16 20
ENDBRANCH 1 16
TORSDOF 8
ENDMDL
MODEL 15
REMARK VINA RESULT:      -8.8      4.990     10.919
ROOT
ATOM      1  C1  BGC B   1      19.805  -5.463 -14.6940  0.00  0.00     0.000 C
ATOM      2  C2  BGC B   1      18.575  -4.659 -14.2780  0.00  0.00     0.000 C
ATOM      3  C3  BGC B   1      18.990  -3.280 -13.8020  0.00  0.00     0.000 C
ATOM      4  C4  BGC B   1      20.073  -3.383 -12.7350  0.00  0.00     0.000 C
ATOM      5  C5  BGC B   1      21.231  -4.193 -13.3000  0.00  0.00     0.000 C
ATOM      6  O5  BGC B   1      20.726  -5.504 -13.6130  0.00  0.00     0.000 O
ATOM      7   O  BGC B   1      17.694  -4.524 -15.4060  0.00  0.00     0.000 O
ATOM      9  HD  BGC B   1      17.178  -3.828 -15.4330  0.00  0.00     0.000 HD
ATOM      9   O  BGC B   1      17.839  -2.600 -13.2950  0.00  0.00     0.000 O
ATOM     11  HD  BGC B   1      17.323  -1.904 -13.3220  0.00  0.00     0.000 HD
ATOM     11   O  BGC B   1      20.517  -2.090 -12.3850  0.00  0.00     0.000 O
ATOM     13  HD  BGC B   1      20.001  -1.395 -12.4120  0.00  0.00     0.000 HD
ATOM     13   C  BGC B   1      22.421  -4.344 -12.3640  0.00  0.00     0.000 C
ATOM     14   O  BGC B   1      22.053  -4.897 -11.1040  0.00  0.00     0.000 O
ATOM     16  HD  BGC B   1      21.538  -4.202 -11.1310  0.00  0.00     0.000 HD
ENDROOT
BRANCH 1 16
ATOM     16  O4  BGC B   2      19.364  -6.810 -14.8580  0.00  0.00     0.000 O
BRANCH 16 20
ATOM     17  C1  BGC B   2      19.628  -9.968 -17.4060  0.00  0.00     0.000 C
ATOM     18  C2  BGC B   2      20.909  -9.699 -16.6310  0.00  0.00     0.000 C
ATOM     19  C3  BGC B   2      20.587  -8.758 -15.4730  0.00  0.00     0.000 C
ATOM     20  C4  BGC B   2      19.892  -7.511 -15.9810  0.00  0.00     0.000 C
ATOM     21  C5  BGC B   2      18.721  -7.834 -16.9110  0.00  0.00     0.000 C
ATOM     22  O5  BGC B   2      19.190  -8.707 -17.9460  0.00  0.00     0.000 O
ATOM     23   O  BGC B   2      21.437 -10.928 -16.1060  0.00  0.00     0.000 O
ATOM     25  HD  BGC B   2      20.996 -10.270 -15.7560  0.00  0.00     0.000 HD
ATOM     25   O  BGC B   2      21.783  -8.409 -14.7850  0.00  0.00     0.000 O
ATOM     27  HD  BGC B   2      21.342  -7.751 -14.4350  0.00  0.00     0.000 HD
ATOM     27   C  BGC B   2      18.133  -6.597 -17.5780  0.00  0.00     0.000 C
ATOM     28   O  BGC B   2      19.088  -5.843 -18.3060  0.00  0.00     0.000 O
ATOM     30  HD  BGC B   2      18.648  -5.185 -17.9550  0.00  0.00     0.000 HD
BRANCH 17 30
ATOM     30  O4  BGC B   3      19.986 -10.748 -18.5310  0.00  0.00     0.000 O
BRANCH 30 34
ATOM     31  C1  BGC B   3      18.390 -13.614 -21.0140  0.00  0.00     0.000 C
ATOM     32  C2  BGC B   3      17.788 -12.220 -21.1860  0.00  0.00     0.000 C
ATOM     33  C3  BGC B   3      18.707 -11.204 -20.5300  0.00  0.00     0.000 C
ATOM     34  C4  BGC B   3      18.950 -11.578 -19.0680  0.00  0.00     0.000 C
ATOM     35  C5  BGC B   3      19.410 -13.021 -18.9600  0.00  0.00     0.000 C
ATOM     36  O5  BGC B   3      18.466 -13.872 -19.6210  0.00  0.00     0.000 O
ATOM     37   O  BGC B   3      17.692 -11.911 -22.5740  0.00  0.00     0.000 O
ATOM     39  HD  BGC B   3      17.230 -11.208 -22.3690  0.00  0.00     0.000 HD
ATOM     39   O  BGC B   3      18.103  -9.923 -20.6260  0.00  0.00     0.000 O
ATOM     41  HD  BGC B   3      17.641  -9.220 -20.4210  0.00  0.00     0.000 HD
ATOM     41   C  BGC B   3      19.589 -13.509 -17.5270  0.00  0.00     0.000 C
ATOM     42   O  BGC B   3      18.384 -13.368 -16.8120  0.00  0.00     0.000 O
ATOM     44  HD  BGC B   3      17.922 -12.665 -16.6070  0.00  0.00     0.000 HD
BRANCH 31 44
ATOM     44  O4  BGC B   4      17.467 -14.533 -21.5400  0.00  0.00     0.000 O
BRANCH 44 48
ATOM     45  C1  BGC B   4      17.347 -18.244 -23.2780  0.00  0.00     0.000 C
ATOM     46  C2  BGC B   4      17.460 -18.254 -21.7600  0.00  0.00     0.000 C
ATOM     47  C3  BGC B   4      17.102 -16.891 -21.2200  0.00  0.00     0.000 C
ATOM     48  C4  BGC B   4      17.953 -15.811 -21.8960  0.00  0.00     0.000 C
ATOM     49  C5  BGC B   4      17.865 -15.933 -23.4220  0.00  0.00     0.000 C
ATOM     50  O5  BGC B   4      18.230 -17.262 -23.8240  0.00  0.00     0.000 O
ATOM     51   O  BGC B   4      16.558 -19.230 -21.2040  0.00  0.00     0.000 O
ATOM     53  HD  BGC B   4      16.101 -18.513 -21.0410  0.00  0.00     0.000 HD
ATOM     53   O  BGC B   4      17.339 -16.878 -19.8050  0.00  0.00     0.000 O
ATOM     55  HD  BGC B   4      16.881 -16.161 -19.6410  0.00  0.00     0.000 HD
ATOM     55   C  BGC B   4      18.768 -14.977 -24.1810  0.00  0.00     0.000 C
ATOM     56   O  BGC B   4      20.103 -15.174 -23.7110  0.00  0.00     0.000 O
ATOM     58  HD  BGC B   4      19.646 -14.457 -23.5480  0.00  0.00     0.000 HD
BRANCH 45 58
ATOM     58  O4  BGC B   5      17.940 -19.463 -23.7220  0.00  0.00     0.000 O
BRANCH 58 62
ATOM     59  C1  BGC B   5      18.984 -21.525 -27.1580  0.00  0.00     0.000 C
ATOM     60  C2  BGC B   5      19.797 -20.279 -26.8760  0.00  0.00     0.000 C
ATOM     61  C3  BGC B   5      19.629 -19.849 -25.4310  0.00  0.00     0.000 C
ATOM     62  C4  BGC B   5      18.151 -19.683 -25.1190  0.00  0.00     0.000 C
ATOM     63  C5  BGC B   5      17.372 -20.950 -25.5010  0.00  0.00     0.000 C
ATOM     64  O5  BGC B   5      17.610 -21.240 -26.8740  0.00  0.00     0.000 O
ATOM     65   O  BGC B   5      15.488 -19.692 -26.1040  0.00  0.00     0.000 O
ATOM     67  HD  BGC B   5      15.120 -18.919 -25.9730  0.00  0.00     0.000 HD
ATOM     67   O  BGC B   5      15.488 -19.692 -26.1040  0.00  0.00     0.000 O
ATOM     69  HD  BGC B   5      15.120 -18.919 -25.9730  0.00  0.00     0.000 HD
ENDBRANCH 58 62
ENDBRANCH 45 58
ENDBRANCH 44 48
ENDBRANCH 31 44
ENDBRANCH 30 34
ENDBRANCH 17 30
ENDBRANCH 16 20
ENDBRANCH 1 16
TORSDOF 8
ENDMDL
MODEL 16
REMARK VINA RESULT:      -8.7      8.848     22.268
ROOT
ATOM      1  C1  BGC B   1      18.314 -27.197 -20.4140  0.00  0.00     0.000 C
ATOM      2  C2  BGC B   1      17.269 -28.311 -20.3750  0.00  0.00     0.000 C
ATOM      3  C3  BGC B   1      17.944 -29.663 -20.5060  0.00  0.00     0.000 C
ATOM      4  C4  BGC B   1      18.860 -29.693 -21.7230  0.00  0.00     0.000 C
ATOM      5  C5  BGC B   1      19.848 -28.541 -21.6110  0.00  0.00     0.000 C
ATOM      6  O5  BGC B   1      19.086 -27.320 -21.6000  0.00  0.00     0.000 O
ATOM      7   O  BGC B   1      16.563 -28.254 -19.1250  0.00  0.00     0.000 O
ATOM      9  HD  BGC B   1      16.228 -28.992 -18.8170  0.00  0.00     0.000 HD
ATOM      9   O  BGC B   1      16.938 -30.675 -20.6010  0.00  0.00     0.000 O
ATOM     11  HD  BGC B   1      16.603 -31.413 -20.2940  0.00  0.00     0.000 HD
ATOM     11   O  BGC B   1      19.555 -30.920 -21.7630  0.00  0.00     0.000 O
ATOM     13  HD  BGC B   1      19.221 -31.657 -21.4560  0.00  0.00     0.000 HD
ATOM     13   C  BGC B   1      20.870 -28.463 -22.7360  0.00  0.00     0.000 C
ATOM     14   O  BGC B   1      20.258 -28.412 -24.0210  0.00  0.00     0.000 O
ATOM     16  HD  BGC B   1      19.924 -29.149 -23.7140  0.00  0.00     0.000 HD
ENDROOT
BRANCH 1 16
ATOM     16  O4  BGC B   2      17.590 -25.978 -20.5650  0.00  0.00     0.000 O
BRANCH 16 20
ATOM     17  C1  BGC B   2      18.273 -21.976 -20.3270  0.00  0.00     0.000 C
ATOM     18  C2  BGC B   2      18.306 -22.518 -21.7490  0.00  0.00     0.000 C
ATOM     19  C3  BGC B   2      17.687 -23.914 -21.7490  0.00  0.00     0.000 C
ATOM     20  C4  BGC B   2      18.374 -24.798 -20.7280  0.00  0.00     0.000 C
ATOM     21  C5  BGC B   2      18.484 -24.129 -19.3580  0.00  0.00     0.000 C
ATOM     22  O5  BGC B   2      19.096 -22.844 -19.5260  0.00  0.00     0.000 O
ATOM     23   O  BGC B   2      17.546 -21.666 -22.6200  0.00  0.00     0.000 O
ATOM     25  HD  BGC B   2      17.389 -22.433 -22.2500  0.00  0.00     0.000 HD
ATOM     25   O  BGC B   2      17.790 -24.489 -23.0470  0.00  0.00     0.000 O
ATOM     27  HD  BGC B   2      17.633 -25.255 -22.6760  0.00  0.00     0.000 HD
ATOM     27   C  BGC B   2      19.336 -24.923 -18.3760  0.00  0.00     0.000 C
ATOM     28   O  BGC B   2      20.645 -25.188 -18.8520  0.00  0.00     0.000 O
ATOM     30  HD  BGC B   2      20.488 -25.954 -18.4810  0.00  0.00     0.000 HD
BRANCH 17 30
ATOM     30  O4  BGC B   3      18.954 -20.735 -20.3470  0.00  0.00     0.000 O
BRANCH 30 34
ATOM     31  C1  BGC B   3      18.799 -17.021 -18.5850  0.00  0.00     0.000 C
ATOM     32  C2  BGC B   3      19.093 -18.169 -17.6200  0.00  0.00     0.000 C
ATOM     33  C3  BGC B   3      19.515 -19.388 -18.4210  0.00  0.00     0.000 C
ATOM     34  C4  BGC B   3      18.447 -19.734 -19.4590  0.00  0.00     0.000 C
ATOM     35  C5  BGC B   3      18.101 -18.510 -20.2890  0.00  0.00     0.000 C
ATOM     36  O5  BGC B   3      17.729 -17.435 -19.4200  0.00  0.00     0.000 O
ATOM     37   O  BGC B   3      20.168 -17.802 -16.7580  0.00  0.00     0.000 O
ATOM     39  HD  BGC B   3      20.011 -18.512 -16.2880  0.00  0.00     0.000 HD
ATOM     39   O  BGC B   3      19.710 -20.470 -17.5240  0.00  0.00     0.000 O
ATOM     41  HD  BGC B   3      19.554 -21.181 -17.0540  0.00  0.00     0.000 HD
ATOM     41   C  BGC B   3      16.975 -18.740 -21.2910  0.00  0.00     0.000 C
ATOM     42   O  BGC B   3      15.813 -19.173 -20.6250  0.00  0.00     0.000 O
ATOM     44  HD  BGC B   3      15.656 -19.883 -20.1550  0.00  0.00     0.000 HD
BRANCH 31 44
ATOM     44  O4  BGC B   4      18.316 -15.947 -17.8190  0.00  0.00     0.000 O
BRANCH 44 48
ATOM     45  C1  BGC B   4      18.566 -11.856 -17.7310  0.00  0.00     0.000 C
ATOM     46  C2  BGC B   4      17.378 -12.406 -18.5080  0.00  0.00     0.000 C
ATOM     47  C3  BGC B   4      17.169 -13.857 -18.1470  0.00  0.00     0.000 C
ATOM     48  C4  BGC B   4      18.464 -14.648 -18.3560  0.00  0.00     0.000 C
ATOM     49  C5  BGC B   4      19.632 -13.973 -17.6260  0.00  0.00     0.000 C
ATOM     50  O5  BGC B   4      19.741 -12.606 -18.0460  0.00  0.00     0.000 O
ATOM     51   O  BGC B   4      16.188 -11.664 -18.1790  0.00  0.00     0.000 O
ATOM     53  HD  BGC B   4      16.044 -12.372 -17.7020  0.00  0.00     0.000 HD
ATOM     53   O  BGC B   4      16.133 -14.395 -18.9800  0.00  0.00     0.000 O
ATOM     55  HD  BGC B   4      15.989 -15.103 -18.5030  0.00  0.00     0.000 HD
ATOM     55   C  BGC B   4      20.983 -14.622 -17.8690  0.00  0.00     0.000 C
ATOM     56   O  BGC B   4      21.197 -14.665 -19.2810  0.00  0.00     0.000 O
ATOM     58  HD  BGC B   4      21.053 -15.373 -18.8030  0.00  0.00     0.000 HD
BRANCH 45 58
ATOM     58  O4  BGC B   5      18.856 -10.584 -18.3090  0.00  0.00     0.000 O
BRANCH 58 62
ATOM     59  C1  BGC B   5      19.910  -6.704 -17.3170  0.00  0.00     0.000 C
ATOM     60  C2  BGC B   5      20.915  -7.770 -16.9300  0.00  0.00     0.000 C
ATOM     61  C3  BGC B   5      20.645  -9.057 -17.6870  0.00  0.00     0.000 C
ATOM     62  C4  BGC B   5      19.203  -9.483 -17.4650  0.00  0.00     0.000 C
ATOM     63  C5  BGC B   5      18.241  -8.334 -17.8000  0.00  0.00     0.000 C
ATOM     64  O5  BGC B   5      18.598  -7.195 -17.0240  0.00  0.00     0.000 O
ATOM     65   O  BGC B   5      16.751  -9.000 -16.1170  0.00  0.00     0.000 O
ATOM     67  HD  BGC B   5      16.534  -9.689 -15.6390  0.00  0.00     0.000 HD
ATOM     67   O  BGC B   5      16.751  -9.000 -16.1170  0.00  0.00     0.000 O
ATOM     69  HD  BGC B   5      16.534  -9.689 -15.6390  0.00  0.00     0.000 HD
ENDBRANCH 58 62
ENDBRANCH 45 58
ENDBRANCH 44 48
ENDBRANCH 31 44
ENDBRANCH 30 34
ENDBRANCH 17 30
ENDBRANCH 16 20
ENDBRANCH 1 16
TORSDOF 8
ENDMDL
MODEL 17
REMARK VINA RESULT:      -8.7      2.300      6.514
ROOT
ATOM      1  C1  BGC B   1      18.787  -0.471 -14.0530  0.00  0.00     0.000 C
ATOM      2  C2  BGC B   1      17.548   0.304 -13.6060  0.00  0.00     0.000 C
ATOM      3  C3  BGC B   1      17.911   1.750 -13.3290  0.00  0.00     0.000 C
ATOM      4  C4  BGC B   1      19.093   1.835 -12.3710  0.00  0.00     0.000 C
ATOM      5  C5  BGC B   1      20.246   1.032 -12.9570  0.00  0.00     0.000 C
ATOM      6  O5  BGC B   1      19.805  -0.333 -13.0720  0.00  0.00     0.000 O
ATOM      7   O  BGC B   1      16.559   0.256 -14.6480  0.00  0.00     0.000 O
ATOM      9  HD  BGC B   1      15.997   0.912 -14.6990  0.00  0.00     0.000 HD
ATOM      9   O  BGC B   1      16.768   2.418 -12.7870  0.00  0.00     0.000 O
ATOM     11  HD  BGC B   1      16.205   3.074 -12.8380  0.00  0.00     0.000 HD
ATOM     11   O  BGC B   1      19.478   3.183 -12.2120  0.00  0.00     0.000 O
ATOM     13  HD  BGC B   1      18.916   3.840 -12.2640  0.00  0.00     0.000 HD
ATOM     13   C  BGC B   1      21.526   1.060 -12.1340  0.00  0.00     0.000 C
ATOM     14   O  BGC B   1      21.317   0.637 -10.7910  0.00  0.00     0.000 O
ATOM     16  HD  BGC B   1      20.754   1.293 -10.8420  0.00  0.00     0.000 HD
ENDROOT
BRANCH 1 16
ATOM     16  O4  BGC B   2      18.426  -1.851 -14.0220  0.00  0.00     0.000 O
BRANCH 16 20
ATOM     17  C1  BGC B   2      19.099  -5.324 -16.0270  0.00  0.00     0.000 C
ATOM     18  C2  BGC B   2      20.159  -5.006 -14.9830  0.00  0.00     0.000 C
ATOM     19  C3  BGC B   2      19.622  -3.909 -14.0660  0.00  0.00     0.000 C
ATOM     20  C4  BGC B   2      19.169  -2.714 -14.8790  0.00  0.00     0.000 C
ATOM     21  C5  BGC B   2      18.253  -3.110 -16.0370  0.00  0.00     0.000 C
ATOM     22  O5  BGC B   2      18.904  -4.129 -16.8060  0.00  0.00     0.000 O
ATOM     23   O  BGC B   2      20.446  -6.175 -14.1980  0.00  0.00     0.000 O
ATOM     25  HD  BGC B   2      19.979  -5.460 -14.0540  0.00  0.00     0.000 HD
ATOM     25   O  BGC B   2      20.626  -3.521 -13.1360  0.00  0.00     0.000 O
ATOM     27  HD  BGC B   2      20.159  -2.806 -12.9920  0.00  0.00     0.000 HD
ATOM     27   C  BGC B   2      17.943  -1.948 -16.9740  0.00  0.00     0.000 C
ATOM     28   O  BGC B   2      19.103  -1.334 -17.5100  0.00  0.00     0.000 O
ATOM     30  HD  BGC B   2      18.637  -0.619 -17.3660  0.00  0.00     0.000 HD
BRANCH 17 30
ATOM     30  O4  BGC B   3      19.674  -6.258 -16.9220  0.00  0.00     0.000 O
BRANCH 30 34
ATOM     31  C1  BGC B   3      18.646  -9.697 -18.9320  0.00  0.00     0.000 C
ATOM     32  C2  BGC B   3      18.135  -8.409 -19.5760  0.00  0.00     0.000 C
ATOM     33  C3  BGC B   3      18.895  -7.232 -18.9910  0.00  0.00     0.000 C
ATOM     34  C4  BGC B   3      18.776  -7.230 -17.4680  0.00  0.00     0.000 C
ATOM     35  C5  BGC B   3      19.164  -8.587 -16.9050  0.00  0.00     0.000 C
ATOM     36  O5  BGC B   3      18.384  -9.605 -17.5410  0.00  0.00     0.000 O
ATOM     37   O  BGC B   3      18.377  -8.450 -20.9800  0.00  0.00     0.000 O
ATOM     39  HD  BGC B   3      17.896  -7.736 -21.0680  0.00  0.00     0.000 HD
ATOM     39   O  BGC B   3      18.361  -6.035 -19.5370  0.00  0.00     0.000 O
ATOM     41  HD  BGC B   3      17.880  -5.321 -19.6240  0.00  0.00     0.000 HD
ATOM     41   C  BGC B   3      18.987  -8.705 -15.3960  0.00  0.00     0.000 C
ATOM     42   O  BGC B   3      17.650  -8.439 -15.0410  0.00  0.00     0.000 O
ATOM     44  HD  BGC B   3      17.169  -7.724 -15.1290  0.00  0.00     0.000 HD
BRANCH 31 44
ATOM     44  O4  BGC B   4      17.852 -10.749 -19.4190  0.00  0.00     0.000 O
BRANCH 44 48
ATOM     45  C1  BGC B   4      17.818 -14.847 -19.5090  0.00  0.00     0.000 C
ATOM     46  C2  BGC B   4      18.315 -14.242 -18.2040  0.00  0.00     0.000 C
ATOM     47  C3  BGC B   4      17.919 -12.787 -18.1410  0.00  0.00     0.000 C
ATOM     48  C4  BGC B   4      18.407 -12.048 -19.3910  0.00  0.00     0.000 C
ATOM     49  C5  BGC B   4      17.950 -12.777 -20.6610  0.00  0.00     0.000 C
ATOM     50  O5  BGC B   4      18.384 -14.144 -20.6170  0.00  0.00     0.000 O
ATOM     51   O  BGC B   4      17.733 -14.937 -17.0850  0.00  0.00     0.000 O
ATOM     53  HD  BGC B   4      17.236 -14.227 -17.0800  0.00  0.00     0.000 HD
ATOM     53   O  BGC B   4      18.505 -12.199 -16.9710  0.00  0.00     0.000 O
ATOM     55  HD  BGC B   4      18.008 -11.490 -16.9650  0.00  0.00     0.000 HD
ATOM     55   C  BGC B   4      18.485 -12.183 -21.9520  0.00  0.00     0.000 C
ATOM     56   O  BGC B   4      19.909 -12.136 -21.8530  0.00  0.00     0.000 O
ATOM     58  HD  BGC B   4      19.413 -11.427 -21.8470  0.00  0.00     0.000 HD
BRANCH 45 58
ATOM     58  O4  BGC B   5      18.444 -16.125 -19.6110  0.00  0.00     0.000 O
BRANCH 58 62
ATOM     59  C1  BGC B   5      17.777 -19.439 -22.0040  0.00  0.00     0.000 C
ATOM     60  C2  BGC B   5      16.862 -18.258 -22.2590  0.00  0.00     0.000 C
ATOM     61  C3  BGC B   5      17.441 -16.994 -21.6510  0.00  0.00     0.000 C
ATOM     62  C4  BGC B   5      17.726 -17.225 -20.1750  0.00  0.00     0.000 C
ATOM     63  C5  BGC B   5      18.590 -18.479 -19.9810  0.00  0.00     0.000 C
ATOM     64  O5  BGC B   5      17.936 -19.588 -20.5900  0.00  0.00     0.000 O
ATOM     65   O  BGC B   5      17.527 -18.980 -17.9520  0.00  0.00     0.000 O
ATOM     67  HD  BGC B   5      17.064 -18.609 -17.3210  0.00  0.00     0.000 HD
ATOM     67   O  BGC B   5      17.527 -18.980 -17.9520  0.00  0.00     0.000 O
ATOM     69  HD  BGC B   5      17.064 -18.609 -17.3210  0.00  0.00     0.000 HD
ENDBRANCH 58 62
ENDBRANCH 45 58
ENDBRANCH 44 48
ENDBRANCH 31 44
ENDBRANCH 30 34
ENDBRANCH 17 30
ENDBRANCH 16 20
ENDBRANCH 1 16
TORSDOF 8
ENDMDL
MODEL 18
REMARK VINA RESULT:      -8.7      2.478     15.144
ROOT
ATOM      1  C1  BGC B   1      17.458 -13.094 -21.6640  0.00  0.00     0.000 C
ATOM      2  C2  BGC B   1      16.964 -13.178 -23.1070  0.00  0.00     0.000 C
ATOM      3  C3  BGC B   1      16.387 -14.553 -23.3810  0.00  0.00     0.000 C
ATOM      4  C4  BGC B   1      17.376 -15.642 -22.9830  0.00  0.00     0.000 C
ATOM      5  C5  BGC B   1      17.760 -15.435 -21.5260  0.00  0.00     0.000 C
ATOM      6  O5  BGC B   1      18.386 -14.143 -21.4250  0.00  0.00     0.000 O
ATOM      7   O  BGC B   1      15.944 -12.187 -23.3160  0.00  0.00     0.000 O
ATOM      9  HD  BGC B   1      15.345 -12.347 -23.9210  0.00  0.00     0.000 HD
ATOM      9   O  BGC B   1      16.055 -14.648 -24.7690  0.00  0.00     0.000 O
ATOM     11  HD  BGC B   1      15.457 -14.808 -25.3740  0.00  0.00     0.000 HD
ATOM     11   O  BGC B   1      16.777 -16.909 -23.1480  0.00  0.00     0.000 O
ATOM     13  HD  BGC B   1      16.179 -17.069 -23.7530  0.00  0.00     0.000 HD
ATOM     13   C  BGC B   1      18.712 -16.480 -20.9620  0.00  0.00     0.000 C
ATOM     14   O  BGC B   1      19.905 -16.598 -21.7320  0.00  0.00     0.000 O
ATOM     16  HD  BGC B   1      19.306 -16.758 -22.3370  0.00  0.00     0.000 HD
ENDROOT
BRANCH 1 16
ATOM     16  O4  BGC B   2      18.223 -11.894 -21.5740  0.00  0.00     0.000 O
BRANCH 16 20
ATOM     17  C1  BGC B   2      19.569  -9.268 -18.7750  0.00  0.00     0.000 C
ATOM     18  C2  BGC B   2      20.539 -10.405 -19.0640  0.00  0.00     0.000 C
ATOM     19  C3  BGC B   2      20.106 -11.095 -20.3550  0.00  0.00     0.000 C
ATOM     20  C4  BGC B   2      18.655 -11.521 -20.2680  0.00  0.00     0.000 C
ATOM     21  C5  BGC B   2      17.744 -10.390 -19.7890  0.00  0.00     0.000 C
ATOM     22  O5  BGC B   2      18.275  -9.862 -18.5670  0.00  0.00     0.000 O
ATOM     23   O  BGC B   2      21.870  -9.889 -19.2300  0.00  0.00     0.000 O
ATOM     25  HD  BGC B   2      21.263 -10.164 -19.7830  0.00  0.00     0.000 HD
ATOM     25   O  BGC B   2      20.936 -12.224 -20.6030  0.00  0.00     0.000 O
ATOM     27  HD  BGC B   2      20.329 -12.498 -21.1560  0.00  0.00     0.000 HD
ATOM     27   C  BGC B   2      16.318 -10.851 -19.5150  0.00  0.00     0.000 C
ATOM     28   O  BGC B   2      16.241 -11.914 -18.5790  0.00  0.00     0.000 O
ATOM     30  HD  BGC B   2      15.634 -12.188 -19.1330  0.00  0.00     0.000 HD
BRANCH 17 30
ATOM     30  O4  BGC B   3      19.934  -8.728 -17.5190  0.00  0.00     0.000 O
BRANCH 30 34
ATOM     31  C1  BGC B   3      18.751  -5.735 -14.9560  0.00  0.00     0.000 C
ATOM     32  C2  BGC B   3      17.930  -7.020 -14.8540  0.00  0.00     0.000 C
ATOM     33  C3  BGC B   3      18.691  -8.145 -15.5310  0.00  0.00     0.000 C
ATOM     34  C4  BGC B   3      19.031  -7.763 -16.9710  0.00  0.00     0.000 C
ATOM     35  C5  BGC B   3      19.719  -6.409 -17.0100  0.00  0.00     0.000 C
ATOM     36  O5  BGC B   3      18.906  -5.443 -16.3360  0.00  0.00     0.000 O
ATOM     37   O  BGC B   3      17.747  -7.360 -13.4820  0.00  0.00     0.000 O
ATOM     39  HD  BGC B   3      17.183  -7.971 -13.7250  0.00  0.00     0.000 HD
ATOM     39   O  BGC B   3      17.887  -9.315 -15.5000  0.00  0.00     0.000 O
ATOM     41  HD  BGC B   3      17.324  -9.926 -15.7440  0.00  0.00     0.000 HD
ATOM     41   C  BGC B   3      20.013  -5.904 -18.4180  0.00  0.00     0.000 C
ATOM     42   O  BGC B   3      18.822  -5.822 -19.1640  0.00  0.00     0.000 O
ATOM     44  HD  BGC B   3      18.259  -6.433 -19.4070  0.00  0.00     0.000 HD
BRANCH 31 44
ATOM     44  O4  BGC B   4      17.973  -4.700 -14.4130  0.00  0.00     0.000 O
BRANCH 44 48
ATOM     45  C1  BGC B   4      18.262  -0.701 -13.5610  0.00  0.00     0.000 C
ATOM     46  C2  BGC B   4      17.777  -1.019 -14.9680  0.00  0.00     0.000 C
ATOM     47  C3  BGC B   4      17.340  -2.462 -15.0350  0.00  0.00     0.000 C
ATOM     48  C4  BGC B   4      18.464  -3.381 -14.5440  0.00  0.00     0.000 C
ATOM     49  C5  BGC B   4      18.965  -2.932 -13.1670  0.00  0.00     0.000 C
ATOM     50  O5  BGC B   4      19.357  -1.552 -13.2200  0.00  0.00     0.000 O
ATOM     51   O  BGC B   4      16.662  -0.174 -15.3090  0.00  0.00     0.000 O
ATOM     53  HD  BGC B   4      16.231  -0.904 -15.1290  0.00  0.00     0.000 HD
ATOM     53   O  BGC B   4      17.011  -2.783 -16.3940  0.00  0.00     0.000 O
ATOM     55  HD  BGC B   4      16.580  -3.512 -16.2150  0.00  0.00     0.000 HD
ATOM     55   C  BGC B   4      20.159  -3.713 -12.6480  0.00  0.00     0.000 C
ATOM     56   O  BGC B   4      21.190  -3.639 -13.6350  0.00  0.00     0.000 O
ATOM     58  HD  BGC B   4      20.759  -4.369 -13.4560  0.00  0.00     0.000 HD
BRANCH 45 58
ATOM     58  O4  BGC B   5      18.890   0.579 -13.6440  0.00  0.00     0.000 O
BRANCH 58 62
ATOM     59  C1  BGC B   5      20.449   3.609 -11.2920  0.00  0.00     0.000 C
ATOM     60  C2  BGC B   5      20.994   2.223 -11.0120  0.00  0.00     0.000 C
ATOM     61  C3  BGC B   5      20.688   1.288 -12.1660  0.00  0.00     0.000 C
ATOM     62  C4  BGC B   5      19.194   1.299 -12.4470  0.00  0.00     0.000 C
ATOM     63  C5  BGC B   5      18.691   2.737 -12.6420  0.00  0.00     0.000 C
ATOM     64  O5  BGC B   5      19.036   3.505 -11.4940  0.00  0.00     0.000 O
ATOM     65   O  BGC B   5      16.625   2.219 -11.6630  0.00  0.00     0.000 O
ATOM     67  HD  BGC B   5      16.109   1.546 -11.4870  0.00  0.00     0.000 HD
ATOM     67   O  BGC B   5      16.625   2.219 -11.6630  0.00  0.00     0.000 O
ATOM     69  HD  BGC B   5      16.109   1.546 -11.4870  0.00  0.00     0.000 HD
ENDBRANCH 58 62
ENDBRANCH 45 58
ENDBRANCH 44 48
ENDBRANCH 31 44
ENDBRANCH 30 34
ENDBRANCH 17 30
ENDBRANCH 16 20
ENDBRANCH 1 16
TORSDOF 8
ENDMDL
MODEL 19
REMARK VINA RESULT:      -8.5      2.348     15.491
ROOT
ATOM      1  C1  BGC B   1      17.649 -14.766 -20.4950  0.00  0.00     0.000 C
ATOM      2  C2  BGC B   1      17.335 -15.304 -21.8900  0.00  0.00     0.000 C
ATOM      3  C3  BGC B   1      16.940 -16.766 -21.8070  0.00  0.00     0.000 C
ATOM      4  C4  BGC B   1      17.986 -17.565 -21.0390  0.00  0.00     0.000 C
ATOM      5  C5  BGC B   1      18.176 -16.920 -19.6740  0.00  0.00     0.000 C
ATOM      6  O5  BGC B   1      18.648 -15.578 -19.8930  0.00  0.00     0.000 O
ATOM      7   O  BGC B   1      16.248 -14.552 -22.4530  0.00  0.00     0.000 O
ATOM      9  HD  BGC B   1      15.743 -14.948 -23.0340  0.00  0.00     0.000 HD
ATOM      9   O  BGC B   1      16.782 -17.278 -23.1340  0.00  0.00     0.000 O
ATOM     11  HD  BGC B   1      16.277 -17.674 -23.7150  0.00  0.00     0.000 HD
ATOM     11   O  BGC B   1      17.546 -18.897 -20.8850  0.00  0.00     0.000 O
ATOM     13  HD  BGC B   1      17.041 -19.293 -21.4660  0.00  0.00     0.000 HD
ATOM     13   C  BGC B   1      19.162 -17.636 -18.7610  0.00  0.00     0.000 C
ATOM     14   O  BGC B   1      20.441 -17.800 -19.3670  0.00  0.00     0.000 O
ATOM     16  HD  BGC B   1      19.936 -18.196 -19.9480  0.00  0.00     0.000 HD
ENDROOT
BRANCH 1 16
ATOM     16  O4  BGC B   2      18.268 -13.496 -20.6880  0.00  0.00     0.000 O
BRANCH 16 20
ATOM     17  C1  BGC B   2      19.461 -10.251 -18.5470  0.00  0.00     0.000 C
ATOM     18  C2  BGC B   2      20.529 -11.328 -18.6710  0.00  0.00     0.000 C
ATOM     19  C3  BGC B   2      20.112 -12.299 -19.7720  0.00  0.00     0.000 C
ATOM     20  C4  BGC B   2      18.718 -12.831 -19.5100  0.00  0.00     0.000 C
ATOM     21  C5  BGC B   2      17.717 -11.717 -19.2030  0.00  0.00     0.000 C
ATOM     22  O5  BGC B   2      18.245 -10.909 -18.1430  0.00  0.00     0.000 O
ATOM     23   O  BGC B   2      21.790 -10.734 -19.0200  0.00  0.00     0.000 O
ATOM     25  HD  BGC B   2      21.191 -11.169 -19.4690  0.00  0.00     0.000 HD
ATOM     25   O  BGC B   2      21.043 -13.373 -19.8490  0.00  0.00     0.000 O
ATOM     27  HD  BGC B   2      20.443 -13.807 -20.2980  0.00  0.00     0.000 HD
ATOM     27   C  BGC B   2      16.360 -12.244 -18.7520  0.00  0.00     0.000 C
ATOM     28   O  BGC B   2      16.436 -13.101 -17.6250  0.00  0.00     0.000 O
ATOM     30  HD  BGC B   2      15.837 -13.536 -18.0740  0.00  0.00     0.000 HD
BRANCH 17 30
ATOM     30  O4  BGC B   3      19.824  -9.439 -17.4460  0.00  0.00     0.000 O
BRANCH 30 34
ATOM     31  C1  BGC B   3      18.743  -5.824 -15.8070  0.00  0.00     0.000 C
ATOM     32  C2  BGC B   3      17.939  -7.018 -15.2950  0.00  0.00     0.000 C
ATOM     33  C3  BGC B   3      18.676  -8.297 -15.6530  0.00  0.00     0.000 C
ATOM     34  C4  BGC B   3      18.940  -8.351 -17.1570  0.00  0.00     0.000 C
ATOM     35  C5  BGC B   3      19.613  -7.071 -17.6220  0.00  0.00     0.000 C
ATOM     36  O5  BGC B   3      18.827  -5.946 -17.2180  0.00  0.00     0.000 O
ATOM     37   O  BGC B   3      17.827  -6.944 -13.8750  0.00  0.00     0.000 O
ATOM     39  HD  BGC B   3      17.258  -7.596 -13.9020  0.00  0.00     0.000 HD
ATOM     39   O  BGC B   3      17.885  -9.402 -15.2430  0.00  0.00     0.000 O
ATOM     41  HD  BGC B   3      17.316 -10.054 -15.2700  0.00  0.00     0.000 HD
ATOM     41   C  BGC B   3      19.833  -6.999 -19.1290  0.00  0.00     0.000 C
ATOM     42   O  BGC B   3      18.605  -7.130 -19.8050  0.00  0.00     0.000 O
ATOM     44  HD  BGC B   3      18.036  -7.782 -19.8320  0.00  0.00     0.000 HD
BRANCH 31 44
ATOM     44  O4  BGC B   4      17.984  -4.671 -15.5490  0.00  0.00     0.000 O
BRANCH 44 48
ATOM     45  C1  BGC B   4      18.573  -0.819 -14.2750  0.00  0.00     0.000 C
ATOM     46  C2  BGC B   4      18.548  -0.994 -15.7870  0.00  0.00     0.000 C
ATOM     47  C3  BGC B   4      17.945  -2.335 -16.1290  0.00  0.00     0.000 C
ATOM     48  C4  BGC B   4      18.684  -3.454 -15.3890  0.00  0.00     0.000 C
ATOM     49  C5  BGC B   4      18.754  -3.153 -13.8860  0.00  0.00     0.000 C
ATOM     50  O5  BGC B   4      19.346  -1.862 -13.6780  0.00  0.00     0.000 O
ATOM     51   O  BGC B   4      17.755   0.045 -16.3910  0.00  0.00     0.000 O
ATOM     53  HD  BGC B   4      17.184  -0.604 -16.4320  0.00  0.00     0.000 HD
ATOM     53   O  BGC B   4      18.048  -2.541 -17.5450  0.00  0.00     0.000 O
ATOM     55  HD  BGC B   4      17.477  -3.190 -17.5860  0.00  0.00     0.000 HD
ATOM     55   C  BGC B   4      19.570  -4.150 -13.0840  0.00  0.00     0.000 C
ATOM     56   O  BGC B   4      20.871  -4.219 -13.6690  0.00  0.00     0.000 O
ATOM     58  HD  BGC B   4      20.300  -4.869 -13.7100  0.00  0.00     0.000 HD
BRANCH 45 58
ATOM     58  O4  BGC B   5      19.378   0.333 -14.0280  0.00  0.00     0.000 O
BRANCH 58 62
ATOM     59  C1  BGC B   5      19.121   3.979 -12.0830  0.00  0.00     0.000 C
ATOM     60  C2  BGC B   5      19.773   2.864 -11.2900  0.00  0.00     0.000 C
ATOM     61  C3  BGC B   5      20.188   1.731 -12.2080  0.00  0.00     0.000 C
ATOM     62  C4  BGC B   5      18.989   1.268 -13.0190  0.00  0.00     0.000 C
ATOM     63  C5  BGC B   5      18.327   2.456 -13.7330  0.00  0.00     0.000 C
ATOM     64  O5  BGC B   5      17.984   3.441 -12.7650  0.00  0.00     0.000 O
ATOM     65   O  BGC B   5      16.200   1.500 -13.4990  0.00  0.00     0.000 O
ATOM     67  HD  BGC B   5      15.811   0.737 -13.3690  0.00  0.00     0.000 HD
ATOM     67   O  BGC B   5      16.200   1.500 -13.4990  0.00  0.00     0.000 O
ATOM     69  HD  BGC B   5      15.811   0.737 -13.3690  0.00  0.00     0.000 HD
ENDBRANCH 58 62
ENDBRANCH 45 58
ENDBRANCH 44 48
ENDBRANCH 31 44
ENDBRANCH 30 34
ENDBRANCH 17 30
ENDBRANCH 16 20
ENDBRANCH 1 16
TORSDOF 8
ENDMDL
MODEL 20
REMARK VINA RESULT:      -8.5      9.290     17.691
ROOT
ATOM      1  C1  BGC B   1      17.655 -11.142 -19.3460  0.00  0.00     0.000 C
ATOM      2  C2  BGC B   1      16.533 -10.238 -19.8540  0.00  0.00     0.000 C
ATOM      3  C3  BGC B   1      16.916  -8.781 -19.6730  0.00  0.00     0.000 C
ATOM      4  C4  BGC B   1      17.349  -8.512 -18.2380  0.00  0.00     0.000 C
ATOM      5  C5  BGC B   1      18.475  -9.472 -17.8850  0.00  0.00     0.000 C
ATOM      6  O5  BGC B   1      17.951 -10.809 -17.9970  0.00  0.00     0.000 O
ATOM      7   O  BGC B   1      16.310 -10.499 -21.2500  0.00  0.00     0.000 O
ATOM      9  HD  BGC B   1      15.996  -9.854 -21.7340  0.00  0.00     0.000 HD
ATOM      9   O  BGC B   1      15.799  -7.962 -20.0310  0.00  0.00     0.000 O
ATOM     11  HD  BGC B   1      15.484  -7.317 -20.5160  0.00  0.00     0.000 HD
ATOM     11   O  BGC B   1      17.799  -7.179 -18.1210  0.00  0.00     0.000 O
ATOM     13  HD  BGC B   1      17.484  -6.535 -18.6060  0.00  0.00     0.000 HD
ATOM     13   C  BGC B   1      19.053  -9.294 -16.4890  0.00  0.00     0.000 C
ATOM     14   O  BGC B   1      18.056  -9.374 -15.4750  0.00  0.00     0.000 O
ATOM     16  HD  BGC B   1      17.741  -8.730 -15.9600  0.00  0.00     0.000 HD
ENDROOT
BRANCH 1 16
ATOM     16  O4  BGC B   2      17.112 -12.459 -19.2930  0.00  0.00     0.000 O
BRANCH 16 20
ATOM     17  C1  BGC B   2      18.091 -16.353 -19.9420  0.00  0.00     0.000 C
ATOM     18  C2  BGC B   2      18.797 -15.736 -18.7430  0.00  0.00     0.000 C
ATOM     19  C3  BGC B   2      18.092 -14.430 -18.3850  0.00  0.00     0.000 C
ATOM     20  C4  BGC B   2      18.012 -13.522 -19.5950  0.00  0.00     0.000 C
ATOM     21  C5  BGC B   2      17.471 -14.244 -20.8300  0.00  0.00     0.000 C
ATOM     22  O5  BGC B   2      18.245 -15.433 -21.0390  0.00  0.00     0.000 O
ATOM     23   O  BGC B   2      18.732 -16.629 -17.6180  0.00  0.00     0.000 O
ATOM     25  HD  BGC B   2      18.302 -15.908 -17.8340  0.00  0.00     0.000 HD
ATOM     25   O  BGC B   2      18.787 -13.779 -17.3270  0.00  0.00     0.000 O
ATOM     27  HD  BGC B   2      18.358 -13.059 -17.5420  0.00  0.00     0.000 HD
ATOM     27   C  BGC B   2      17.562 -13.403 -22.0970  0.00  0.00     0.000 C
ATOM     28   O  BGC B   2      18.877 -12.954 -22.3810  0.00  0.00     0.000 O
ATOM     30  HD  BGC B   2      18.448 -12.233 -22.5960  0.00  0.00     0.000 HD
BRANCH 17 30
ATOM     30  O4  BGC B   3      18.838 -17.497 -20.3120  0.00  0.00     0.000 O
BRANCH 30 34
ATOM     31  C1  BGC B   3      18.264 -21.333 -21.6840  0.00  0.00     0.000 C
ATOM     32  C2  BGC B   3      17.691 -20.243 -22.5890  0.00  0.00     0.000 C
ATOM     33  C3  BGC B   3      18.301 -18.908 -22.1980  0.00  0.00     0.000 C
ATOM     34  C4  BGC B   3      18.071 -18.637 -20.7120  0.00  0.00     0.000 C
ATOM     35  C5  BGC B   3      18.533 -19.821 -19.8810  0.00  0.00     0.000 C
ATOM     36  O5  BGC B   3      17.894 -21.012 -20.3520  0.00  0.00     0.000 O
ATOM     37   O  BGC B   3      18.038 -20.518 -23.9440  0.00  0.00     0.000 O
ATOM     39  HD  BGC B   3      17.504 -19.883 -24.1930  0.00  0.00     0.000 HD
ATOM     39   O  BGC B   3      17.705 -17.892 -22.9900  0.00  0.00     0.000 O
ATOM     41  HD  BGC B   3      17.171 -17.257 -23.2390  0.00  0.00     0.000 HD
ATOM     41   C  BGC B   3      18.258 -19.676 -18.3880  0.00  0.00     0.000 C
ATOM     42   O  BGC B   3      16.881 -19.483 -18.1650  0.00  0.00     0.000 O
ATOM     44  HD  BGC B   3      16.346 -18.849 -18.4140  0.00  0.00     0.000 HD
BRANCH 31 44
ATOM     44  O4  BGC B   4      17.604 -22.530 -22.0050  0.00  0.00     0.000 O
BRANCH 44 48
ATOM     45  C1  BGC B   4      18.116 -26.589 -21.7510  0.00  0.00     0.000 C
ATOM     46  C2  BGC B   4      17.667 -25.921 -20.4590  0.00  0.00     0.000 C
ATOM     47  C3  BGC B   4      17.141 -24.539 -20.7640  0.00  0.00     0.000 C
ATOM     48  C4  BGC B   4      18.183 -23.734 -21.5470  0.00  0.00     0.000 C
ATOM     49  C5  BGC B   4      18.658 -24.519 -22.7760  0.00  0.00     0.000 C
ATOM     50  O5  BGC B   4      19.140 -25.809 -22.3710  0.00  0.00     0.000 O
ATOM     51   O  BGC B   4      16.623 -26.695 -19.8400  0.00  0.00     0.000 O
ATOM     53  HD  BGC B   4      16.140 -26.066 -20.1870  0.00  0.00     0.000 HD
ATOM     53   O  BGC B   4      16.845 -23.875 -19.5270  0.00  0.00     0.000 O
ATOM     55  HD  BGC B   4      16.362 -23.245 -19.8740  0.00  0.00     0.000 HD
ATOM     55   C  BGC B   4      19.778 -23.851 -23.5530  0.00  0.00     0.000 C
ATOM     56   O  BGC B   4      20.849 -23.597 -22.6420  0.00  0.00     0.000 O
ATOM     58  HD  BGC B   4      20.365 -22.968 -22.9890  0.00  0.00     0.000 HD
BRANCH 45 58
ATOM     58  O4  BGC B   5      18.827 -27.762 -21.3580  0.00  0.00     0.000 O
BRANCH 58 62
ATOM     59  C1  BGC B   5      18.897 -31.777 -22.3690  0.00  0.00     0.000 C
ATOM     60  C2  BGC B   5      20.055 -30.954 -22.8960  0.00  0.00     0.000 C
ATOM     61  C3  BGC B   5      20.160 -29.640 -22.1440  0.00  0.00     0.000 C
ATOM     62  C4  BGC B   5      18.828 -28.911 -22.2090  0.00  0.00     0.000 C
ATOM     63  C5  BGC B   5      17.687 -29.825 -21.7380  0.00  0.00     0.000 C
ATOM     64  O5  BGC B   5      17.697 -31.013 -22.5220  0.00  0.00     0.000 O
ATOM     65   O  BGC B   5      16.188 -28.850 -23.2550  0.00  0.00     0.000 O
ATOM     67  HD  BGC B   5      16.070 -28.129 -23.7210  0.00  0.00     0.000 HD
ATOM     67   O  BGC B   5      16.188 -28.850 -23.2550  0.00  0.00     0.000 O
ATOM     69  HD  BGC B   5      16.070 -28.129 -23.7210  0.00  0.00     0.000 HD
ENDBRANCH 58 62
ENDBRANCH 45 58
ENDBRANCH 44 48
ENDBRANCH 31 44
ENDBRANCH 30 34
ENDBRANCH 17 30
ENDBRANCH 16 20
ENDBRANCH 1 16
TORSDOF 8
ENDMDL
MODEL 21
REMARK VINA RESULT:      -8.5      2.963     15.473
ROOT
ATOM      1  C1  BGC B   1      17.516 -14.464 -20.6990  0.00  0.00     0.000 C
ATOM      2  C2  BGC B   1      17.384 -14.777 -22.1880  0.00  0.00     0.000 C
ATOM      3  C3  BGC B   1      16.933 -16.212 -22.3810  0.00  0.00     0.000 C
ATOM      4  C4  BGC B   1      17.832 -17.168 -21.6080  0.00  0.00     0.000 C
ATOM      5  C5  BGC B   1      17.850 -16.739 -20.1480  0.00  0.00     0.000 C
ATOM      6  O5  BGC B   1      18.393 -15.407 -20.0980  0.00  0.00     0.000 O
ATOM      7   O  BGC B   1      16.413 -13.893 -22.7730  0.00  0.00     0.000 O
ATOM      9  HD  BGC B   1      15.982 -14.173 -23.4700  0.00  0.00     0.000 HD
ATOM      9   O  BGC B   1      16.946 -16.517 -23.7780  0.00  0.00     0.000 O
ATOM     11  HD  BGC B   1      16.515 -16.797 -24.4750  0.00  0.00     0.000 HD
ATOM     11   O  BGC B   1      17.331 -18.482 -21.7170  0.00  0.00     0.000 O
ATOM     13  HD  BGC B   1      16.899 -18.763 -22.4130  0.00  0.00     0.000 HD
ATOM     13   C  BGC B   1      18.673 -17.631 -19.2300  0.00  0.00     0.000 C
ATOM     14   O  BGC B   1      20.018 -17.775 -19.6760  0.00  0.00     0.000 O
ATOM     16  HD  BGC B   1      19.586 -18.056 -20.3730  0.00  0.00     0.000 HD
ENDROOT
BRANCH 1 16
ATOM     16  O4  BGC B   2      18.199 -13.214 -20.6130  0.00  0.00     0.000 O
BRANCH 16 20
ATOM     17  C1  BGC B   2      19.404 -10.501 -17.8340  0.00  0.00     0.000 C
ATOM     18  C2  BGC B   2      20.428 -11.593 -18.1070  0.00  0.00     0.000 C
ATOM     19  C3  BGC B   2      20.036 -12.315 -19.3940  0.00  0.00     0.000 C
ATOM     20  C4  BGC B   2      18.606 -12.809 -19.3090  0.00  0.00     0.000 C
ATOM     21  C5  BGC B   2      17.639 -11.719 -18.8460  0.00  0.00     0.000 C
ATOM     22  O5  BGC B   2      18.138 -11.155 -17.6260  0.00  0.00     0.000 O
ATOM     23   O  BGC B   2      21.734 -11.015 -18.2710  0.00  0.00     0.000 O
ATOM     25  HD  BGC B   2      21.144 -11.324 -18.8250  0.00  0.00     0.000 HD
ATOM     25   O  BGC B   2      20.920 -13.405 -19.6270  0.00  0.00     0.000 O
ATOM     27  HD  BGC B   2      20.330 -13.713 -20.1800  0.00  0.00     0.000 HD
ATOM     27   C  BGC B   2      16.236 -12.245 -18.5740  0.00  0.00     0.000 C
ATOM     28   O  BGC B   2      16.205 -13.302 -17.6280  0.00  0.00     0.000 O
ATOM     30  HD  BGC B   2      15.615 -13.611 -18.1820  0.00  0.00     0.000 HD
BRANCH 17 30
ATOM     30  O4  BGC B   3      19.736  -9.933 -16.5810  0.00  0.00     0.000 O
BRANCH 30 34
ATOM     31  C1  BGC B   3      19.374  -6.381 -14.5370  0.00  0.00     0.000 C
ATOM     32  C2  BGC B   3      18.057  -7.127 -14.7510  0.00  0.00     0.000 C
ATOM     33  C3  BGC B   3      18.364  -8.562 -15.1400  0.00  0.00     0.000 C
ATOM     34  C4  BGC B   3      19.278  -8.594 -16.3650  0.00  0.00     0.000 C
ATOM     35  C5  BGC B   3      20.497  -7.718 -16.1370  0.00  0.00     0.000 C
ATOM     36  O5  BGC B   3      20.074  -6.400 -15.7710  0.00  0.00     0.000 O
ATOM     37   O  BGC B   3      17.314  -7.138 -13.5340  0.00  0.00     0.000 O
ATOM     39  HD  BGC B   3      16.638  -7.460 -13.9690  0.00  0.00     0.000 HD
ATOM     39   O  BGC B   3      17.139  -9.226 -15.4120  0.00  0.00     0.000 O
ATOM     41  HD  BGC B   3      16.463  -9.548 -15.8470  0.00  0.00     0.000 HD
ATOM     41   C  BGC B   3      21.421  -7.617 -17.3460  0.00  0.00     0.000 C
ATOM     42   O  BGC B   3      20.714  -7.121 -18.4580  0.00  0.00     0.000 O
ATOM     44  HD  BGC B   3      20.038  -7.442 -18.8930  0.00  0.00     0.000 HD
BRANCH 31 44
ATOM     44  O4  BGC B   4      19.053  -5.038 -14.2800  0.00  0.00     0.000 O
BRANCH 44 48
ATOM     45  C1  BGC B   4      20.927  -1.500 -13.4000  0.00  0.00     0.000 C
ATOM     46  C2  BGC B   4      20.766  -1.784 -14.8870  0.00  0.00     0.000 C
ATOM     47  C3  BGC B   4      19.744  -2.876 -15.0820  0.00  0.00     0.000 C
ATOM     48  C4  BGC B   4      20.118  -4.109 -14.2540  0.00  0.00     0.000 C
ATOM     49  C5  BGC B   4      20.362  -3.722 -12.7910  0.00  0.00     0.000 C
ATOM     50  O5  BGC B   4      21.351  -2.684 -12.7230  0.00  0.00     0.000 O
ATOM     51   O  BGC B   4      20.322  -0.596 -15.5700  0.00  0.00     0.000 O
ATOM     53  HD  BGC B   4      19.570  -1.023 -15.5340  0.00  0.00     0.000 HD
ATOM     53   O  BGC B   4      19.698  -3.222 -16.4740  0.00  0.00     0.000 O
ATOM     55  HD  BGC B   4      18.946  -3.649 -16.4380  0.00  0.00     0.000 HD
ATOM     55   C  BGC B   4      20.852  -4.860 -11.9140  0.00  0.00     0.000 C
ATOM     56   O  BGC B   4      22.027  -5.402 -12.5200  0.00  0.00     0.000 O
ATOM     58  HD  BGC B   4      21.275  -5.829 -12.4840  0.00  0.00     0.000 HD
BRANCH 45 58
ATOM     58  O4  BGC B   5      22.075  -0.659 -13.2840  0.00  0.00     0.000 O
BRANCH 58 62
ATOM     59  C1  BGC B   5      22.203   3.132 -11.6230  0.00  0.00     0.000 C
ATOM     60  C2  BGC B   5      23.394   2.247 -11.3160  0.00  0.00     0.000 C
ATOM     61  C3  BGC B   5      23.452   1.078 -12.2810  0.00  0.00     0.000 C
ATOM     62  C4  BGC B   5      22.128   0.332 -12.2550  0.00  0.00     0.000 C
ATOM     63  C5  BGC B   5      20.958   1.297 -12.4930  0.00  0.00     0.000 C
ATOM     64  O5  BGC B   5      21.016   2.339 -11.5240  0.00  0.00     0.000 O
ATOM     65   O  BGC B   5      19.562   0.064 -11.0690  0.00  0.00     0.000 O
ATOM     67  HD  BGC B   5      19.475  -0.725 -10.7240  0.00  0.00     0.000 HD
ATOM     67   O  BGC B   5      19.562   0.064 -11.0690  0.00  0.00     0.000 O
ATOM     69  HD  BGC B   5      19.475  -0.725 -10.7240  0.00  0.00     0.000 HD
ENDBRANCH 58 62
ENDBRANCH 45 58
ENDBRANCH 44 48
ENDBRANCH 31 44
ENDBRANCH 30 34
ENDBRANCH 17 30
ENDBRANCH 16 20
ENDBRANCH 1 16
TORSDOF 8
ENDMDL
MODEL 22
REMARK VINA RESULT:      -8.4      4.591     10.132
ROOT
ATOM      1  C1  BGC B   1      19.302  -5.400 -14.3920  0.00  0.00     0.000 C
ATOM      2  C2  BGC B   1      20.446  -5.240 -13.3920  0.00  0.00     0.000 C
ATOM      3  C3  BGC B   1      20.118  -4.144 -12.3970  0.00  0.00     0.000 C
ATOM      4  C4  BGC B   1      19.719  -2.862 -13.1180  0.00  0.00     0.000 C
ATOM      5  C5  BGC B   1      18.567  -3.178 -14.0600  0.00  0.00     0.000 C
ATOM      6  O5  BGC B   1      19.041  -4.148 -15.0110  0.00  0.00     0.000 O
ATOM      7   O  BGC B   1      20.635  -6.478 -12.6870  0.00  0.00     0.000 O
ATOM      9  HD  BGC B   1      20.964  -6.440 -11.8870  0.00  0.00     0.000 HD
ATOM      9   O  BGC B   1      21.256  -3.925 -11.5590  0.00  0.00     0.000 O
ATOM     11  HD  BGC B   1      21.585  -3.886 -10.7580  0.00  0.00     0.000 HD
ATOM     11   O  BGC B   1      19.318  -1.893 -12.1740  0.00  0.00     0.000 O
ATOM     13  HD  BGC B   1      19.647  -1.855 -11.3740  0.00  0.00     0.000 HD
ATOM     13   C  BGC B   1      18.020  -1.980 -14.8230  0.00  0.00     0.000 C
ATOM     14   O  BGC B   1      19.031  -1.297 -15.5570  0.00  0.00     0.000 O
ATOM     16  HD  BGC B   1      19.360  -1.258 -14.7570  0.00  0.00     0.000 HD
ENDROOT
BRANCH 1 16
ATOM     16  O4  BGC B   2      19.799  -6.235 -15.4360  0.00  0.00     0.000 O
BRANCH 16 20
ATOM     17  C1  BGC B   2      18.471  -8.750 -18.3420  0.00  0.00     0.000 C
ATOM     18  C2  BGC B   2      18.516  -7.291 -18.7700  0.00  0.00     0.000 C
ATOM     19  C3  BGC B   2      19.355  -6.514 -17.7590  0.00  0.00     0.000 C
ATOM     20  C4  BGC B   2      18.832  -6.736 -16.3540  0.00  0.00     0.000 C
ATOM     21  C5  BGC B   2      18.623  -8.218 -16.0370  0.00  0.00     0.000 C
ATOM     22  O5  BGC B   2      17.807  -8.794 -17.0650  0.00  0.00     0.000 O
ATOM     23   O  BGC B   2      19.119  -7.176 -20.0690  0.00  0.00     0.000 O
ATOM     25  HD  BGC B   2      19.403  -7.028 -19.2650  0.00  0.00     0.000 HD
ATOM     25   O  BGC B   2      19.338  -5.128 -18.0780  0.00  0.00     0.000 O
ATOM     27  HD  BGC B   2      19.621  -4.980 -17.2730  0.00  0.00     0.000 HD
ATOM     27   C  BGC B   2      17.922  -8.447 -14.7040  0.00  0.00     0.000 C
ATOM     28   O  BGC B   2      16.669  -7.788 -14.6070  0.00  0.00     0.000 O
ATOM     30  HD  BGC B   2      16.953  -7.640 -13.8030  0.00  0.00     0.000 HD
BRANCH 17 30
ATOM     30  O4  BGC B   3      17.596  -9.412 -19.2360  0.00  0.00     0.000 O
BRANCH 30 34
ATOM     31  C1  BGC B   3      16.978 -13.167 -20.7990  0.00  0.00     0.000 C
ATOM     32  C2  BGC B   3      16.450 -12.977 -19.3770  0.00  0.00     0.000 C
ATOM     33  C3  BGC B   3      16.374 -11.491 -19.0760  0.00  0.00     0.000 C
ATOM     34  C4  BGC B   3      17.735 -10.835 -19.3040  0.00  0.00     0.000 C
ATOM     35  C5  BGC B   3      18.266 -11.183 -20.6840  0.00  0.00     0.000 C
ATOM     36  O5  BGC B   3      18.280 -12.606 -20.8430  0.00  0.00     0.000 O
ATOM     37   O  BGC B   3      15.137 -13.525 -19.2800  0.00  0.00     0.000 O
ATOM     39  HD  BGC B   3      15.171 -13.412 -18.4220  0.00  0.00     0.000 HD
ATOM     39   O  BGC B   3      15.957 -11.325 -17.7290  0.00  0.00     0.000 O
ATOM     41  HD  BGC B   3      15.991 -11.212 -16.8710  0.00  0.00     0.000 HD
ATOM     41   C  BGC B   3      19.664 -10.646 -20.9640  0.00  0.00     0.000 C
ATOM     42   O  BGC B   3      20.572 -11.128 -20.0010  0.00  0.00     0.000 O
ATOM     44  HD  BGC B   3      20.606 -11.014 -19.1430  0.00  0.00     0.000 HD
BRANCH 31 44
ATOM     44  O4  BGC B   4      17.131 -14.548 -21.0040  0.00  0.00     0.000 O
BRANCH 44 48
ATOM     45  C1  BGC B   4      18.074 -17.079 -24.0880  0.00  0.00     0.000 C
ATOM     46  C2  BGC B   4      19.230 -16.754 -23.1530  0.00  0.00     0.000 C
ATOM     47  C3  BGC B   4      18.692 -16.160 -21.8740  0.00  0.00     0.000 C
ATOM     48  C4  BGC B   4      17.791 -14.961 -22.1830  0.00  0.00     0.000 C
ATOM     49  C5  BGC B   4      16.716 -15.344 -23.2080  0.00  0.00     0.000 C
ATOM     50  O5  BGC B   4      17.337 -15.891 -24.3800  0.00  0.00     0.000 O
ATOM     51   O  BGC B   4      19.966 -17.952 -22.8420  0.00  0.00     0.000 O
ATOM     53  HD  BGC B   4      19.514 -17.874 -22.1070  0.00  0.00     0.000 HD
ATOM     53   O  BGC B   4      19.796 -15.739 -21.0600  0.00  0.00     0.000 O
ATOM     55  HD  BGC B   4      19.345 -15.660 -20.3260  0.00  0.00     0.000 HD
ATOM     55   C  BGC B   4      15.844 -14.189 -23.6650  0.00  0.00     0.000 C
ATOM     56   O  BGC B   4      16.705 -13.163 -24.1620  0.00  0.00     0.000 O
ATOM     58  HD  BGC B   4      16.253 -13.085 -23.4280  0.00  0.00     0.000 HD
BRANCH 45 58
ATOM     58  O4  BGC B   5      18.665 -17.386 -25.3500  0.00  0.00     0.000 O
BRANCH 58 62
ATOM     59  C1  BGC B   5      17.624 -18.658 -29.1510  0.00  0.00     0.000 C
ATOM     60  C2  BGC B   5      17.541 -17.162 -28.9200  0.00  0.00     0.000 C
ATOM     61  C3  BGC B   5      18.320 -16.771 -27.6790  0.00  0.00     0.000 C
ATOM     62  C4  BGC B   5      17.832 -17.588 -26.4940  0.00  0.00     0.000 C
ATOM     63  C5  BGC B   5      17.866 -19.088 -26.8200  0.00  0.00     0.000 C
ATOM     64  O5  BGC B   5      17.098 -19.321 -27.9970  0.00  0.00     0.000 O
ATOM     65   O  BGC B   5      15.961 -19.486 -25.5120  0.00  0.00     0.000 O
ATOM     67  HD  BGC B   5      15.503 -19.142 -24.8620  0.00  0.00     0.000 HD
ATOM     67   O  BGC B   5      15.961 -19.486 -25.5120  0.00  0.00     0.000 O
ATOM     69  HD  BGC B   5      15.503 -19.142 -24.8620  0.00  0.00     0.000 HD
ENDBRANCH 58 62
ENDBRANCH 45 58
ENDBRANCH 44 48
ENDBRANCH 31 44
ENDBRANCH 30 34
ENDBRANCH 17 30
ENDBRANCH 16 20
ENDBRANCH 1 16
TORSDOF 8
ENDMDL
MODEL 23
REMARK VINA RESULT:      -8.4      6.928     20.250
ROOT
ATOM      1  C1  BGC B   1      18.082 -24.095 -20.6810  0.00  0.00     0.000 C
ATOM      2  C2  BGC B   1      16.904 -24.944 -20.2060  0.00  0.00     0.000 C
ATOM      3  C3  BGC B   1      17.397 -26.294 -19.7220  0.00  0.00     0.000 C
ATOM      4  C4  BGC B   1      18.275 -26.957 -20.7750  0.00  0.00     0.000 C
ATOM      5  C5  BGC B   1      19.405 -26.002 -21.1320  0.00  0.00     0.000 C
ATOM      6  O5  BGC B   1      18.806 -24.810 -21.6730  0.00  0.00     0.000 O
ATOM      7   O  BGC B   1      16.238 -24.268 -19.1270  0.00  0.00     0.000 O
ATOM      9  HD  BGC B   1      15.819 -24.754 -18.5450  0.00  0.00     0.000 HD
ATOM      9   O  BGC B   1      16.267 -27.114 -19.4100  0.00  0.00     0.000 O
ATOM     11  HD  BGC B   1      15.848 -27.600 -18.8280  0.00  0.00     0.000 HD
ATOM     11   O  BGC B   1      18.806 -28.159 -20.2610  0.00  0.00     0.000 O
ATOM     13  HD  BGC B   1      18.387 -28.645 -19.6790  0.00  0.00     0.000 HD
ATOM     13   C  BGC B   1      20.403 -26.544 -22.1450  0.00  0.00     0.000 C
ATOM     14   O  BGC B   1      19.776 -26.973 -23.3490  0.00  0.00     0.000 O
ATOM     16  HD  BGC B   1      19.357 -27.459 -22.7670  0.00  0.00     0.000 HD
ENDROOT
BRANCH 1 16
ATOM     16  O4  BGC B   2      17.517 -22.979 -21.3660  0.00  0.00     0.000 O
BRANCH 16 20
ATOM     17  C1  BGC B   2      17.950 -18.935 -21.3410  0.00  0.00     0.000 C
ATOM     18  C2  BGC B   2      18.595 -19.612 -22.5420  0.00  0.00     0.000 C
ATOM     19  C3  BGC B   2      18.064 -21.040 -22.6360  0.00  0.00     0.000 C
ATOM     20  C4  BGC B   2      18.271 -21.770 -21.3250  0.00  0.00     0.000 C
ATOM     21  C5  BGC B   2      17.776 -20.962 -20.1240  0.00  0.00     0.000 C
ATOM     22  O5  BGC B   2      18.374 -19.661 -20.1720  0.00  0.00     0.000 O
ATOM     23   O  BGC B   2      18.258 -18.904 -23.7470  0.00  0.00     0.000 O
ATOM     25  HD  BGC B   2      17.974 -19.640 -23.3880  0.00  0.00     0.000 HD
ATOM     25   O  BGC B   2      18.719 -21.732 -23.6930  0.00  0.00     0.000 O
ATOM     27  HD  BGC B   2      18.436 -22.467 -23.3340  0.00  0.00     0.000 HD
ATOM     27   C  BGC B   2      18.147 -21.595 -18.7890  0.00  0.00     0.000 C
ATOM     28   O  BGC B   2      19.540 -21.813 -18.6380  0.00  0.00     0.000 O
ATOM     30  HD  BGC B   2      19.257 -22.548 -18.2780  0.00  0.00     0.000 HD
BRANCH 17 30
ATOM     30  O4  BGC B   3      18.549 -17.658 -21.2210  0.00  0.00     0.000 O
BRANCH 30 34
ATOM     31  C1  BGC B   3      17.677 -13.926 -19.7260  0.00  0.00     0.000 C
ATOM     32  C2  BGC B   3      17.318 -15.082 -18.7940  0.00  0.00     0.000 C
ATOM     33  C3  BGC B   3      18.036 -16.335 -19.2660  0.00  0.00     0.000 C
ATOM     34  C4  BGC B   3      17.699 -16.617 -20.7290  0.00  0.00     0.000 C
ATOM     35  C5  BGC B   3      17.944 -15.380 -21.5760  0.00  0.00     0.000 C
ATOM     36  O5  BGC B   3      17.222 -14.274 -21.0240  0.00  0.00     0.000 O
ATOM     37   O  BGC B   3      17.758 -14.781 -17.4710  0.00  0.00     0.000 O
ATOM     39  HD  BGC B   3      17.325 -15.475 -17.1870  0.00  0.00     0.000 HD
ATOM     39   O  BGC B   3      17.636 -17.420 -18.4420  0.00  0.00     0.000 O
ATOM     41  HD  BGC B   3      17.203 -18.114 -18.1570  0.00  0.00     0.000 HD
ATOM     41   C  BGC B   3      17.547 -15.542 -23.0390  0.00  0.00     0.000 C
ATOM     42   O  BGC B   3      16.186 -15.889 -23.1370  0.00  0.00     0.000 O
ATOM     44  HD  BGC B   3      15.753 -16.583 -22.8530  0.00  0.00     0.000 HD
BRANCH 31 44
ATOM     44  O4  BGC B   4      16.918 -12.815 -19.3210  0.00  0.00     0.000 O
BRANCH 44 48
ATOM     45  C1  BGC B   4      17.472  -8.841 -18.4830  0.00  0.00     0.000 C
ATOM     46  C2  BGC B   4      17.059  -9.139 -19.9180  0.00  0.00     0.000 C
ATOM     47  C3  BGC B   4      16.512 -10.543 -20.0020  0.00  0.00     0.000 C
ATOM     48  C4  BGC B   4      17.521 -11.542 -19.4300  0.00  0.00     0.000 C
ATOM     49  C5  BGC B   4      17.964 -11.116 -18.0240  0.00  0.00     0.000 C
ATOM     50  O5  BGC B   4      18.469  -9.773 -18.0620  0.00  0.00     0.000 O
ATOM     51   O  BGC B   4      16.041  -8.212 -20.3400  0.00  0.00     0.000 O
ATOM     53  HD  BGC B   4      15.542  -8.902 -20.1850  0.00  0.00     0.000 HD
ATOM     53   O  BGC B   4      16.249 -10.854 -21.3780  0.00  0.00     0.000 O
ATOM     55  HD  BGC B   4      15.750 -11.544 -21.2230  0.00  0.00     0.000 HD
ATOM     55   C  BGC B   4      19.053 -11.983 -17.4190  0.00  0.00     0.000 C
ATOM     56   O  BGC B   4      20.150 -12.006 -18.3340  0.00  0.00     0.000 O
ATOM     58  HD  BGC B   4      19.651 -12.696 -18.1790  0.00  0.00     0.000 HD
BRANCH 45 58
ATOM     58  O4  BGC B   5      18.205  -7.617 -18.5340  0.00  0.00     0.000 O
BRANCH 58 62
ATOM     59  C1  BGC B   5      20.038  -4.916 -15.9860  0.00  0.00     0.000 C
ATOM     60  C2  BGC B   5      20.932  -6.018 -16.5170  0.00  0.00     0.000 C
ATOM     61  C3  BGC B   5      20.301  -6.679 -17.7280  0.00  0.00     0.000 C
ATOM     62  C4  BGC B   5      18.903  -7.160 -17.3730  0.00  0.00     0.000 C
ATOM     63  C5  BGC B   5      18.075  -6.017 -16.7670  0.00  0.00     0.000 C
ATOM     64  O5  BGC B   5      18.773  -5.489 -15.6440  0.00  0.00     0.000 O
ATOM     65   O  BGC B   5      16.938  -7.500 -15.3520  0.00  0.00     0.000 O
ATOM     67  HD  BGC B   5      16.736  -8.338 -15.2710  0.00  0.00     0.000 HD
ATOM     67   O  BGC B   5      16.938  -7.500 -15.3520  0.00  0.00     0.000 O
ATOM     69  HD  BGC B   5      16.736  -8.338 -15.2710  0.00  0.00     0.000 HD
ENDBRANCH 58 62
ENDBRANCH 45 58
ENDBRANCH 44 48
ENDBRANCH 31 44
ENDBRANCH 30 34
ENDBRANCH 17 30
ENDBRANCH 16 20
ENDBRANCH 1 16
TORSDOF 8
ENDMDL
MODEL 24
REMARK VINA RESULT:      -8.4      7.043     14.090
ROOT
ATOM      1  C1  BGC B   1      19.243  -8.451 -16.1300  0.00  0.00     0.000 C
ATOM      2  C2  BGC B   1      18.192  -7.784 -15.2450  0.00  0.00     0.000 C
ATOM      3  C3  BGC B   1      18.665  -6.407 -14.8220  0.00  0.00     0.000 C
ATOM      4  C4  BGC B   1      20.059  -6.480 -14.2090  0.00  0.00     0.000 C
ATOM      5  C5  BGC B   1      20.990  -7.151 -15.2090  0.00  0.00     0.000 C
ATOM      6  O5  BGC B   1      20.486  -8.479 -15.4420  0.00  0.00     0.000 O
ATOM      7   O  BGC B   1      16.964  -7.656 -15.9810  0.00  0.00     0.000 O
ATOM      9  HD  BGC B   1      16.432  -7.008 -15.7670  0.00  0.00     0.000 HD
ATOM      9   O  BGC B   1      17.727  -5.861 -13.8900  0.00  0.00     0.000 O
ATOM     11  HD  BGC B   1      17.194  -5.213 -13.6750  0.00  0.00     0.000 HD
ATOM     11   O  BGC B   1      20.519  -5.178 -13.9210  0.00  0.00     0.000 O
ATOM     13  HD  BGC B   1      19.986  -4.530 -13.7070  0.00  0.00     0.000 HD
ATOM     13   C  BGC B   1      22.440  -7.255 -14.7600  0.00  0.00     0.000 C
ATOM     14   O  BGC B   1      22.573  -7.915 -13.5040  0.00  0.00     0.000 O
ATOM     16  HD  BGC B   1      22.040  -7.267 -13.2900  0.00  0.00     0.000 HD
ENDROOT
BRANCH 1 16
ATOM     16  O4  BGC B   2      18.853  -9.818 -16.2490  0.00  0.00     0.000 O
BRANCH 16 20
ATOM     17  C1  BGC B   2      19.040 -12.994 -18.7820  0.00  0.00     0.000 C
ATOM     18  C2  BGC B   2      20.403 -12.497 -18.3230  0.00  0.00     0.000 C
ATOM     19  C3  BGC B   2      20.203 -11.573 -17.1240  0.00  0.00     0.000 C
ATOM     20  C4  BGC B   2      19.220 -10.472 -17.4620  0.00  0.00     0.000 C
ATOM     21  C5  BGC B   2      17.937 -11.010 -18.0970  0.00  0.00     0.000 C
ATOM     22  O5  BGC B   2      18.294 -11.839 -19.2110  0.00  0.00     0.000 O
ATOM     23   O  BGC B   2      21.226 -13.607 -17.9300  0.00  0.00     0.000 O
ATOM     25  HD  BGC B   2      20.776 -13.013 -17.4900  0.00  0.00     0.000 HD
ATOM     25   O  BGC B   2      21.452 -11.016 -16.7290  0.00  0.00     0.000 O
ATOM     27  HD  BGC B   2      21.001 -10.422 -16.2890  0.00  0.00     0.000 HD
ATOM     27   C  BGC B   2      17.022  -9.907 -18.6140  0.00  0.00     0.000 C
ATOM     28   O  BGC B   2      17.654  -9.042 -19.5440  0.00  0.00     0.000 O
ATOM     30  HD  BGC B   2      17.204  -8.447 -19.1030  0.00  0.00     0.000 HD
BRANCH 17 30
ATOM     30  O4  BGC B   3      19.255 -13.751 -19.9580  0.00  0.00     0.000 O
BRANCH 30 34
ATOM     31  C1  BGC B   3      17.947 -17.246 -21.6910  0.00  0.00     0.000 C
ATOM     32  C2  BGC B   3      17.019 -16.050 -21.8970  0.00  0.00     0.000 C
ATOM     33  C3  BGC B   3      17.780 -14.776 -21.5750  0.00  0.00     0.000 C
ATOM     34  C4  BGC B   3      18.360 -14.850 -20.1630  0.00  0.00     0.000 C
ATOM     35  C5  BGC B   3      19.153 -16.133 -19.9830  0.00  0.00     0.000 C
ATOM     36  O5  BGC B   3      18.329 -17.253 -20.3240  0.00  0.00     0.000 O
ATOM     37   O  BGC B   3      16.607 -15.997 -23.2610  0.00  0.00     0.000 O
ATOM     39  HD  BGC B   3      16.039 -15.378 -23.0480  0.00  0.00     0.000 HD
ATOM     39   O  BGC B   3      16.889 -13.677 -21.6930  0.00  0.00     0.000 O
ATOM     41  HD  BGC B   3      16.322 -13.059 -21.4810  0.00  0.00     0.000 HD
ATOM     41   C  BGC B   3      19.693 -16.335 -18.5720  0.00  0.00     0.000 C
ATOM     42   O  BGC B   3      18.636 -16.328 -17.6420  0.00  0.00     0.000 O
ATOM     44  HD  BGC B   3      18.069 -15.709 -17.4290  0.00  0.00     0.000 HD
BRANCH 31 44
ATOM     44  O4  BGC B   4      17.183 -18.406 -21.8980  0.00  0.00     0.000 O
BRANCH 44 48
ATOM     45  C1  BGC B   4      17.509 -22.492 -21.8500  0.00  0.00     0.000 C
ATOM     46  C2  BGC B   4      17.695 -21.821 -20.4960  0.00  0.00     0.000 C
ATOM     47  C3  BGC B   4      17.174 -20.407 -20.5600  0.00  0.00     0.000 C
ATOM     48  C4  BGC B   4      17.828 -19.650 -21.7200  0.00  0.00     0.000 C
ATOM     49  C5  BGC B   4      17.685 -20.440 -23.0270  0.00  0.00     0.000 C
ATOM     50  O5  BGC B   4      18.216 -21.762 -22.8550  0.00  0.00     0.000 O
ATOM     51   O  BGC B   4      16.971 -22.545 -19.4830  0.00  0.00     0.000 O
ATOM     53  HD  BGC B   4      16.424 -21.883 -19.5960  0.00  0.00     0.000 HD
ATOM     53   O  BGC B   4      17.474 -19.748 -19.3210  0.00  0.00     0.000 O
ATOM     55  HD  BGC B   4      16.928 -19.085 -19.4340  0.00  0.00     0.000 HD
ATOM     55   C  BGC B   4      18.405 -19.824 -24.2130  0.00  0.00     0.000 C
ATOM     56   O  BGC B   4      19.775 -19.650 -23.8490  0.00  0.00     0.000 O
ATOM     58  HD  BGC B   4      19.229 -18.987 -23.9620  0.00  0.00     0.000 HD
BRANCH 45 58
ATOM     58  O4  BGC B   5      18.249 -23.711 -21.7870  0.00  0.00     0.000 O
BRANCH 58 62
ATOM     59  C1  BGC B   5      18.205 -27.300 -23.8540  0.00  0.00     0.000 C
ATOM     60  C2  BGC B   5      17.329 -26.206 -24.4310  0.00  0.00     0.000 C
ATOM     61  C3  BGC B   5      17.727 -24.854 -23.8720  0.00  0.00     0.000 C
ATOM     62  C4  BGC B   5      17.700 -24.904 -22.3530  0.00  0.00     0.000 C
ATOM     63  C5  BGC B   5      18.541 -26.080 -21.8350  0.00  0.00     0.000 C
ATOM     64  O5  BGC B   5      18.065 -27.283 -22.4300  0.00  0.00     0.000 O
ATOM     65   O  BGC B   5      17.087 -26.412 -20.0260  0.00  0.00     0.000 O
ATOM     67  HD  BGC B   5      16.490 -25.999 -19.5530  0.00  0.00     0.000 HD
ATOM     67   O  BGC B   5      17.087 -26.412 -20.0260  0.00  0.00     0.000 O
ATOM     69  HD  BGC B   5      16.490 -25.999 -19.5530  0.00  0.00     0.000 HD
ENDBRANCH 58 62
ENDBRANCH 45 58
ENDBRANCH 44 48
ENDBRANCH 31 44
ENDBRANCH 30 34
ENDBRANCH 17 30
ENDBRANCH 16 20
ENDBRANCH 1 16
TORSDOF 8
ENDMDL
MODEL 25
REMARK VINA RESULT:      -8.4      2.117      4.482
ROOT
ATOM      1  C1  BGC B   1      19.632   2.116 -12.6920  0.00  0.00     0.000 C
ATOM      2  C2  BGC B   1      18.421   2.841 -12.1070  0.00  0.00     0.000 C
ATOM      3  C3  BGC B   1      18.718   4.321 -11.9640  0.00  0.00     0.000 C
ATOM      4  C4  BGC B   1      20.019   4.538 -11.2000  0.00  0.00     0.000 C
ATOM      5  C5  BGC B   1      21.127   3.772 -11.9080  0.00  0.00     0.000 C
ATOM      6  O5  BGC B   1      20.770   2.378 -11.8830  0.00  0.00     0.000 O
ATOM      7   O  BGC B   1      17.296   2.668 -12.9850  0.00  0.00     0.000 O
ATOM      9  HD  BGC B   1      16.688   3.284 -12.9870  0.00  0.00     0.000 HD
ATOM      9   O  BGC B   1      17.623   4.951 -11.2930  0.00  0.00     0.000 O
ATOM     11  HD  BGC B   1      17.014   5.567 -11.2950  0.00  0.00     0.000 HD
ATOM     11   O  BGC B   1      20.328   5.914 -11.1720  0.00  0.00     0.000 O
ATOM     13  HD  BGC B   1      19.720   6.531 -11.1730  0.00  0.00     0.000 HD
ATOM     13   C  BGC B   1      22.508   3.929 -11.2890  0.00  0.00     0.000 C
ATOM     14   O  BGC B   1      22.527   3.579  -9.9080  0.00  0.00     0.000 O
ATOM     16  HD  BGC B   1      21.918   4.195  -9.9100  0.00  0.00     0.000 HD
ENDROOT
BRANCH 1 16
ATOM     16  O4  BGC B   2      19.375   0.722 -12.5350  0.00  0.00     0.000 O
BRANCH 16 20
ATOM     17  C1  BGC B   2      20.072  -2.878 -14.2920  0.00  0.00     0.000 C
ATOM     18  C2  BGC B   2      21.322  -2.222 -13.7260  0.00  0.00     0.000 C
ATOM     19  C3  BGC B   2      20.897  -1.091 -12.7930  0.00  0.00     0.000 C
ATOM     20  C4  BGC B   2      19.962  -0.138 -13.5090  0.00  0.00     0.000 C
ATOM     21  C5  BGC B   2      18.823  -0.865 -14.2230  0.00  0.00     0.000 C
ATOM     22  O5  BGC B   2      19.386  -1.877 -15.0670  0.00  0.00     0.000 O
ATOM     23   O  BGC B   2      22.090  -3.183 -12.9820  0.00  0.00     0.000 O
ATOM     25  HD  BGC B   2      21.556  -2.540 -12.7540  0.00  0.00     0.000 HD
ATOM     25   O  BGC B   2      22.044  -0.395 -12.3200  0.00  0.00     0.000 O
ATOM     27  HD  BGC B   2      21.511   0.248 -12.0930  0.00  0.00     0.000 HD
ATOM     27   C  BGC B   2      17.987   0.058 -15.1010  0.00  0.00     0.000 C
ATOM     28   O  BGC B   2      18.751   0.756 -16.0710  0.00  0.00     0.000 O
ATOM     30  HD  BGC B   2      18.217   1.399 -15.8430  0.00  0.00     0.000 HD
BRANCH 17 30
ATOM     30  O4  BGC B   3      20.505  -3.841 -15.2340  0.00  0.00     0.000 O
BRANCH 30 34
ATOM     31  C1  BGC B   3      18.929  -6.639 -17.8060  0.00  0.00     0.000 C
ATOM     32  C2  BGC B   3      18.823  -5.196 -18.2960  0.00  0.00     0.000 C
ATOM     33  C3  BGC B   3      19.769  -4.330 -17.4830  0.00  0.00     0.000 C
ATOM     34  C4  BGC B   3      19.472  -4.480 -15.9910  0.00  0.00     0.000 C
ATOM     35  C5  BGC B   3      19.452  -5.948 -15.6020  0.00  0.00     0.000 C
ATOM     36  O5  BGC B   3      18.533  -6.652 -16.4430  0.00  0.00     0.000 O
ATOM     37   O  BGC B   3      19.215  -5.129 -19.6660  0.00  0.00     0.000 O
ATOM     39  HD  BGC B   3      18.933  -4.310 -19.6890  0.00  0.00     0.000 HD
ATOM     39   O  BGC B   3      19.607  -2.980 -17.8920  0.00  0.00     0.000 O
ATOM     41  HD  BGC B   3      19.326  -2.162 -17.9150  0.00  0.00     0.000 HD
ATOM     41   C  BGC B   3      19.073  -6.198 -14.1460  0.00  0.00     0.000 C
ATOM     42   O  BGC B   3      17.808  -5.645 -13.8730  0.00  0.00     0.000 O
ATOM     44  HD  BGC B   3      17.526  -4.826 -13.8960  0.00  0.00     0.000 HD
BRANCH 31 44
ATOM     44  O4  BGC B   4      17.970  -7.388 -18.5070  0.00  0.00     0.000 O
BRANCH 44 48
ATOM     45  C1  BGC B   4      17.359 -11.141 -20.0400  0.00  0.00     0.000 C
ATOM     46  C2  BGC B   4      17.343 -11.062 -18.5200  0.00  0.00     0.000 C
ATOM     47  C3  BGC B   4      17.182  -9.624 -18.0920  0.00  0.00     0.000 C
ATOM     48  C4  BGC B   4      18.258  -8.751 -18.7460  0.00  0.00     0.000 C
ATOM     49  C5  BGC B   4      18.276  -8.964 -20.2640  0.00  0.00     0.000 C
ATOM     50  O5  BGC B   4      18.438 -10.360 -20.5560  0.00  0.00     0.000 O
ATOM     51   O  BGC B   4      16.246 -11.835 -17.9970  0.00  0.00     0.000 O
ATOM     53  HD  BGC B   4      15.906 -11.042 -17.9170  0.00  0.00     0.000 HD
ATOM     53   O  BGC B   4      17.300  -9.551 -16.6640  0.00  0.00     0.000 O
ATOM     55  HD  BGC B   4      16.961  -8.759 -16.5840  0.00  0.00     0.000 HD
ATOM     55   C  BGC B   4      19.388  -8.227 -20.9880  0.00  0.00     0.000 C
ATOM     56   O  BGC B   4      20.627  -8.609 -20.3870  0.00  0.00     0.000 O
ATOM     58  HD  BGC B   4      20.287  -7.816 -20.3060  0.00  0.00     0.000 HD
BRANCH 45 58
ATOM     58  O4  BGC B   5      17.768 -12.470 -20.3590  0.00  0.00     0.000 O
BRANCH 58 62
ATOM     59  C1  BGC B   5      16.272 -15.207 -23.0830  0.00  0.00     0.000 C
ATOM     60  C2  BGC B   5      17.762 -14.945 -23.1760  0.00  0.00     0.000 C
ATOM     61  C3  BGC B   5      18.266 -14.278 -21.9100  0.00  0.00     0.000 C
ATOM     62  C4  BGC B   5      17.452 -13.023 -21.6390  0.00  0.00     0.000 C
ATOM     63  C5  BGC B   5      15.950 -13.342 -21.6360  0.00  0.00     0.000 C
ATOM     64  O5  BGC B   5      15.608 -13.957 -22.8740  0.00  0.00     0.000 O
ATOM     65   O  BGC B   5      15.433 -11.245 -22.5470  0.00  0.00     0.000 O
ATOM     67  HD  BGC B   5      15.758 -10.447 -22.6350  0.00  0.00     0.000 HD
ATOM     67   O  BGC B   5      15.433 -11.245 -22.5470  0.00  0.00     0.000 O
ATOM     69  HD  BGC B   5      15.758 -10.447 -22.6350  0.00  0.00     0.000 HD
ENDBRANCH 58 62
ENDBRANCH 45 58
ENDBRANCH 44 48
ENDBRANCH 31 44
ENDBRANCH 30 34
ENDBRANCH 17 30
ENDBRANCH 16 20
ENDBRANCH 1 16
TORSDOF 8
ENDMDL
MODEL 26
REMARK VINA RESULT:      -8.3      5.523     10.406
ROOT
ATOM      1  C1  BGC B   1      21.490  -5.408 -15.1190  0.00  0.00     0.000 C
ATOM      2  C2  BGC B   1      21.883  -4.082 -15.7700  0.00  0.00     0.000 C
ATOM      3  C3  BGC B   1      22.625  -3.213 -14.7740  0.00  0.00     0.000 C
ATOM      4  C4  BGC B   1      21.831  -3.075 -13.4810  0.00  0.00     0.000 C
ATOM      5  C5  BGC B   1      21.532  -4.469 -12.9490  0.00  0.00     0.000 C
ATOM      6  O5  BGC B   1      20.739  -5.147 -13.9410  0.00  0.00     0.000 O
ATOM      7   O  BGC B   1      22.734  -4.343 -16.8980  0.00  0.00     0.000 O
ATOM      9  HD  BGC B   1      23.303  -3.730 -17.1230  0.00  0.00     0.000 HD
ATOM      9   O  BGC B   1      22.862  -1.932 -15.3650  0.00  0.00     0.000 O
ATOM     11  HD  BGC B   1      23.431  -1.318 -15.5900  0.00  0.00     0.000 HD
ATOM     11   O  BGC B   1      22.588  -2.352 -12.5340  0.00  0.00     0.000 O
ATOM     13  HD  BGC B   1      23.157  -1.739 -12.7600  0.00  0.00     0.000 HD
ATOM     13   C  BGC B   1      20.780  -4.501 -11.6260  0.00  0.00     0.000 C
ATOM     14   O  BGC B   1      19.562  -3.764 -11.6770  0.00  0.00     0.000 O
ATOM     16  HD  BGC B   1      20.131  -3.150 -11.9020  0.00  0.00     0.000 HD
ENDROOT
BRANCH 1 16
ATOM     16  O4  BGC B   2      20.573  -6.034 -16.0140  0.00  0.00     0.000 O
BRANCH 16 20
ATOM     17  C1  BGC B   2      19.177  -9.766 -16.8260  0.00  0.00     0.000 C
ATOM     18  C2  BGC B   2      18.253  -8.949 -15.9350  0.00  0.00     0.000 C
ATOM     19  C3  BGC B   2      18.686  -7.486 -16.0020  0.00  0.00     0.000 C
ATOM     20  C4  BGC B   2      20.157  -7.352 -15.6650  0.00  0.00     0.000 C
ATOM     21  C5  BGC B   2      21.027  -8.331 -16.4530  0.00  0.00     0.000 C
ATOM     22  O5  BGC B   2      20.502  -9.653 -16.2740  0.00  0.00     0.000 O
ATOM     23   O  BGC B   2      16.897  -9.060 -16.3960  0.00  0.00     0.000 O
ATOM     25  HD  BGC B   2      17.502  -8.444 -16.4650  0.00  0.00     0.000 HD
ATOM     25   O  BGC B   2      17.902  -6.708 -15.1050  0.00  0.00     0.000 O
ATOM     27  HD  BGC B   2      18.507  -6.092 -15.1740  0.00  0.00     0.000 HD
ATOM     27   C  BGC B   2      22.478  -8.342 -15.9910  0.00  0.00     0.000 C
ATOM     28   O  BGC B   2      22.626  -8.624 -14.6090  0.00  0.00     0.000 O
ATOM     30  HD  BGC B   2      23.231  -8.008 -14.6780  0.00  0.00     0.000 HD
BRANCH 17 30
ATOM     30  O4  BGC B   3      18.819 -11.124 -16.6500  0.00  0.00     0.000 O
BRANCH 30 34
ATOM     31  C1  BGC B   3      19.038 -14.729 -18.6200  0.00  0.00     0.000 C
ATOM     32  C2  BGC B   3      20.392 -14.099 -18.2970  0.00  0.00     0.000 C
ATOM     33  C3  BGC B   3      20.194 -13.018 -17.2500  0.00  0.00     0.000 C
ATOM     34  C4  BGC B   3      19.158 -12.002 -17.7290  0.00  0.00     0.000 C
ATOM     35  C5  BGC B   3      17.888 -12.709 -18.1680  0.00  0.00     0.000 C
ATOM     36  O5  BGC B   3      18.211 -13.704 -19.1460  0.00  0.00     0.000 O
ATOM     37   O  BGC B   3      21.264 -15.092 -17.7610  0.00  0.00     0.000 O
ATOM     39  HD  BGC B   3      21.917 -14.526 -17.8170  0.00  0.00     0.000 HD
ATOM     39   O  BGC B   3      21.443 -12.386 -17.0130  0.00  0.00     0.000 O
ATOM     41  HD  BGC B   3      22.096 -11.820 -17.0690  0.00  0.00     0.000 HD
ATOM     41   C  BGC B   3      16.829 -11.778 -18.7490  0.00  0.00     0.000 C
ATOM     42   O  BGC B   3      17.353 -11.074 -19.8490  0.00  0.00     0.000 O
ATOM     44  HD  BGC B   3      18.006 -10.507 -19.9050  0.00  0.00     0.000 HD
BRANCH 31 44
ATOM     44  O4  BGC B   4      19.245 -15.649 -19.6610  0.00  0.00     0.000 O
BRANCH 44 48
ATOM     45  C1  BGC B   4      17.980 -19.356 -20.8700  0.00  0.00     0.000 C
ATOM     46  C2  BGC B   4      17.083 -18.204 -21.3010  0.00  0.00     0.000 C
ATOM     47  C3  BGC B   4      17.831 -16.902 -21.1520  0.00  0.00     0.000 C
ATOM     48  C4  BGC B   4      18.376 -16.761 -19.7280  0.00  0.00     0.000 C
ATOM     49  C5  BGC B   4      19.183 -18.005 -19.3340  0.00  0.00     0.000 C
ATOM     50  O5  BGC B   4      18.377 -19.180 -19.5090  0.00  0.00     0.000 O
ATOM     51   O  BGC B   4      16.695 -18.369 -22.6780  0.00  0.00     0.000 O
ATOM     53  HD  BGC B   4      17.308 -17.765 -22.7790  0.00  0.00     0.000 HD
ATOM     53   O  BGC B   4      16.933 -15.819 -21.4360  0.00  0.00     0.000 O
ATOM     55  HD  BGC B   4      17.546 -15.215 -21.5370  0.00  0.00     0.000 HD
ATOM     55   C  BGC B   4      19.668 -18.010 -17.8960  0.00  0.00     0.000 C
ATOM     56   O  BGC B   4      18.529 -17.830 -17.0520  0.00  0.00     0.000 O
ATOM     58  HD  BGC B   4      19.142 -17.226 -17.1530  0.00  0.00     0.000 HD
BRANCH 45 58
ATOM     58  O4  BGC B   5      17.134 -20.503 -20.7920  0.00  0.00     0.000 O
BRANCH 58 62
ATOM     59  C1  BGC B   5      17.399 -24.587 -21.4220  0.00  0.00     0.000 C
ATOM     60  C2  BGC B   5      17.450 -24.148 -19.9720  0.00  0.00     0.000 C
ATOM     61  C3  BGC B   5      16.937 -22.728 -19.8270  0.00  0.00     0.000 C
ATOM     62  C4  BGC B   5      17.711 -21.810 -20.7590  0.00  0.00     0.000 C
ATOM     63  C5  BGC B   5      17.687 -22.352 -22.1960  0.00  0.00     0.000 C
ATOM     64  O5  BGC B   5      18.195 -23.682 -22.1940  0.00  0.00     0.000 O
ATOM     65   O  BGC B   5      19.847 -21.539 -22.6110  0.00  0.00     0.000 O
ATOM     67  HD  BGC B   5      20.415 -20.952 -22.3260  0.00  0.00     0.000 HD
ATOM     67   O  BGC B   5      19.847 -21.539 -22.6110  0.00  0.00     0.000 O
ATOM     69  HD  BGC B   5      20.415 -20.952 -22.3260  0.00  0.00     0.000 HD
ENDBRANCH 58 62
ENDBRANCH 45 58
ENDBRANCH 44 48
ENDBRANCH 31 44
ENDBRANCH 30 34
ENDBRANCH 17 30
ENDBRANCH 16 20
ENDBRANCH 1 16
TORSDOF 8
ENDMDL
MODEL 27
REMARK VINA RESULT:      -8.3      3.094      6.444
ROOT
ATOM      1  C1  BGC B   1      21.191  -1.039 -13.6860  0.00  0.00     0.000 C
ATOM      2  C2  BGC B   1      21.925   0.020 -14.5070  0.00  0.00     0.000 C
ATOM      3  C3  BGC B   1      22.261   1.215 -13.6340  0.00  0.00     0.000 C
ATOM      4  C4  BGC B   1      21.019   1.719 -12.9100  0.00  0.00     0.000 C
ATOM      5  C5  BGC B   1      20.412   0.562 -12.1300  0.00  0.00     0.000 C
ATOM      6  O5  BGC B   1      20.046  -0.454 -13.0830  0.00  0.00     0.000 O
ATOM      7   O  BGC B   1      23.141  -0.543 -15.0260  0.00  0.00     0.000 O
ATOM      9  HD  BGC B   1      23.801  -0.003 -15.1810  0.00  0.00     0.000 HD
ATOM      9   O  BGC B   1      22.825   2.242 -14.4540  0.00  0.00     0.000 O
ATOM     11  HD  BGC B   1      23.485   2.782 -14.6090  0.00  0.00     0.000 HD
ATOM     11   O  BGC B   1      21.375   2.760 -12.0270  0.00  0.00     0.000 O
ATOM     13  HD  BGC B   1      22.035   3.300 -12.1810  0.00  0.00     0.000 HD
ATOM     13   C  BGC B   1      19.182   0.921 -11.3090  0.00  0.00     0.000 C
ATOM     14   O  BGC B   1      18.159   1.521 -12.0980  0.00  0.00     0.000 O
ATOM     16  HD  BGC B   1      18.819   2.061 -12.2520  0.00  0.00     0.000 HD
ENDROOT
BRANCH 1 16
ATOM     16  O4  BGC B   2      20.676  -1.982 -14.6240  0.00  0.00     0.000 O
BRANCH 16 20
ATOM     17  C1  BGC B   2      19.950  -5.955 -15.0990  0.00  0.00     0.000 C
ATOM     18  C2  BGC B   2      19.243  -5.344 -13.8990  0.00  0.00     0.000 C
ATOM     19  C3  BGC B   2      19.287  -3.824 -14.0330  0.00  0.00     0.000 C
ATOM     20  C4  BGC B   2      20.713  -3.350 -14.2240  0.00  0.00     0.000 C
ATOM     21  C5  BGC B   2      21.444  -4.128 -15.3190  0.00  0.00     0.000 C
ATOM     22  O5  BGC B   2      21.324  -5.528 -15.0400  0.00  0.00     0.000 O
ATOM     23   O  BGC B   2      17.872  -5.773 -13.8620  0.00  0.00     0.000 O
ATOM     25  HD  BGC B   2      18.261  -5.038 -14.1050  0.00  0.00     0.000 HD
ATOM     25   O  BGC B   2      18.717  -3.219 -12.8780  0.00  0.00     0.000 O
ATOM     27  HD  BGC B   2      19.106  -2.484 -13.1200  0.00  0.00     0.000 HD
ATOM     27   C  BGC B   2      22.929  -3.795 -15.3930  0.00  0.00     0.000 C
ATOM     28   O  BGC B   2      23.613  -3.997 -14.1670  0.00  0.00     0.000 O
ATOM     30  HD  BGC B   2      24.002  -3.262 -14.4100  0.00  0.00     0.000 HD
BRANCH 17 30
ATOM     30  O4  BGC B   3      19.989  -7.353 -14.8840  0.00  0.00     0.000 O
BRANCH 30 34
ATOM     31  C1  BGC B   3      19.904 -10.874 -17.0110  0.00  0.00     0.000 C
ATOM     32  C2  BGC B   3      21.187 -10.061 -17.1800  0.00  0.00     0.000 C
ATOM     33  C3  BGC B   3      21.264  -9.028 -16.0700  0.00  0.00     0.000 C
ATOM     34  C4  BGC B   3      20.003  -8.165 -16.0630  0.00  0.00     0.000 C
ATOM     35  C5  BGC B   3      18.763  -9.041 -16.0380  0.00  0.00     0.000 C
ATOM     36  O5  BGC B   3      18.815  -9.971 -17.1250  0.00  0.00     0.000 O
ATOM     37   O  BGC B   3      22.315 -10.925 -17.0720  0.00  0.00     0.000 O
ATOM     39  HD  BGC B   3      22.820 -10.272 -17.3330  0.00  0.00     0.000 HD
ATOM     39   O  BGC B   3      22.418  -8.228 -16.2790  0.00  0.00     0.000 O
ATOM     41  HD  BGC B   3      22.923  -7.574 -16.5400  0.00  0.00     0.000 HD
ATOM     41   C  BGC B   3      17.454  -8.264 -16.1220  0.00  0.00     0.000 C
ATOM     42   O  BGC B   3      17.426  -7.483 -17.2930  0.00  0.00     0.000 O
ATOM     44  HD  BGC B   3      17.931  -6.829 -17.5540  0.00  0.00     0.000 HD
BRANCH 31 44
ATOM     44  O4  BGC B   4      19.816 -11.745 -18.1090  0.00  0.00     0.000 O
BRANCH 44 48
ATOM     45  C1  BGC B   4      18.507 -15.501 -19.1010  0.00  0.00     0.000 C
ATOM     46  C2  BGC B   4      17.433 -14.577 -18.5460  0.00  0.00     0.000 C
ATOM     47  C3  BGC B   4      17.923 -13.151 -18.5920  0.00  0.00     0.000 C
ATOM     48  C4  BGC B   4      19.272 -13.029 -17.8780  0.00  0.00     0.000 C
ATOM     49  C5  BGC B   4      20.267 -14.061 -18.4240  0.00  0.00     0.000 C
ATOM     50  O5  BGC B   4      19.702 -15.376 -18.3270  0.00  0.00     0.000 O
ATOM     51   O  BGC B   4      16.232 -14.688 -19.3340  0.00  0.00     0.000 O
ATOM     53  HD  BGC B   4      16.535 -13.940 -19.6500  0.00  0.00     0.000 HD
ATOM     53   O  BGC B   4      16.956 -12.309 -17.9480  0.00  0.00     0.000 O
ATOM     55  HD  BGC B   4      17.259 -11.562 -18.2640  0.00  0.00     0.000 HD
ATOM     55   C  BGC B   4      21.599 -14.095 -17.6970  0.00  0.00     0.000 C
ATOM     56   O  BGC B   4      21.332 -14.302 -16.3090  0.00  0.00     0.000 O
ATOM     58  HD  BGC B   4      21.635 -13.555 -16.6250  0.00  0.00     0.000 HD
BRANCH 45 58
ATOM     58  O4  BGC B   5      18.083 -16.827 -18.7880  0.00  0.00     0.000 O
BRANCH 58 62
ATOM     59  C1  BGC B   5      17.546 -20.539 -20.5450  0.00  0.00     0.000 C
ATOM     60  C2  BGC B   5      18.963 -20.224 -20.1100  0.00  0.00     0.000 C
ATOM     61  C3  BGC B   5      18.975 -19.065 -19.1310  0.00  0.00     0.000 C
ATOM     62  C4  BGC B   5      18.258 -17.874 -19.7460  0.00  0.00     0.000 C
ATOM     63  C5  BGC B   5      16.861 -18.278 -20.2380  0.00  0.00     0.000 C
ATOM     64  O5  BGC B   5      16.990 -19.365 -21.1480  0.00  0.00     0.000 O
ATOM     65   O  BGC B   5      16.984 -16.775 -22.0340  0.00  0.00     0.000 O
ATOM     67  HD  BGC B   5      17.399 -16.059 -22.2900  0.00  0.00     0.000 HD
ATOM     67   O  BGC B   5      16.984 -16.775 -22.0340  0.00  0.00     0.000 O
ATOM     69  HD  BGC B   5      17.399 -16.059 -22.2900  0.00  0.00     0.000 HD
ENDBRANCH 58 62
ENDBRANCH 45 58
ENDBRANCH 44 48
ENDBRANCH 31 44
ENDBRANCH 30 34
ENDBRANCH 17 30
ENDBRANCH 16 20
ENDBRANCH 1 16
TORSDOF 8
ENDMDL
MODEL 28
REMARK VINA RESULT:      -8.3      2.128     14.902
ROOT
ATOM      1  C1  BGC B   1      19.658 -12.014 -20.4520  0.00  0.00     0.000 C
ATOM      2  C2  BGC B   1      20.920 -12.650 -21.0330  0.00  0.00     0.000 C
ATOM      3  C3  BGC B   1      20.547 -13.736 -22.0230  0.00  0.00     0.000 C
ATOM      4  C4  BGC B   1      19.568 -14.722 -21.3990  0.00  0.00     0.000 C
ATOM      5  C5  BGC B   1      18.365 -13.946 -20.8840  0.00  0.00     0.000 C
ATOM      6  O5  BGC B   1      18.841 -13.028 -19.8830  0.00  0.00     0.000 O
ATOM      7   O  BGC B   1      21.691 -11.641 -21.7050  0.00  0.00     0.000 O
ATOM      9  HD  BGC B   1      22.201 -11.893 -22.3590  0.00  0.00     0.000 HD
ATOM      9   O  BGC B   1      21.739 -14.402 -22.4490  0.00  0.00     0.000 O
ATOM     11  HD  BGC B   1      22.248 -14.654 -23.1030  0.00  0.00     0.000 HD
ATOM     11   O  BGC B   1      19.155 -15.659 -22.3700  0.00  0.00     0.000 O
ATOM     13  HD  BGC B   1      19.665 -15.911 -23.0230  0.00  0.00     0.000 HD
ATOM     13   C  BGC B   1      17.266 -14.802 -20.2700  0.00  0.00     0.000 C
ATOM     14   O  BGC B   1      17.751 -15.636 -19.2220  0.00  0.00     0.000 O
ATOM     16  HD  BGC B   1      18.260 -15.887 -19.8750  0.00  0.00     0.000 HD
ENDROOT
BRANCH 1 16
ATOM     16  O4  BGC B   2      20.085 -11.217 -19.3490  0.00  0.00     0.000 O
BRANCH 16 20
ATOM     17  C1  BGC B   2      19.014  -7.961 -17.1610  0.00  0.00     0.000 C
ATOM     18  C2  BGC B   2      18.166  -9.193 -16.8790  0.00  0.00     0.000 C
ATOM     19  C3  BGC B   2      18.875 -10.413 -17.4620  0.00  0.00     0.000 C
ATOM     20  C4  BGC B   2      19.187 -10.193 -18.9280  0.00  0.00     0.000 C
ATOM     21  C5  BGC B   2      19.872  -8.850 -19.1840  0.00  0.00     0.000 C
ATOM     22  O5  BGC B   2      19.078  -7.814 -18.5920  0.00  0.00     0.000 O
ATOM     23   O  BGC B   2      18.012  -9.372 -15.4610  0.00  0.00     0.000 O
ATOM     25  HD  BGC B   2      18.506  -9.754 -16.0610  0.00  0.00     0.000 HD
ATOM     25   O  BGC B   2      18.062 -11.569 -17.2990  0.00  0.00     0.000 O
ATOM     27  HD  BGC B   2      18.557 -11.952 -17.8980  0.00  0.00     0.000 HD
ATOM     27   C  BGC B   2      20.020  -8.531 -20.6660  0.00  0.00     0.000 C
ATOM     28   O  BGC B   2      18.789  -8.548 -21.3710  0.00  0.00     0.000 O
ATOM     30  HD  BGC B   2      19.283  -8.931 -21.9710  0.00  0.00     0.000 HD
BRANCH 17 30
ATOM     30  O4  BGC B   3      18.274  -6.843 -16.7080  0.00  0.00     0.000 O
BRANCH 30 34
ATOM     31  C1  BGC B   3      18.867  -3.005 -15.3480  0.00  0.00     0.000 C
ATOM     32  C2  BGC B   3      19.269  -3.231 -16.8060  0.00  0.00     0.000 C
ATOM     33  C3  BGC B   3      18.645  -4.528 -17.2920  0.00  0.00     0.000 C
ATOM     34  C4  BGC B   3      19.042  -5.683 -16.3730  0.00  0.00     0.000 C
ATOM     35  C5  BGC B   3      18.747  -5.332 -14.9250  0.00  0.00     0.000 C
ATOM     36  O5  BGC B   3      19.382  -4.092 -14.5960  0.00  0.00     0.000 O
ATOM     37   O  BGC B   3      18.771  -2.162 -17.6070  0.00  0.00     0.000 O
ATOM     39  HD  BGC B   3      19.238  -2.465 -18.2710  0.00  0.00     0.000 HD
ATOM     39   O  BGC B   3      19.085  -4.769 -18.6190  0.00  0.00     0.000 O
ATOM     41  HD  BGC B   3      19.552  -5.072 -19.2830  0.00  0.00     0.000 HD
ATOM     41   C  BGC B   3      19.197  -6.393 -13.9270  0.00  0.00     0.000 C
ATOM     42   O  BGC B   3      20.579  -6.627 -14.0580  0.00  0.00     0.000 O
ATOM     44  HD  BGC B   3      21.046  -6.930 -14.7210  0.00  0.00     0.000 HD
BRANCH 31 44
ATOM     44  O4  BGC B   4      19.543  -1.857 -14.9050  0.00  0.00     0.000 O
BRANCH 44 48
ATOM     45  C1  BGC B   4      18.921   1.519 -12.6640  0.00  0.00     0.000 C
ATOM     46  C2  BGC B   4      19.115   0.244 -11.8550  0.00  0.00     0.000 C
ATOM     47  C3  BGC B   4      19.715  -0.824 -12.7370  0.00  0.00     0.000 C
ATOM     48  C4  BGC B   4      18.864  -1.014 -13.9970  0.00  0.00     0.000 C
ATOM     49  C5  BGC B   4      18.630   0.331 -14.6960  0.00  0.00     0.000 C
ATOM     50  O5  BGC B   4      18.055   1.265 -13.7710  0.00  0.00     0.000 O
ATOM     51   O  BGC B   4      20.002   0.492 -10.7480  0.00  0.00     0.000 O
ATOM     53  HD  BGC B   4      20.555   0.090 -11.2800  0.00  0.00     0.000 HD
ATOM     53   O  BGC B   4      19.770  -2.054 -12.0010  0.00  0.00     0.000 O
ATOM     55  HD  BGC B   4      20.323  -2.455 -12.5320  0.00  0.00     0.000 HD
ATOM     55   C  BGC B   4      17.698   0.262 -15.8930  0.00  0.00     0.000 C
ATOM     56   O  BGC B   4      16.472  -0.327 -15.4570  0.00  0.00     0.000 O
ATOM     58  HD  BGC B   4      17.025  -0.728 -15.9890  0.00  0.00     0.000 HD
BRANCH 45 58
ATOM     58  O4  BGC B   5      18.126   2.380 -11.8500  0.00  0.00     0.000 O
BRANCH 58 62
ATOM     59  C1  BGC B   5      18.243   6.388 -10.8130  0.00  0.00     0.000 C
ATOM     60  C2  BGC B   5      17.053   5.968 -11.6520  0.00  0.00     0.000 C
ATOM     61  C3  BGC B   5      16.884   4.461 -11.6210  0.00  0.00     0.000 C
ATOM     62  C4  BGC B   5      18.183   3.795 -12.0470  0.00  0.00     0.000 C
ATOM     63  C5  BGC B   5      19.360   4.322 -11.2130  0.00  0.00     0.000 C
ATOM     64  O5  BGC B   5      19.409   5.740 -11.3310  0.00  0.00     0.000 O
ATOM     65   O  BGC B   5      20.825   4.130 -13.0330  0.00  0.00     0.000 O
ATOM     67  HD  BGC B   5      20.914   3.716 -13.7890  0.00  0.00     0.000 HD
ATOM     67   O  BGC B   5      20.825   4.130 -13.0330  0.00  0.00     0.000 O
ATOM     69  HD  BGC B   5      20.914   3.716 -13.7890  0.00  0.00     0.000 HD
ENDBRANCH 58 62
ENDBRANCH 45 58
ENDBRANCH 44 48
ENDBRANCH 31 44
ENDBRANCH 30 34
ENDBRANCH 17 30
ENDBRANCH 16 20
ENDBRANCH 1 16
TORSDOF 8
ENDMDL
MODEL 29
REMARK VINA RESULT:      -8.2      2.263     15.200
ROOT
ATOM      1  C1  BGC B   1      18.584  -6.021 -16.6640  0.00  0.00     0.000 C
ATOM      2  C2  BGC B   1      17.636  -7.111 -16.1670  0.00  0.00     0.000 C
ATOM      3  C3  BGC B   1      17.955  -8.429 -16.8460  0.00  0.00     0.000 C
ATOM      4  C4  BGC B   1      17.991  -8.260 -18.3600  0.00  0.00     0.000 C
ATOM      5  C5  BGC B   1      18.984  -7.157 -18.6980  0.00  0.00     0.000 C
ATOM      6  O5  BGC B   1      18.510  -5.947 -18.0810  0.00  0.00     0.000 O
ATOM      7   O  BGC B   1      17.792  -7.262 -14.7460  0.00  0.00     0.000 O
ATOM      9  HD  BGC B   1      17.616  -8.037 -14.4020  0.00  0.00     0.000 HD
ATOM      9   O  BGC B   1      16.972  -9.396 -16.4650  0.00  0.00     0.000 O
ATOM     11  HD  BGC B   1      16.797 -10.171 -16.1210  0.00  0.00     0.000 HD
ATOM     11   O  BGC B   1      18.393  -9.470 -18.9630  0.00  0.00     0.000 O
ATOM     13  HD  BGC B   1      18.217 -10.245 -18.6180  0.00  0.00     0.000 HD
ATOM     13   C  BGC B   1      19.171  -6.900 -20.1870  0.00  0.00     0.000 C
ATOM     14   O  BGC B   1      17.940  -6.619 -20.8470  0.00  0.00     0.000 O
ATOM     16  HD  BGC B   1      17.764  -7.394 -20.5030  0.00  0.00     0.000 HD
ENDROOT
BRANCH 1 16
ATOM     16  O4  BGC B   2      18.047  -4.784 -16.1980  0.00  0.00     0.000 O
BRANCH 16 20
ATOM     17  C1  BGC B   2      19.171  -1.091 -14.9200  0.00  0.00     0.000 C
ATOM     18  C2  BGC B   2      19.402  -1.320 -16.4060  0.00  0.00     0.000 C
ATOM     19  C3  BGC B   2      18.624  -2.563 -16.8320  0.00  0.00     0.000 C
ATOM     20  C4  BGC B   2      18.989  -3.743 -15.9550  0.00  0.00     0.000 C
ATOM     21  C5  BGC B   2      18.924  -3.404 -14.4650  0.00  0.00     0.000 C
ATOM     22  O5  BGC B   2      19.714  -2.232 -14.2290  0.00  0.00     0.000 O
ATOM     23   O  BGC B   2      18.932  -0.190 -17.1590  0.00  0.00     0.000 O
ATOM     25  HD  BGC B   2      18.613  -0.981 -17.0090  0.00  0.00     0.000 HD
ATOM     25   O  BGC B   2      18.896  -2.860 -18.1970  0.00  0.00     0.000 O
ATOM     27  HD  BGC B   2      18.577  -3.651 -18.0460  0.00  0.00     0.000 HD
ATOM     27   C  BGC B   2      19.469  -4.517 -13.5790  0.00  0.00     0.000 C
ATOM     28   O  BGC B   2      20.801  -4.888 -13.8960  0.00  0.00     0.000 O
ATOM     30  HD  BGC B   2      20.482  -5.678 -13.7450  0.00  0.00     0.000 HD
BRANCH 17 30
ATOM     30  O4  BGC B   3      19.994  -0.004 -14.5400  0.00  0.00     0.000 O
BRANCH 30 34
ATOM     31  C1  BGC B   3      19.704   3.277 -12.0750  0.00  0.00     0.000 C
ATOM     32  C2  BGC B   3      20.391   2.067 -11.4430  0.00  0.00     0.000 C
ATOM     33  C3  BGC B   3      20.788   1.098 -12.5420  0.00  0.00     0.000 C
ATOM     34  C4  BGC B   3      19.569   0.724 -13.3840  0.00  0.00     0.000 C
ATOM     35  C5  BGC B   3      18.852   1.975 -13.8610  0.00  0.00     0.000 C
ATOM     36  O5  BGC B   3      18.541   2.804 -12.7360  0.00  0.00     0.000 O
ATOM     37   O  BGC B   3      21.572   2.491 -10.7660  0.00  0.00     0.000 O
ATOM     39  HD  BGC B   3      21.642   1.697 -10.4270  0.00  0.00     0.000 HD
ATOM     39   O  BGC B   3      21.355  -0.056 -11.9410  0.00  0.00     0.000 O
ATOM     41  HD  BGC B   3      21.425  -0.850 -11.6020  0.00  0.00     0.000 HD
ATOM     41   C  BGC B   3      17.567   1.697 -14.6340  0.00  0.00     0.000 C
ATOM     42   O  BGC B   3      16.678   0.946 -13.8420  0.00  0.00     0.000 O
ATOM     44  HD  BGC B   3      16.748   0.152 -13.5020  0.00  0.00     0.000 HD
BRANCH 31 44
ATOM     44  O4  BGC B   4      19.261   4.099 -11.0260  0.00  0.00     0.000 O
BRANCH 44 48
ATOM     45  C1  BGC B   4      18.129   7.965 -10.2680  0.00  0.00     0.000 C
ATOM     46  C2  BGC B   4      17.156   7.173 -11.1300  0.00  0.00     0.000 C
ATOM     47  C3  BGC B   4      17.464   5.700 -11.0120  0.00  0.00     0.000 C
ATOM     48  C4  BGC B   4      18.937   5.438 -11.3420  0.00  0.00     0.000 C
ATOM     49  C5  BGC B   4      19.846   6.346 -10.5060  0.00  0.00     0.000 C
ATOM     50  O5  BGC B   4      19.469   7.718 -10.6960  0.00  0.00     0.000 O
ATOM     51   O  BGC B   4      15.804   7.407 -10.6900  0.00  0.00     0.000 O
ATOM     53  HD  BGC B   4      15.931   6.627 -10.3350  0.00  0.00     0.000 HD
ATOM     53   O  BGC B   4      16.627   4.979 -11.9280  0.00  0.00     0.000 O
ATOM     55  HD  BGC B   4      16.754   4.199 -11.5730  0.00  0.00     0.000 HD
ATOM     55   C  BGC B   4      21.322   6.241 -10.8460  0.00  0.00     0.000 C
ATOM     56   O  BGC B   4      21.466   6.493 -12.2440  0.00  0.00     0.000 O
ATOM     58  HD  BGC B   4      21.593   5.713 -11.8900  0.00  0.00     0.000 HD
BRANCH 45 58
ATOM     58  O4  BGC B   5      17.945   9.334 -10.6290  0.00  0.00     0.000 O
BRANCH 58 62
ATOM     59  C1  BGC B   5      17.832  13.150  -9.0240  0.00  0.00     0.000 C
ATOM     60  C2  BGC B   5      19.093  12.360  -8.7360  0.00  0.00     0.000 C
ATOM     61  C3  BGC B   5      19.214  11.184  -9.6870  0.00  0.00     0.000 C
ATOM     62  C4  BGC B   5      17.950  10.342  -9.6150  0.00  0.00     0.000 C
ATOM     63  C5  BGC B   5      16.706  11.214  -9.8360  0.00  0.00     0.000 C
ATOM     64  O5  BGC B   5      16.710  12.272  -8.8830  0.00  0.00     0.000 O
ATOM     65   O  BGC B   5      15.442   9.904  -8.3580  0.00  0.00     0.000 O
ATOM     67  HD  BGC B   5      15.423   9.116  -7.9990  0.00  0.00     0.000 HD
ATOM     67   O  BGC B   5      15.442   9.904  -8.3580  0.00  0.00     0.000 O
ATOM     69  HD  BGC B   5      15.423   9.116  -7.9990  0.00  0.00     0.000 HD
ENDBRANCH 58 62
ENDBRANCH 45 58
ENDBRANCH 44 48
ENDBRANCH 31 44
ENDBRANCH 30 34
ENDBRANCH 17 30
ENDBRANCH 16 20
ENDBRANCH 1 16
TORSDOF 8
ENDMDL
MODEL 30
REMARK VINA RESULT:      -8.2      4.395      9.632
ROOT
ATOM      1  C1  BGC B   1      20.784  -4.680 -14.3400  0.00  0.00     0.000 C
ATOM      2  C2  BGC B   1      22.082  -3.910 -14.5730  0.00  0.00     0.000 C
ATOM      3  C3  BGC B   1      22.227  -2.808 -13.5420  0.00  0.00     0.000 C
ATOM      4  C4  BGC B   1      20.974  -1.942 -13.4990  0.00  0.00     0.000 C
ATOM      5  C5  BGC B   1      19.774  -2.844 -13.2450  0.00  0.00     0.000 C
ATOM      6  O5  BGC B   1      19.692  -3.771 -14.3430  0.00  0.00     0.000 O
ATOM      7   O  BGC B   1      23.195  -4.813 -14.4600  0.00  0.00     0.000 O
ATOM      9  HD  BGC B   1      23.956  -4.485 -14.2090  0.00  0.00     0.000 HD
ATOM      9   O  BGC B   1      23.378  -2.022 -13.8640  0.00  0.00     0.000 O
ATOM     11  HD  BGC B   1      24.139  -1.693 -13.6130  0.00  0.00     0.000 HD
ATOM     11   O  BGC B   1      21.089  -0.992 -12.4620  0.00  0.00     0.000 O
ATOM     13  HD  BGC B   1      21.850  -0.664 -12.2110  0.00  0.00     0.000 HD
ATOM     13   C  BGC B   1      18.443  -2.116 -13.1250  0.00  0.00     0.000 C
ATOM     14   O  BGC B   1      18.165  -1.303 -14.2610  0.00  0.00     0.000 O
ATOM     16  HD  BGC B   1      18.926  -0.974 -14.0100  0.00  0.00     0.000 HD
ENDROOT
BRANCH 1 16
ATOM     16  O4  BGC B   2      20.591  -5.496 -15.4940  0.00  0.00     0.000 O
BRANCH 16 20
ATOM     17  C1  BGC B   2      19.352  -9.199 -16.6290  0.00  0.00     0.000 C
ATOM     18  C2  BGC B   2      18.258  -8.358 -15.9880  0.00  0.00     0.000 C
ATOM     19  C3  BGC B   2      18.726  -6.906 -15.9450  0.00  0.00     0.000 C
ATOM     20  C4  BGC B   2      20.073  -6.803 -15.2590  0.00  0.00     0.000 C
ATOM     21  C5  BGC B   2      21.087  -7.804 -15.8140  0.00  0.00     0.000 C
ATOM     22  O5  BGC B   2      20.506  -9.113 -15.7710  0.00  0.00     0.000 O
ATOM     23   O  BGC B   2      17.052  -8.441 -16.7660  0.00  0.00     0.000 O
ATOM     25  HD  BGC B   2      17.669  -7.839 -16.6840  0.00  0.00     0.000 HD
ATOM     25   O  BGC B   2      17.765  -6.107 -15.2650  0.00  0.00     0.000 O
ATOM     27  HD  BGC B   2      18.382  -5.505 -15.1830  0.00  0.00     0.000 HD
ATOM     27   C  BGC B   2      22.382  -7.845 -15.0120  0.00  0.00     0.000 C
ATOM     28   O  BGC B   2      22.182  -8.125 -13.6360  0.00  0.00     0.000 O
ATOM     30  HD  BGC B   2      22.799  -7.523 -13.5540  0.00  0.00     0.000 HD
BRANCH 17 30
ATOM     30  O4  BGC B   3      18.932 -10.548 -16.5490  0.00  0.00     0.000 O
BRANCH 30 34
ATOM     31  C1  BGC B   3      19.179 -14.061 -18.6750  0.00  0.00     0.000 C
ATOM     32  C2  BGC B   3      20.528 -13.427 -18.3390  0.00  0.00     0.000 C
ATOM     33  C3  BGC B   3      20.326 -12.395 -17.2440  0.00  0.00     0.000 C
ATOM     34  C4  BGC B   3      19.271 -11.374 -17.6680  0.00  0.00     0.000 C
ATOM     35  C5  BGC B   3      18.006 -12.079 -18.1240  0.00  0.00     0.000 C
ATOM     36  O5  BGC B   3      18.332 -13.026 -19.1470  0.00  0.00     0.000 O
ATOM     37   O  BGC B   3      21.419 -14.430 -17.8560  0.00  0.00     0.000 O
ATOM     39  HD  BGC B   3      22.063 -13.853 -17.8940  0.00  0.00     0.000 HD
ATOM     39   O  BGC B   3      21.569 -11.756 -16.9930  0.00  0.00     0.000 O
ATOM     41  HD  BGC B   3      22.214 -11.179 -17.0310  0.00  0.00     0.000 HD
ATOM     41   C  BGC B   3      16.929 -11.139 -18.6530  0.00  0.00     0.000 C
ATOM     42   O  BGC B   3      17.431 -10.380 -19.7270  0.00  0.00     0.000 O
ATOM     44  HD  BGC B   3      18.076  -9.803 -19.7660  0.00  0.00     0.000 HD
BRANCH 31 44
ATOM     44  O4  BGC B   4      19.387 -14.932 -19.7580  0.00  0.00     0.000 O
BRANCH 44 48
ATOM     45  C1  BGC B   4      18.122 -18.564 -21.1770  0.00  0.00     0.000 C
ATOM     46  C2  BGC B   4      17.179 -17.404 -21.4620  0.00  0.00     0.000 C
ATOM     47  C3  BGC B   4      17.909 -16.099 -21.2560  0.00  0.00     0.000 C
ATOM     48  C4  BGC B   4      18.538 -16.056 -19.8600  0.00  0.00     0.000 C
ATOM     49  C5  BGC B   4      19.390 -17.307 -19.6130  0.00  0.00     0.000 C
ATOM     50  O5  BGC B   4      18.598 -18.484 -19.8320  0.00  0.00     0.000 O
ATOM     51   O  BGC B   4      16.711 -17.471 -22.8220  0.00  0.00     0.000 O
ATOM     53  HD  BGC B   4      17.305 -16.847 -22.9120  0.00  0.00     0.000 HD
ATOM     53   O  BGC B   4      16.975 -15.020 -21.4000  0.00  0.00     0.000 O
ATOM     55  HD  BGC B   4      17.569 -14.395 -21.4900  0.00  0.00     0.000 HD
ATOM     55   C  BGC B   4      19.961 -17.411 -18.2110  0.00  0.00     0.000 C
ATOM     56   O  BGC B   4      18.873 -17.324 -17.2890  0.00  0.00     0.000 O
ATOM     58  HD  BGC B   4      19.467 -16.700 -17.3790  0.00  0.00     0.000 HD
BRANCH 45 58
ATOM     58  O4  BGC B   5      17.305 -19.733 -21.1390  0.00  0.00     0.000 O
BRANCH 58 62
ATOM     59  C1  BGC B   5      17.579 -23.838 -21.6100  0.00  0.00     0.000 C
ATOM     60  C2  BGC B   5      17.837 -23.326 -20.2070  0.00  0.00     0.000 C
ATOM     61  C3  BGC B   5      17.314 -21.910 -20.0520  0.00  0.00     0.000 C
ATOM     62  C4  BGC B   5      17.914 -21.026 -21.1330  0.00  0.00     0.000 C
ATOM     63  C5  BGC B   5      17.688 -21.640 -22.5220  0.00  0.00     0.000 C
ATOM     64  O5  BGC B   5      18.225 -22.959 -22.5360  0.00  0.00     0.000 O
ATOM     65   O  BGC B   5      19.738 -20.808 -23.2990  0.00  0.00     0.000 O
ATOM     67  HD  BGC B   5      20.327 -20.196 -23.1310  0.00  0.00     0.000 HD
ATOM     67   O  BGC B   5      19.738 -20.808 -23.2990  0.00  0.00     0.000 O
ATOM     69  HD  BGC B   5      20.327 -20.196 -23.1310  0.00  0.00     0.000 HD
ENDBRANCH 58 62
ENDBRANCH 45 58
ENDBRANCH 44 48
ENDBRANCH 31 44
ENDBRANCH 30 34
ENDBRANCH 17 30
ENDBRANCH 16 20
ENDBRANCH 1 16
TORSDOF 8
ENDMDL
MODEL 31
REMARK VINA RESULT:      -8.2      4.951     10.593
ROOT
ATOM      1  C1  BGC B   1      19.288  -4.338 -17.5120  0.00  0.00     0.000 C
ATOM      2  C2  BGC B   1      18.832  -3.183 -18.4020  0.00  0.00     0.000 C
ATOM      3  C3  BGC B   1      19.031  -1.862 -17.6840  0.00  0.00     0.000 C
ATOM      4  C4  BGC B   1      18.385  -1.895 -16.3050  0.00  0.00     0.000 C
ATOM      5  C5  BGC B   1      18.948  -3.082 -15.5370  0.00  0.00     0.000 C
ATOM      6  O5  BGC B   1      18.601  -4.271 -16.2700  0.00  0.00     0.000 O
ATOM      7   O  BGC B   1      19.606  -3.185 -19.6130  0.00  0.00     0.000 O
ATOM      9  HD  BGC B   1      19.720  -2.428 -20.0180  0.00  0.00     0.000 HD
ATOM      9   O  BGC B   1      18.475  -0.813 -18.4820  0.00  0.00     0.000 O
ATOM     11  HD  BGC B   1      18.590  -0.056 -18.8880  0.00  0.00     0.000 HD
ATOM     11   O  BGC B   1      18.674  -0.697 -15.6170  0.00  0.00     0.000 O
ATOM     13  HD  BGC B   1      18.789   0.060 -16.0230  0.00  0.00     0.000 HD
ATOM     13   C  BGC B   1      18.432  -3.224 -14.1120  0.00  0.00     0.000 C
ATOM     14   O  BGC B   1      17.010  -3.279 -14.0530  0.00  0.00     0.000 O
ATOM     16  HD  BGC B   1      17.125  -2.523 -14.4590  0.00  0.00     0.000 HD
ENDROOT
BRANCH 1 16
ATOM     16  O4  BGC B   2      18.815  -5.531 -18.1350  0.00  0.00     0.000 O
BRANCH 16 20
ATOM     17  C1  BGC B   2      18.759  -9.572 -17.6870  0.00  0.00     0.000 C
ATOM     18  C2  BGC B   2      18.079  -8.822 -16.5520  0.00  0.00     0.000 C
ATOM     19  C3  BGC B   2      17.840  -7.381 -16.9970  0.00  0.00     0.000 C
ATOM     20  C4  BGC B   2      19.134  -6.752 -17.4730  0.00  0.00     0.000 C
ATOM     21  C5  BGC B   2      19.877  -7.636 -18.4760  0.00  0.00     0.000 C
ATOM     22  O5  BGC B   2      20.035  -8.941 -17.9040  0.00  0.00     0.000 O
ATOM     23   O  BGC B   2      16.816  -9.434 -16.2420  0.00  0.00     0.000 O
ATOM     25  HD  BGC B   2      17.042  -8.722 -16.6800  0.00  0.00     0.000 HD
ATOM     25   O  BGC B   2      17.291  -6.627 -15.9230  0.00  0.00     0.000 O
ATOM     27  HD  BGC B   2      17.518  -5.914 -16.3610  0.00  0.00     0.000 HD
ATOM     27   C  BGC B   2      21.264  -7.109 -18.8180  0.00  0.00     0.000 C
ATOM     28   O  BGC B   2      22.093  -6.926 -17.6810  0.00  0.00     0.000 O
ATOM     30  HD  BGC B   2      22.320  -6.214 -18.1190  0.00  0.00     0.000 HD
BRANCH 17 30
ATOM     30  O4  BGC B   3      19.064 -10.865 -17.1990  0.00  0.00     0.000 O
BRANCH 30 34
ATOM     31  C1  BGC B   3      19.389 -14.721 -18.5940  0.00  0.00     0.000 C
ATOM     32  C2  BGC B   3      20.625 -13.855 -18.8310  0.00  0.00     0.000 C
ATOM     33  C3  BGC B   3      20.541 -12.626 -17.9430  0.00  0.00     0.000 C
ATOM     34  C4  BGC B   3      19.230 -11.882 -18.1920  0.00  0.00     0.000 C
ATOM     35  C5  BGC B   3      18.053 -12.835 -18.0800  0.00  0.00     0.000 C
ATOM     36  O5  BGC B   3      18.256 -13.948 -18.9570  0.00  0.00     0.000 O
ATOM     37   O  BGC B   3      21.795 -14.589 -18.4770  0.00  0.00     0.000 O
ATOM     39  HD  BGC B   3      22.276 -13.958 -18.8260  0.00  0.00     0.000 HD
ATOM     39   O  BGC B   3      21.653 -11.790 -18.2250  0.00  0.00     0.000 O
ATOM     41  HD  BGC B   3      22.134 -11.160 -18.5750  0.00  0.00     0.000 HD
ATOM     41   C  BGC B   3      16.706 -12.197 -18.4050  0.00  0.00     0.000 C
ATOM     42   O  BGC B   3      16.725 -11.658 -19.7050  0.00  0.00     0.000 O
ATOM     44  HD  BGC B   3      17.206 -11.028 -20.0550  0.00  0.00     0.000 HD
BRANCH 31 44
ATOM     44  O4  BGC B   4      19.451 -15.791 -19.5020  0.00  0.00     0.000 O
BRANCH 44 48
ATOM     45  C1  BGC B   4      18.486 -19.765 -19.7880  0.00  0.00     0.000 C
ATOM     46  C2  BGC B   4      17.308 -18.811 -19.9240  0.00  0.00     0.000 C
ATOM     47  C3  BGC B   4      17.817 -17.417 -20.1960  0.00  0.00     0.000 C
ATOM     48  C4  BGC B   4      18.829 -17.002 -19.1230  0.00  0.00     0.000 C
ATOM     49  C5  BGC B   4      19.927 -18.063 -18.9780  0.00  0.00     0.000 C
ATOM     50  O5  BGC B   4      19.332 -19.343 -18.7170  0.00  0.00     0.000 O
ATOM     51   O  BGC B   4      16.462 -19.224 -21.0140  0.00  0.00     0.000 O
ATOM     53  HD  BGC B   4      16.875 -18.569 -21.4010  0.00  0.00     0.000 HD
ATOM     53   O  BGC B   4      16.706 -16.510 -20.1900  0.00  0.00     0.000 O
ATOM     55  HD  BGC B   4      17.119 -15.855 -20.5780  0.00  0.00     0.000 HD
ATOM     55   C  BGC B   4      20.914 -17.795 -17.8560  0.00  0.00     0.000 C
ATOM     56   O  BGC B   4      20.167 -17.639 -16.6480  0.00  0.00     0.000 O
ATOM     58  HD  BGC B   4      20.581 -16.984 -17.0350  0.00  0.00     0.000 HD
BRANCH 45 58
ATOM     58  O4  BGC B   5      17.946 -20.985 -19.2830  0.00  0.00     0.000 O
BRANCH 58 62
ATOM     59  C1  BGC B   5      18.320 -25.099 -19.5780  0.00  0.00     0.000 C
ATOM     60  C2  BGC B   5      19.554 -24.367 -19.0910  0.00  0.00     0.000 C
ATOM     61  C3  BGC B   5      19.196 -22.968 -18.6280  0.00  0.00     0.000 C
ATOM     62  C4  BGC B   5      18.466 -22.236 -19.7420  0.00  0.00     0.000 C
ATOM     63  C5  BGC B   5      17.275 -23.065 -20.2450  0.00  0.00     0.000 C
ATOM     64  O5  BGC B   5      17.744 -24.346 -20.6510  0.00  0.00     0.000 O
ATOM     65   O  BGC B   5      17.563 -22.277 -22.4340  0.00  0.00     0.000 O
ATOM     67  HD  BGC B   5      17.917 -21.623 -22.8770  0.00  0.00     0.000 HD
ATOM     67   O  BGC B   5      17.563 -22.277 -22.4340  0.00  0.00     0.000 O
ATOM     69  HD  BGC B   5      17.917 -21.623 -22.8770  0.00  0.00     0.000 HD
ENDBRANCH 58 62
ENDBRANCH 45 58
ENDBRANCH 44 48
ENDBRANCH 31 44
ENDBRANCH 30 34
ENDBRANCH 17 30
ENDBRANCH 16 20
ENDBRANCH 1 16
TORSDOF 8
ENDMDL
MODEL 32
REMARK VINA RESULT:      -8.1      5.952     12.684
ROOT
ATOM      1  C1  BGC B   1      19.860  -7.056 -15.7890  0.00  0.00     0.000 C
ATOM      2  C2  BGC B   1      18.839  -6.520 -14.7870  0.00  0.00     0.000 C
ATOM      3  C3  BGC B   1      18.733  -5.012 -14.9080  0.00  0.00     0.000 C
ATOM      4  C4  BGC B   1      20.110  -4.366 -14.8190  0.00  0.00     0.000 C
ATOM      5  C5  BGC B   1      21.003  -4.988 -15.8820  0.00  0.00     0.000 C
ATOM      6  O5  BGC B   1      21.102  -6.395 -15.5910  0.00  0.00     0.000 O
ATOM      7   O  BGC B   1      17.556  -7.108 -15.0590  0.00  0.00     0.000 O
ATOM      9  HD  BGC B   1      16.851  -6.655 -14.8400  0.00  0.00     0.000 HD
ATOM      9   O  BGC B   1      17.873  -4.524 -13.8730  0.00  0.00     0.000 O
ATOM     11  HD  BGC B   1      17.169  -4.071 -13.6540  0.00  0.00     0.000 HD
ATOM     11   O  BGC B   1      19.996  -2.977 -15.0400  0.00  0.00     0.000 O
ATOM     13  HD  BGC B   1      19.291  -2.524 -14.8200  0.00  0.00     0.000 HD
ATOM     13   C  BGC B   1      22.409  -4.409 -15.9540  0.00  0.00     0.000 C
ATOM     14   O  BGC B   1      23.085  -4.470 -14.7010  0.00  0.00     0.000 O
ATOM     16  HD  BGC B   1      22.380  -4.017 -14.4820  0.00  0.00     0.000 HD
ENDROOT
BRANCH 1 16
ATOM     16  O4  BGC B   2      20.100  -8.414 -15.4250  0.00  0.00     0.000 O
BRANCH 16 20
ATOM     17  C1  BGC B   2      20.137 -12.061 -17.2240  0.00  0.00     0.000 C
ATOM     18  C2  BGC B   2      21.523 -11.471 -17.0080  0.00  0.00     0.000 C
ATOM     19  C3  BGC B   2      21.409 -10.311 -16.0220  0.00  0.00     0.000 C
ATOM     20  C4  BGC B   2      20.373  -9.312 -16.4970  0.00  0.00     0.000 C
ATOM     21  C5  BGC B   2      19.053  -9.981 -16.8820  0.00  0.00     0.000 C
ATOM     22  O5  BGC B   2      19.329 -11.029 -17.8200  0.00  0.00     0.000 O
ATOM     23   O  BGC B   2      22.404 -12.467 -16.4630  0.00  0.00     0.000 O
ATOM     25  HD  BGC B   2      21.980 -11.794 -16.1210  0.00  0.00     0.000 HD
ATOM     25   O  BGC B   2      22.673  -9.676 -15.8730  0.00  0.00     0.000 O
ATOM     27  HD  BGC B   2      22.249  -9.003 -15.5310  0.00  0.00     0.000 HD
ATOM     27   C  BGC B   2      18.069  -9.019 -17.5380  0.00  0.00     0.000 C
ATOM     28   O  BGC B   2      18.596  -8.372 -18.6850  0.00  0.00     0.000 O
ATOM     30  HD  BGC B   2      18.172  -7.699 -18.3430  0.00  0.00     0.000 HD
BRANCH 17 30
ATOM     30  O4  BGC B   3      20.265 -13.054 -18.2240  0.00  0.00     0.000 O
BRANCH 30 34
ATOM     31  C1  BGC B   3      18.263 -16.449 -19.4020  0.00  0.00     0.000 C
ATOM     32  C2  BGC B   3      17.377 -15.378 -18.7680  0.00  0.00     0.000 C
ATOM     33  C3  BGC B   3      18.133 -14.061 -18.7510  0.00  0.00     0.000 C
ATOM     34  C4  BGC B   3      19.473 -14.231 -18.0370  0.00  0.00     0.000 C
ATOM     35  C5  BGC B   3      20.240 -15.404 -18.6230  0.00  0.00     0.000 C
ATOM     36  O5  BGC B   3      19.419 -16.575 -18.5880  0.00  0.00     0.000 O
ATOM     37   O  BGC B   3      16.198 -15.211 -19.5530  0.00  0.00     0.000 O
ATOM     39  HD  BGC B   3      15.872 -14.709 -18.9270  0.00  0.00     0.000 HD
ATOM     39   O  BGC B   3      17.334 -13.091 -18.0920  0.00  0.00     0.000 O
ATOM     41  HD  BGC B   3      17.007 -12.590 -17.4650  0.00  0.00     0.000 HD
ATOM     41   C  BGC B   3      21.553 -15.705 -17.9090  0.00  0.00     0.000 C
ATOM     42   O  BGC B   3      21.315 -15.963 -16.5450  0.00  0.00     0.000 O
ATOM     44  HD  BGC B   3      20.989 -15.462 -15.9190  0.00  0.00     0.000 HD
BRANCH 31 44
ATOM     44  O4  BGC B   4      17.573 -17.669 -19.3070  0.00  0.00     0.000 O
BRANCH 44 48
ATOM     45  C1  BGC B   4      17.850 -21.577 -20.5130  0.00  0.00     0.000 C
ATOM     46  C2  BGC B   4      18.802 -21.187 -19.3920  0.00  0.00     0.000 C
ATOM     47  C3  BGC B   4      18.349 -19.885 -18.7770  0.00  0.00     0.000 C
ATOM     48  C4  BGC B   4      18.194 -18.812 -19.8590  0.00  0.00     0.000 C
ATOM     49  C5  BGC B   4      17.304 -19.320 -21.0000  0.00  0.00     0.000 C
ATOM     50  O5  BGC B   4      17.829 -20.555 -21.5100  0.00  0.00     0.000 O
ATOM     51   O  BGC B   4      18.813 -22.207 -18.3760  0.00  0.00     0.000 O
ATOM     53  HD  BGC B   4      18.307 -21.626 -17.9800  0.00  0.00     0.000 HD
ATOM     53   O  BGC B   4      19.325 -19.464 -17.8140  0.00  0.00     0.000 O
ATOM     55  HD  BGC B   4      18.820 -18.882 -17.4180  0.00  0.00     0.000 HD
ATOM     55   C  BGC B   4      17.186 -18.368 -22.1760  0.00  0.00     0.000 C
ATOM     56   O  BGC B   4      18.508 -18.071 -22.6300  0.00  0.00     0.000 O
ATOM     58  HD  BGC B   4      18.003 -17.489 -22.2350  0.00  0.00     0.000 HD
BRANCH 45 58
ATOM     58  O4  BGC B   5      18.479 -22.657 -21.2020  0.00  0.00     0.000 O
BRANCH 58 62
ATOM     59  C1  BGC B   5      17.687 -26.526 -22.4490  0.00  0.00     0.000 C
ATOM     60  C2  BGC B   5      17.333 -25.438 -23.4420  0.00  0.00     0.000 C
ATOM     61  C3  BGC B   5      18.028 -24.139 -23.0790  0.00  0.00     0.000 C
ATOM     62  C4  BGC B   5      17.696 -23.770 -21.6420  0.00  0.00     0.000 C
ATOM     63  C5  BGC B   5      18.003 -24.942 -20.6980  0.00  0.00     0.000 C
ATOM     64  O5  BGC B   5      17.291 -26.091 -21.1450  0.00  0.00     0.000 O
ATOM     65   O  BGC B   5      16.203 -24.380 -19.3050  0.00  0.00     0.000 O
ATOM     67  HD  BGC B   5      15.690 -23.714 -19.0980  0.00  0.00     0.000 HD
ATOM     67   O  BGC B   5      16.203 -24.380 -19.3050  0.00  0.00     0.000 O
ATOM     69  HD  BGC B   5      15.690 -23.714 -19.0980  0.00  0.00     0.000 HD
ENDBRANCH 58 62
ENDBRANCH 45 58
ENDBRANCH 44 48
ENDBRANCH 31 44
ENDBRANCH 30 34
ENDBRANCH 17 30
ENDBRANCH 16 20
ENDBRANCH 1 16
TORSDOF 8
ENDMDL
MODEL 33
REMARK VINA RESULT:      -8.1      7.281     14.637
ROOT
ATOM      1  C1  BGC B   1      19.543  -8.852 -16.6920  0.00  0.00     0.000 C
ATOM      2  C2  BGC B   1      18.912  -8.233 -15.4460  0.00  0.00     0.000 C
ATOM      3  C3  BGC B   1      18.451  -6.819 -15.7430  0.00  0.00     0.000 C
ATOM      4  C4  BGC B   1      19.581  -6.001 -16.3570  0.00  0.00     0.000 C
ATOM      5  C5  BGC B   1      20.091  -6.734 -17.5890  0.00  0.00     0.000 C
ATOM      6  O5  BGC B   1      20.591  -8.011 -17.1540  0.00  0.00     0.000 O
ATOM      7   O  BGC B   1      17.782  -9.024 -15.0440  0.00  0.00     0.000 O
ATOM      9  HD  BGC B   1      17.143  -8.626 -14.6170  0.00  0.00     0.000 HD
ATOM      9   O  BGC B   1      17.989  -6.219 -14.5290  0.00  0.00     0.000 O
ATOM     11  HD  BGC B   1      17.350  -5.820 -14.1010  0.00  0.00     0.000 HD
ATOM     11   O  BGC B   1      19.099  -4.726 -16.7200  0.00  0.00     0.000 O
ATOM     13  HD  BGC B   1      18.460  -4.327 -16.2930  0.00  0.00     0.000 HD
ATOM     13   C  BGC B   1      21.197  -6.014 -18.3470  0.00  0.00     0.000 C
ATOM     14   O  BGC B   1      22.309  -5.699 -17.5150  0.00  0.00     0.000 O
ATOM     16  HD  BGC B   1      21.670  -5.301 -17.0870  0.00  0.00     0.000 HD
ENDROOT
BRANCH 1 16
ATOM     16  O4  BGC B   2      20.188 -10.048 -16.2600  0.00  0.00     0.000 O
BRANCH 16 20
ATOM     17  C1  BGC B   2      20.372 -13.876 -17.6190  0.00  0.00     0.000 C
ATOM     18  C2  BGC B   2      21.694 -13.129 -17.7150  0.00  0.00     0.000 C
ATOM     19  C3  BGC B   2      21.601 -11.868 -16.8600  0.00  0.00     0.000 C
ATOM     20  C4  BGC B   2      20.391 -11.047 -17.2560  0.00  0.00     0.000 C
ATOM     21  C5  BGC B   2      19.115 -11.887 -17.3280  0.00  0.00     0.000 C
ATOM     22  O5  BGC B   2      19.360 -13.016 -18.1760  0.00  0.00     0.000 O
ATOM     23   O  BGC B   2      22.764 -13.953 -17.2240  0.00  0.00     0.000 O
ATOM     25  HD  BGC B   2      22.323 -13.286 -16.8910  0.00  0.00     0.000 HD
ATOM     25   O  BGC B   2      22.788 -11.096 -17.0050  0.00  0.00     0.000 O
ATOM     27  HD  BGC B   2      22.347 -10.429 -16.6720  0.00  0.00     0.000 HD
ATOM     27   C  BGC B   2      17.931 -11.122 -17.9060  0.00  0.00     0.000 C
ATOM     28   O  BGC B   2      18.185 -10.581 -19.1920  0.00  0.00     0.000 O
ATOM     30  HD  BGC B   2      17.744  -9.914 -18.8590  0.00  0.00     0.000 HD
BRANCH 17 30
ATOM     30  O4  BGC B   3      20.455 -14.973 -18.5090  0.00  0.00     0.000 O
BRANCH 30 34
ATOM     31  C1  BGC B   3      19.034 -18.811 -18.9290  0.00  0.00     0.000 C
ATOM     32  C2  BGC B   3      17.949 -17.744 -18.7940  0.00  0.00     0.000 C
ATOM     33  C3  BGC B   3      18.567 -16.380 -19.0470  0.00  0.00     0.000 C
ATOM     34  C4  BGC B   3      19.751 -16.154 -18.1090  0.00  0.00     0.000 C
ATOM     35  C5  BGC B   3      20.720 -17.321 -18.1900  0.00  0.00     0.000 C
ATOM     36  O5  BGC B   3      20.015 -18.542 -17.9400  0.00  0.00     0.000 O
ATOM     37   O  BGC B   3      16.936 -17.970 -19.7710  0.00  0.00     0.000 O
ATOM     39  HD  BGC B   3      16.450 -17.367 -19.3830  0.00  0.00     0.000 HD
ATOM     39   O  BGC B   3      17.570 -15.390 -18.8440  0.00  0.00     0.000 O
ATOM     41  HD  BGC B   3      17.084 -14.787 -18.4560  0.00  0.00     0.000 HD
ATOM     41   C  BGC B   3      21.890 -17.223 -17.2170  0.00  0.00     0.000 C
ATOM     42   O  BGC B   3      21.415 -17.126 -15.8950  0.00  0.00     0.000 O
ATOM     44  HD  BGC B   3      20.930 -16.523 -15.5070  0.00  0.00     0.000 HD
BRANCH 31 44
ATOM     44  O4  BGC B   4      18.451 -20.043 -18.5880  0.00  0.00     0.000 O
BRANCH 44 48
ATOM     45  C1  BGC B   4      18.509 -23.992 -19.6860  0.00  0.00     0.000 C
ATOM     46  C2  BGC B   4      19.718 -23.536 -18.8810  0.00  0.00     0.000 C
ATOM     47  C3  BGC B   4      19.409 -22.219 -18.2120  0.00  0.00     0.000 C
ATOM     48  C4  BGC B   4      18.934 -21.195 -19.2480  0.00  0.00     0.000 C
ATOM     49  C5  BGC B   4      17.783 -21.769 -20.0840  0.00  0.00     0.000 C
ATOM     50  O5  BGC B   4      18.187 -23.013 -20.6750  0.00  0.00     0.000 O
ATOM     51   O  BGC B   4      20.035 -24.513 -17.8710  0.00  0.00     0.000 O
ATOM     53  HD  BGC B   4      19.639 -23.925 -17.3730  0.00  0.00     0.000 HD
ATOM     53   O  BGC B   4      20.597 -21.738 -17.5660  0.00  0.00     0.000 O
ATOM     55  HD  BGC B   4      20.201 -21.151 -17.0690  0.00  0.00     0.000 HD
ATOM     55   C  BGC B   4      17.321 -20.869 -21.2160  0.00  0.00     0.000 C
ATOM     56   O  BGC B   4      18.460 -20.565 -22.0240  0.00  0.00     0.000 O
ATOM     58  HD  BGC B   4      18.064 -19.978 -21.5260  0.00  0.00     0.000 HD
BRANCH 45 58
ATOM     58  O4  BGC B   5      18.960 -25.088 -20.4810  0.00  0.00     0.000 O
BRANCH 58 62
ATOM     59  C1  BGC B   5      17.586 -28.164 -22.8880  0.00  0.00     0.000 C
ATOM     60  C2  BGC B   5      17.337 -26.765 -23.4160  0.00  0.00     0.000 C
ATOM     61  C3  BGC B   5      18.220 -25.761 -22.6990  0.00  0.00     0.000 C
ATOM     62  C4  BGC B   5      18.012 -25.882 -21.1980  0.00  0.00     0.000 C
ATOM     63  C5  BGC B   5      18.200 -27.336 -20.7410  0.00  0.00     0.000 C
ATOM     64  O5  BGC B   5      17.316 -28.170 -21.4830  0.00  0.00     0.000 O
ATOM     65   O  BGC B   5      16.564 -27.097 -19.0790  0.00  0.00     0.000 O
ATOM     67  HD  BGC B   5      16.158 -26.492 -18.6120  0.00  0.00     0.000 HD
ATOM     67   O  BGC B   5      16.564 -27.097 -19.0790  0.00  0.00     0.000 O
ATOM     69  HD  BGC B   5      16.158 -26.492 -18.6120  0.00  0.00     0.000 HD
ENDBRANCH 58 62
ENDBRANCH 45 58
ENDBRANCH 44 48
ENDBRANCH 31 44
ENDBRANCH 30 34
ENDBRANCH 17 30
ENDBRANCH 16 20
ENDBRANCH 1 16
TORSDOF 8
ENDMDL
MODEL 34
REMARK VINA RESULT:      -8.1      4.950     18.331
ROOT
ATOM      1  C1  BGC B   1      18.112 -20.231 -22.4040  0.00  0.00     0.000 C
ATOM      2  C2  BGC B   1      18.676 -20.386 -23.8160  0.00  0.00     0.000 C
ATOM      3  C3  BGC B   1      18.111 -21.633 -24.4690  0.00  0.00     0.000 C
ATOM      4  C4  BGC B   1      18.305 -22.847 -23.5700  0.00  0.00     0.000 C
ATOM      5  C5  BGC B   1      17.682 -22.549 -22.2140  0.00  0.00     0.000 C
ATOM      6  O5  BGC B   1      18.375 -21.414 -21.6620  0.00  0.00     0.000 O
ATOM      7   O  BGC B   1      18.313 -19.236 -24.5980  0.00  0.00     0.000 O
ATOM      9  HD  BGC B   1      18.238 -19.340 -25.4550  0.00  0.00     0.000 HD
ATOM      9   O  BGC B   1      18.754 -21.825 -25.7320  0.00  0.00     0.000 O
ATOM     11  HD  BGC B   1      18.679 -21.929 -26.5880  0.00  0.00     0.000 HD
ATOM     11   O  BGC B   1      17.680 -23.971 -24.1500  0.00  0.00     0.000 O
ATOM     13  HD  BGC B   1      17.605 -24.075 -25.0060  0.00  0.00     0.000 HD
ATOM     13   C  BGC B   1      17.752 -23.692 -21.2130  0.00  0.00     0.000 C
ATOM     14   O  BGC B   1      19.084 -24.152 -21.0070  0.00  0.00     0.000 O
ATOM     16  HD  BGC B   1      19.009 -24.255 -21.8630  0.00  0.00     0.000 HD
ENDROOT
BRANCH 1 16
ATOM     16  O4  BGC B   2      18.890 -19.216 -21.7730  0.00  0.00     0.000 O
BRANCH 16 20
ATOM     17  C1  BGC B   2      18.590 -16.116 -19.1580  0.00  0.00     0.000 C
ATOM     18  C2  BGC B   2      18.099 -17.441 -18.5950  0.00  0.00     0.000 C
ATOM     19  C3  BGC B   2      18.590 -18.567 -19.5020  0.00  0.00     0.000 C
ATOM     20  C4  BGC B   2      18.178 -18.308 -20.9370  0.00  0.00     0.000 C
ATOM     21  C5  BGC B   2      18.526 -16.892 -21.3970  0.00  0.00     0.000 C
ATOM     22  O5  BGC B   2      17.983 -15.959 -20.4540  0.00  0.00     0.000 O
ATOM     23   O  BGC B   2      18.624 -17.641 -17.2720  0.00  0.00     0.000 O
ATOM     25  HD  BGC B   2      18.830 -17.960 -18.0500  0.00  0.00     0.000 HD
ATOM     25   O  BGC B   2      18.067 -19.812 -19.0560  0.00  0.00     0.000 O
ATOM     27  HD  BGC B   2      18.273 -20.132 -19.8350  0.00  0.00     0.000 HD
ATOM     27   C  BGC B   2      17.951 -16.554 -22.7670  0.00  0.00     0.000 C
ATOM     28   O  BGC B   2      16.544 -16.716 -22.8420  0.00  0.00     0.000 O
ATOM     30  HD  BGC B   2      16.750 -17.035 -23.6200  0.00  0.00     0.000 HD
BRANCH 17 30
ATOM     30  O4  BGC B   3      18.023 -15.096 -18.3580  0.00  0.00     0.000 O
BRANCH 30 34
ATOM     31  C1  BGC B   3      18.703 -11.143 -17.4440  0.00  0.00     0.000 C
ATOM     32  C2  BGC B   3      17.890 -11.369 -18.7180  0.00  0.00     0.000 C
ATOM     33  C3  BGC B   3      17.376 -12.797 -18.7260  0.00  0.00     0.000 C
ATOM     34  C4  BGC B   3      18.538 -13.778 -18.5740  0.00  0.00     0.000 C
ATOM     35  C5  BGC B   3      19.387 -13.409 -17.3700  0.00  0.00     0.000 C
ATOM     36  O5  BGC B   3      19.800 -12.042 -17.4790  0.00  0.00     0.000 O
ATOM     37   O  BGC B   3      16.770 -10.486 -18.7300  0.00  0.00     0.000 O
ATOM     39  HD  BGC B   3      16.614 -10.722 -19.5490  0.00  0.00     0.000 HD
ATOM     39   O  BGC B   3      16.688 -13.021 -19.9470  0.00  0.00     0.000 O
ATOM     41  HD  BGC B   3      16.532 -13.257 -20.7660  0.00  0.00     0.000 HD
ATOM     41   C  BGC B   3      20.625 -14.281 -17.1940  0.00  0.00     0.000 C
ATOM     42   O  BGC B   3      21.431 -14.218 -18.3460  0.00  0.00     0.000 O
ATOM     44  HD  BGC B   3      21.275 -14.454 -19.1650  0.00  0.00     0.000 HD
BRANCH 31 44
ATOM     44  O4  BGC B   4      19.245  -9.849 -17.5210  0.00  0.00     0.000 O
BRANCH 44 48
ATOM     45  C1  BGC B   4      19.841  -6.514 -15.2130  0.00  0.00     0.000 C
ATOM     46  C2  BGC B   4      20.777  -7.675 -14.9090  0.00  0.00     0.000 C
ATOM     47  C3  BGC B   4      20.736  -8.665 -16.0470  0.00  0.00     0.000 C
ATOM     48  C4  BGC B   4      19.291  -9.092 -16.3290  0.00  0.00     0.000 C
ATOM     49  C5  BGC B   4      18.394  -7.864 -16.5220  0.00  0.00     0.000 C
ATOM     50  O5  BGC B   4      18.507  -6.997 -15.3840  0.00  0.00     0.000 O
ATOM     51   O  BGC B   4      22.125  -7.194 -14.7530  0.00  0.00     0.000 O
ATOM     53  HD  BGC B   4      22.187  -7.517 -15.5540  0.00  0.00     0.000 HD
ATOM     53   O  BGC B   4      21.519  -9.813 -15.6890  0.00  0.00     0.000 O
ATOM     55  HD  BGC B   4      21.580 -10.136 -16.4900  0.00  0.00     0.000 HD
ATOM     55   C  BGC B   4      16.920  -8.184 -16.6920  0.00  0.00     0.000 C
ATOM     56   O  BGC B   4      16.511  -8.964 -15.5670  0.00  0.00     0.000 O
ATOM     58  HD  BGC B   4      16.573  -9.287 -16.3680  0.00  0.00     0.000 HD
BRANCH 45 58
ATOM     58  O4  BGC B   5      19.738  -5.767 -14.0020  0.00  0.00     0.000 O
BRANCH 58 62
ATOM     59  C1  BGC B   5      18.797  -1.911 -12.8200  0.00  0.00     0.000 C
ATOM     60  C2  BGC B   5      18.298  -2.310 -14.1940  0.00  0.00     0.000 C
ATOM     61  C3  BGC B   5      18.323  -3.818 -14.3530  0.00  0.00     0.000 C
ATOM     62  C4  BGC B   5      19.718  -4.338 -14.0480  0.00  0.00     0.000 C
ATOM     63  C5  BGC B   5      20.197  -3.833 -12.6790  0.00  0.00     0.000 C
ATOM     64  O5  BGC B   5      20.129  -2.411 -12.6630  0.00  0.00     0.000 O
ATOM     65   O  BGC B   5      22.416  -3.708 -13.4230  0.00  0.00     0.000 O
ATOM     67  HD  BGC B   5      22.944  -4.023 -14.0340  0.00  0.00     0.000 HD
ATOM     67   O  BGC B   5      22.416  -3.708 -13.4230  0.00  0.00     0.000 O
ATOM     69  HD  BGC B   5      22.944  -4.023 -14.0340  0.00  0.00     0.000 HD
ENDBRANCH 58 62
ENDBRANCH 45 58
ENDBRANCH 44 48
ENDBRANCH 31 44
ENDBRANCH 30 34
ENDBRANCH 17 30
ENDBRANCH 16 20
ENDBRANCH 1 16
TORSDOF 8
ENDMDL
MODEL 35
REMARK VINA RESULT:      -8.0      5.850     19.203
ROOT
ATOM      1  C1  BGC B   1      18.138 -21.989 -22.2980  0.00  0.00     0.000 C
ATOM      2  C2  BGC B   1      17.533 -23.193 -21.5780  0.00  0.00     0.000 C
ATOM      3  C3  BGC B   1      17.998 -24.480 -22.2330  0.00  0.00     0.000 C
ATOM      4  C4  BGC B   1      17.743 -24.443 -23.7340  0.00  0.00     0.000 C
ATOM      5  C5  BGC B   1      18.416 -23.205 -24.3070  0.00  0.00     0.000 C
ATOM      6  O5  BGC B   1      17.813 -22.058 -23.6800  0.00  0.00     0.000 O
ATOM      7   O  BGC B   1      17.953 -23.183 -20.2040  0.00  0.00     0.000 O
ATOM      9  HD  BGC B   1      18.002 -23.943 -19.7920  0.00  0.00     0.000 HD
ATOM      9   O  BGC B   1      17.315 -25.581 -21.6260  0.00  0.00     0.000 O
ATOM     11  HD  BGC B   1      17.363 -26.341 -21.2150  0.00  0.00     0.000 HD
ATOM     11   O  BGC B   1      18.279 -25.603 -24.3340  0.00  0.00     0.000 O
ATOM     13  HD  BGC B   1      18.327 -26.363 -23.9220  0.00  0.00     0.000 HD
ATOM     13   C  BGC B   1      18.292 -23.051 -25.8170  0.00  0.00     0.000 C
ATOM     14   O  BGC B   1      16.937 -23.073 -26.2550  0.00  0.00     0.000 O
ATOM     16  HD  BGC B   1      16.986 -23.834 -25.8430  0.00  0.00     0.000 HD
ENDROOT
BRANCH 1 16
ATOM     16  O4  BGC B   2      17.444 -20.843 -21.8100  0.00  0.00     0.000 O
BRANCH 16 20
ATOM     17  C1  BGC B   2      18.078 -16.922 -20.9390  0.00  0.00     0.000 C
ATOM     18  C2  BGC B   2      17.741 -17.177 -22.4000  0.00  0.00     0.000 C
ATOM     19  C3  BGC B   2      17.175 -18.589 -22.5280  0.00  0.00     0.000 C
ATOM     20  C4  BGC B   2      18.129 -19.599 -21.9240  0.00  0.00     0.000 C
ATOM     21  C5  BGC B   2      18.589 -19.199 -20.5210  0.00  0.00     0.000 C
ATOM     22  O5  BGC B   2      19.105 -17.863 -20.5740  0.00  0.00     0.000 O
ATOM     23   O  BGC B   2      16.755 -16.233 -22.8520  0.00  0.00     0.000 O
ATOM     25  HD  BGC B   2      16.721 -17.066 -22.6190  0.00  0.00     0.000 HD
ATOM     25   O  BGC B   2      16.938 -18.894 -23.8980  0.00  0.00     0.000 O
ATOM     27  HD  BGC B   2      16.903 -19.727 -23.6650  0.00  0.00     0.000 HD
ATOM     27   C  BGC B   2      19.690 -20.100 -19.9770  0.00  0.00     0.000 C
ATOM     28   O  BGC B   2      20.829 -20.168 -20.8190  0.00  0.00     0.000 O
ATOM     30  HD  BGC B   2      20.794 -21.001 -20.5860  0.00  0.00     0.000 HD
BRANCH 17 30
ATOM     30  O4  BGC B   3      18.701 -15.653 -20.8780  0.00  0.00     0.000 O
BRANCH 30 34
ATOM     31  C1  BGC B   3      19.219 -12.548 -18.2290  0.00  0.00     0.000 C
ATOM     32  C2  BGC B   3      19.457 -13.935 -17.6340  0.00  0.00     0.000 C
ATOM     33  C3  BGC B   3      19.629 -14.932 -18.7670  0.00  0.00     0.000 C
ATOM     34  C4  BGC B   3      18.425 -14.879 -19.7060  0.00  0.00     0.000 C
ATOM     35  C5  BGC B   3      18.159 -13.450 -20.1450  0.00  0.00     0.000 C
ATOM     36  O5  BGC B   3      18.024 -12.615 -18.9900  0.00  0.00     0.000 O
ATOM     37   O  BGC B   3      20.653 -13.922 -16.8580  0.00  0.00     0.000 O
ATOM     39  HD  BGC B   3      20.453 -14.713 -16.5670  0.00  0.00     0.000 HD
ATOM     39   O  BGC B   3      19.772 -16.229 -18.2070  0.00  0.00     0.000 O
ATOM     41  HD  BGC B   3      19.572 -17.020 -17.9160  0.00  0.00     0.000 HD
ATOM     41   C  BGC B   3      16.916 -13.290 -21.0130  0.00  0.00     0.000 C
ATOM     42   O  BGC B   3      15.782 -13.766 -20.3300  0.00  0.00     0.000 O
ATOM     44  HD  BGC B   3      15.582 -14.557 -20.0380  0.00  0.00     0.000 HD
BRANCH 31 44
ATOM     44  O4  BGC B   4      18.963 -11.675 -17.1580  0.00  0.00     0.000 O
BRANCH 44 48
ATOM     45  C1  BGC B   4      19.747  -7.841 -15.9390  0.00  0.00     0.000 C
ATOM     46  C2  BGC B   4      18.662  -7.964 -17.0000  0.00  0.00     0.000 C
ATOM     47  C3  BGC B   4      18.194  -9.396 -17.0770  0.00  0.00     0.000 C
ATOM     48  C4  BGC B   4      19.384 -10.334 -17.2980  0.00  0.00     0.000 C
ATOM     49  C5  BGC B   4      20.475 -10.077 -16.2510  0.00  0.00     0.000 C
ATOM     50  O5  BGC B   4      20.847  -8.691 -16.2680  0.00  0.00     0.000 O
ATOM     51   O  BGC B   4      17.544  -7.121 -16.6630  0.00  0.00     0.000 O
ATOM     53  HD  BGC B   4      17.218  -7.885 -16.4200  0.00  0.00     0.000 HD
ATOM     53   O  BGC B   4      17.269  -9.522 -18.1670  0.00  0.00     0.000 O
ATOM     55  HD  BGC B   4      16.943 -10.286 -17.9240  0.00  0.00     0.000 HD
ATOM     55   C  BGC B   4      21.746 -10.881 -16.4590  0.00  0.00     0.000 C
ATOM     56   O  BGC B   4      22.214 -10.620 -17.7830  0.00  0.00     0.000 O
ATOM     58  HD  BGC B   4      21.888 -11.384 -17.5390  0.00  0.00     0.000 HD
BRANCH 45 58
ATOM     58  O4  BGC B   5      20.311  -6.540 -16.1050  0.00  0.00     0.000 O
BRANCH 58 62
ATOM     59  C1  BGC B   5      21.642  -3.255 -13.9640  0.00  0.00     0.000 C
ATOM     60  C2  BGC B   5      22.424  -4.534 -13.7450  0.00  0.00     0.000 C
ATOM     61  C3  BGC B   5      22.136  -5.531 -14.8510  0.00  0.00     0.000 C
ATOM     62  C4  BGC B   5      20.636  -5.756 -14.9550  0.00  0.00     0.000 C
ATOM     63  C5  BGC B   5      19.897  -4.417 -15.0960  0.00  0.00     0.000 C
ATOM     64  O5  BGC B   5      20.248  -3.580 -13.9990  0.00  0.00     0.000 O
ATOM     65   O  BGC B   5      18.063  -5.224 -13.8780  0.00  0.00     0.000 O
ATOM     67  HD  BGC B   5      17.682  -5.964 -13.6400  0.00  0.00     0.000 HD
ATOM     67   O  BGC B   5      18.063  -5.224 -13.8780  0.00  0.00     0.000 O
ATOM     69  HD  BGC B   5      17.682  -5.964 -13.6400  0.00  0.00     0.000 HD
ENDBRANCH 58 62
ENDBRANCH 45 58
ENDBRANCH 44 48
ENDBRANCH 31 44
ENDBRANCH 30 34
ENDBRANCH 17 30
ENDBRANCH 16 20
ENDBRANCH 1 16
TORSDOF 8
ENDMDL
MODEL 36
REMARK VINA RESULT:      -7.9      3.218     15.731
ROOT
ATOM      1  C1  BGC B   1      19.671  -4.786 -14.6640  0.00  0.00     0.000 C
ATOM      2  C2  BGC B   1      20.620  -5.585 -13.7730  0.00  0.00     0.000 C
ATOM      3  C3  BGC B   1      20.977  -6.900 -14.4390  0.00  0.00     0.000 C
ATOM      4  C4  BGC B   1      19.720  -7.649 -14.8610  0.00  0.00     0.000 C
ATOM      5  C5  BGC B   1      18.890  -6.735 -15.7500  0.00  0.00     0.000 C
ATOM      6  O5  BGC B   1      18.534  -5.580 -14.9680  0.00  0.00     0.000 O
ATOM      7   O  BGC B   1      21.820  -4.823 -13.5560  0.00  0.00     0.000 O
ATOM      9  HD  BGC B   1      22.551  -5.260 -13.4000  0.00  0.00     0.000 HD
ATOM      9   O  BGC B   1      21.756  -7.683 -13.5290  0.00  0.00     0.000 O
ATOM     11  HD  BGC B   1      22.487  -8.119 -13.3720  0.00  0.00     0.000 HD
ATOM     11   O  BGC B   1      20.078  -8.815 -15.5700  0.00  0.00     0.000 O
ATOM     13  HD  BGC B   1      20.810  -9.252 -15.4140  0.00  0.00     0.000 HD
ATOM     13   C  BGC B   1      17.615  -7.361 -16.2970  0.00  0.00     0.000 C
ATOM     14   O  BGC B   1      16.776  -7.872 -15.2660  0.00  0.00     0.000 O
ATOM     16  HD  BGC B   1      17.507  -8.309 -15.1090  0.00  0.00     0.000 HD
ENDROOT
BRANCH 1 16
ATOM     16  O4  BGC B   2      19.174  -3.718 -13.8600  0.00  0.00     0.000 O
BRANCH 16 20
ATOM     17  C1  BGC B   2      18.291   0.249 -14.0030  0.00  0.00     0.000 C
ATOM     18  C2  BGC B   2      17.344  -0.618 -14.8190  0.00  0.00     0.000 C
ATOM     19  C3  BGC B   2      17.540  -2.074 -14.4040  0.00  0.00     0.000 C
ATOM     20  C4  BGC B   2      18.999  -2.465 -14.5180  0.00  0.00     0.000 C
ATOM     21  C5  BGC B   2      19.928  -1.457 -13.8400  0.00  0.00     0.000 C
ATOM     22  O5  BGC B   2      19.631  -0.151 -14.3470  0.00  0.00     0.000 O
ATOM     23   O  BGC B   2      15.982  -0.235 -14.5660  0.00  0.00     0.000 O
ATOM     25  HD  BGC B   2      16.477  -0.894 -14.2980  0.00  0.00     0.000 HD
ATOM     25   O  BGC B   2      16.737  -2.921 -15.2170  0.00  0.00     0.000 O
ATOM     27  HD  BGC B   2      17.232  -3.580 -14.9490  0.00  0.00     0.000 HD
ATOM     27   C  BGC B   2      21.402  -1.735 -14.1080  0.00  0.00     0.000 C
ATOM     28   O  BGC B   2      21.724  -1.782 -15.4880  0.00  0.00     0.000 O
ATOM     30  HD  BGC B   2      22.218  -2.441 -15.2200  0.00  0.00     0.000 HD
BRANCH 17 30
ATOM     30  O4  BGC B   3      18.162   1.571 -14.4930  0.00  0.00     0.000 O
BRANCH 30 34
ATOM     31  C1  BGC B   3      18.433   5.381 -12.9660  0.00  0.00     0.000 C
ATOM     32  C2  BGC B   3      19.702   4.882 -13.6560  0.00  0.00     0.000 C
ATOM     33  C3  BGC B   3      19.357   3.671 -14.5030  0.00  0.00     0.000 C
ATOM     34  C4  BGC B   3      18.680   2.602 -13.6460  0.00  0.00     0.000 C
ATOM     35  C5  BGC B   3      17.514   3.200 -12.8790  0.00  0.00     0.000 C
ATOM     36  O5  BGC B   3      17.967   4.333 -12.1310  0.00  0.00     0.000 O
ATOM     37   O  BGC B   3      20.210   5.903 -14.5130  0.00  0.00     0.000 O
ATOM     39  HD  BGC B   3      20.926   5.428 -14.6260  0.00  0.00     0.000 HD
ATOM     39   O  BGC B   3      20.554   3.168 -15.0780  0.00  0.00     0.000 O
ATOM     41  HD  BGC B   3      21.269   2.693 -15.1910  0.00  0.00     0.000 HD
ATOM     41   C  BGC B   3      16.834   2.225 -11.9250  0.00  0.00     0.000 C
ATOM     42   O  BGC B   3      17.767   1.721 -10.9990  0.00  0.00     0.000 O
ATOM     44  HD  BGC B   3      18.483   1.246 -11.1120  0.00  0.00     0.000 HD
BRANCH 31 44
ATOM     44  O4  BGC B   4      18.808   6.434 -12.1160  0.00  0.00     0.000 O
BRANCH 44 48
ATOM     45  C1  BGC B   4      17.329   9.916 -10.5370  0.00  0.00     0.000 C
ATOM     46  C2  BGC B   4      16.420   8.706 -10.3750  0.00  0.00     0.000 C
ATOM     47  C3  BGC B   4      17.212   7.445 -10.6250  0.00  0.00     0.000 C
ATOM     48  C4  BGC B   4      17.909   7.517 -11.9870  0.00  0.00     0.000 C
ATOM     49  C5  BGC B   4      18.722   8.812 -12.1090  0.00  0.00     0.000 C
ATOM     50  O5  BGC B   4      17.873   9.942 -11.8580  0.00  0.00     0.000 O
ATOM     51   O  BGC B   4      15.884   8.667  -9.0390  0.00  0.00     0.000 O
ATOM     53  HD  BGC B   4      16.497   8.061  -8.9580  0.00  0.00     0.000 HD
ATOM     53   O  BGC B   4      16.316   6.324 -10.5980  0.00  0.00     0.000 O
ATOM     55  HD  BGC B   4      16.929   5.718 -10.5170  0.00  0.00     0.000 HD
ATOM     55   C  BGC B   4      19.357   9.028 -13.4700  0.00  0.00     0.000 C
ATOM     56   O  BGC B   4      18.320   8.961 -14.4510  0.00  0.00     0.000 O
ATOM     58  HD  BGC B   4      18.933   8.355 -14.3700  0.00  0.00     0.000 HD
BRANCH 45 58
ATOM     58  O4  BGC B   5      16.467  11.054 -10.5430  0.00  0.00     0.000 O
BRANCH 58 62
ATOM     59  C1  BGC B   5      16.033  14.788  -8.8060  0.00  0.00     0.000 C
ATOM     60  C2  BGC B   5      17.022  14.715  -9.9520  0.00  0.00     0.000 C
ATOM     61  C3  BGC B   5      16.802  13.454 -10.7660  0.00  0.00     0.000 C
ATOM     62  C4  BGC B   5      16.856  12.242  -9.8490  0.00  0.00     0.000 C
ATOM     63  C5  BGC B   5      15.890  12.414  -8.6680  0.00  0.00     0.000 C
ATOM     64  O5  BGC B   5      16.205  13.625  -7.9890  0.00  0.00     0.000 O
ATOM     65   O  BGC B   5      17.331  11.248  -7.2320  0.00  0.00     0.000 O
ATOM     67  HD  BGC B   5      17.984  10.679  -7.2450  0.00  0.00     0.000 HD
ATOM     67   O  BGC B   5      17.331  11.248  -7.2320  0.00  0.00     0.000 O
ATOM     69  HD  BGC B   5      17.984  10.679  -7.2450  0.00  0.00     0.000 HD
ENDBRANCH 58 62
ENDBRANCH 45 58
ENDBRANCH 44 48
ENDBRANCH 31 44
ENDBRANCH 30 34
ENDBRANCH 17 30
ENDBRANCH 16 20
ENDBRANCH 1 16
TORSDOF 8
ENDMDL
MODEL 37
REMARK VINA RESULT:      -7.9      4.138      9.044
ROOT
ATOM      1  C1  BGC B   1      19.402  -3.994 -14.1350  0.00  0.00     0.000 C
ATOM      2  C2  BGC B   1      20.061  -3.026 -13.1540  0.00  0.00     0.000 C
ATOM      3  C3  BGC B   1      19.093  -1.919 -12.7850  0.00  0.00     0.000 C
ATOM      4  C4  BGC B   1      18.521  -1.264 -14.0350  0.00  0.00     0.000 C
ATOM      5  C5  BGC B   1      17.889  -2.345 -14.8990  0.00  0.00     0.000 C
ATOM      6  O5  BGC B   1      18.931  -3.269 -15.2630  0.00  0.00     0.000 O
ATOM      7   O  BGC B   1      20.438  -3.741 -11.9650  0.00  0.00     0.000 O
ATOM      9  HD  BGC B   1      20.475  -3.297 -11.2230  0.00  0.00     0.000 HD
ATOM      9   O  BGC B   1      19.777  -0.958 -11.9740  0.00  0.00     0.000 O
ATOM     11  HD  BGC B   1      19.813  -0.514 -11.2310  0.00  0.00     0.000 HD
ATOM     11   O  BGC B   1      17.546  -0.312 -13.6680  0.00  0.00     0.000 O
ATOM     13  HD  BGC B   1      17.583   0.133 -12.9250  0.00  0.00     0.000 HD
ATOM     13   C  BGC B   1      17.225  -1.839 -16.1720  0.00  0.00     0.000 C
ATOM     14   O  BGC B   1      18.115  -1.076 -16.9810  0.00  0.00     0.000 O
ATOM     16  HD  BGC B   1      18.151  -0.632 -16.2380  0.00  0.00     0.000 HD
ENDROOT
BRANCH 1 16
ATOM     16  O4  BGC B   2      20.447  -4.825 -14.6370  0.00  0.00     0.000 O
BRANCH 16 20
ATOM     17  C1  BGC B   2      20.936  -8.067 -17.0420  0.00  0.00     0.000 C
ATOM     18  C2  BGC B   2      21.064  -6.739 -17.7730  0.00  0.00     0.000 C
ATOM     19  C3  BGC B   2      21.229  -5.629 -16.7370  0.00  0.00     0.000 C
ATOM     20  C4  BGC B   2      20.102  -5.678 -15.7250  0.00  0.00     0.000 C
ATOM     21  C5  BGC B   2      19.889  -7.082 -15.1580  0.00  0.00     0.000 C
ATOM     22  O5  BGC B   2      19.736  -7.997 -16.2500  0.00  0.00     0.000 O
ATOM     23   O  BGC B   2      22.217  -6.756 -18.6310  0.00  0.00     0.000 O
ATOM     25  HD  BGC B   2      22.054  -6.403 -17.8570  0.00  0.00     0.000 HD
ATOM     25   O  BGC B   2      21.255  -4.363 -17.3850  0.00  0.00     0.000 O
ATOM     27  HD  BGC B   2      21.092  -4.009 -16.6110  0.00  0.00     0.000 HD
ATOM     27   C  BGC B   2      18.644  -7.187 -14.2860  0.00  0.00     0.000 C
ATOM     28   O  BGC B   2      17.456  -6.788 -14.9500  0.00  0.00     0.000 O
ATOM     30  HD  BGC B   2      17.294  -6.434 -14.1770  0.00  0.00     0.000 HD
BRANCH 17 30
ATOM     30  O4  BGC B   3      20.673  -9.051 -18.0250  0.00  0.00     0.000 O
BRANCH 30 34
ATOM     31  C1  BGC B   3      19.854 -13.072 -18.3280  0.00  0.00     0.000 C
ATOM     32  C2  BGC B   3      18.837 -12.277 -17.5100  0.00  0.00     0.000 C
ATOM     33  C3  BGC B   3      19.019 -10.798 -17.8030  0.00  0.00     0.000 C
ATOM     34  C4  BGC B   3      20.464 -10.380 -17.5340  0.00  0.00     0.000 C
ATOM     35  C5  BGC B   3      21.425 -11.301 -18.2650  0.00  0.00     0.000 C
ATOM     36  O5  BGC B   3      21.146 -12.659 -17.9100  0.00  0.00     0.000 O
ATOM     37   O  BGC B   3      17.517 -12.655 -17.8950  0.00  0.00     0.000 O
ATOM     39  HD  BGC B   3      17.209 -12.198 -17.2270  0.00  0.00     0.000 HD
ATOM     39   O  BGC B   3      18.123 -10.064 -16.9820  0.00  0.00     0.000 O
ATOM     41  HD  BGC B   3      17.815  -9.607 -16.3140  0.00  0.00     0.000 HD
ATOM     41   C  BGC B   3      22.895 -11.013 -17.9800  0.00  0.00     0.000 C
ATOM     42   O  BGC B   3      23.150 -11.105 -16.5990  0.00  0.00     0.000 O
ATOM     44  HD  BGC B   3      22.841 -10.648 -15.9310  0.00  0.00     0.000 HD
BRANCH 31 44
ATOM     44  O4  BGC B   4      19.726 -14.420 -17.9550  0.00  0.00     0.000 O
BRANCH 44 48
ATOM     45  C1  BGC B   4      19.809 -18.192 -19.5560  0.00  0.00     0.000 C
ATOM     46  C2  BGC B   4      21.143 -17.461 -19.5780  0.00  0.00     0.000 C
ATOM     47  C3  BGC B   4      21.088 -16.284 -18.6340  0.00  0.00     0.000 C
ATOM     48  C4  BGC B   4      19.888 -15.392 -18.9670  0.00  0.00     0.000 C
ATOM     49  C5  BGC B   4      18.599 -16.222 -19.0250  0.00  0.00     0.000 C
ATOM     50  O5  BGC B   4      18.762 -17.305 -19.9520  0.00  0.00     0.000 O
ATOM     51   O  BGC B   4      22.199 -18.348 -19.1620  0.00  0.00     0.000 O
ATOM     53  HD  BGC B   4      22.104 -17.894 -18.4300  0.00  0.00     0.000 HD
ATOM     53   O  BGC B   4      22.302 -15.531 -18.7630  0.00  0.00     0.000 O
ATOM     55  HD  BGC B   4      22.207 -15.078 -18.0310  0.00  0.00     0.000 HD
ATOM     55   C  BGC B   4      17.371 -15.444 -19.4630  0.00  0.00     0.000 C
ATOM     56   O  BGC B   4      17.666 -14.837 -20.7220  0.00  0.00     0.000 O
ATOM     58  HD  BGC B   4      17.572 -14.384 -19.9910  0.00  0.00     0.000 HD
BRANCH 45 58
ATOM     58  O4  BGC B   5      19.851 -19.115 -20.6440  0.00  0.00     0.000 O
BRANCH 58 62
ATOM     59  C1  BGC B   5      17.911 -22.733 -21.1910  0.00  0.00     0.000 C
ATOM     60  C2  BGC B   5      17.791 -21.751 -22.3390  0.00  0.00     0.000 C
ATOM     61  C3  BGC B   5      18.848 -20.669 -22.2260  0.00  0.00     0.000 C
ATOM     62  C4  BGC B   5      18.755 -20.008 -20.8600  0.00  0.00     0.000 C
ATOM     63  C5  BGC B   5      18.802 -21.062 -19.7450  0.00  0.00     0.000 C
ATOM     64  O5  BGC B   5      17.763 -22.011 -19.9640  0.00  0.00     0.000 O
ATOM     65   O  BGC B   5      17.354 -19.802 -18.3990  0.00  0.00     0.000 O
ATOM     67  HD  BGC B   5      17.066 -18.993 -18.2870  0.00  0.00     0.000 HD
ATOM     67   O  BGC B   5      17.354 -19.802 -18.3990  0.00  0.00     0.000 O
ATOM     69  HD  BGC B   5      17.066 -18.993 -18.2870  0.00  0.00     0.000 HD
ENDBRANCH 58 62
ENDBRANCH 45 58
ENDBRANCH 44 48
ENDBRANCH 31 44
ENDBRANCH 30 34
ENDBRANCH 17 30
ENDBRANCH 16 20
ENDBRANCH 1 16
TORSDOF 8
ENDMDL
MODEL 38
REMARK VINA RESULT:      -7.9      5.690     18.372
ROOT
ATOM      1  C1  BGC B   1      19.862 -21.807 -18.7480  0.00  0.00     0.000 C
ATOM      2  C2  BGC B   1      20.020 -22.770 -17.5730  0.00  0.00     0.000 C
ATOM      3  C3  BGC B   1      20.303 -24.171 -18.0810  0.00  0.00     0.000 C
ATOM      4  C4  BGC B   1      19.263 -24.591 -19.1110  0.00  0.00     0.000 C
ATOM      5  C5  BGC B   1      19.233 -23.549 -20.2190  0.00  0.00     0.000 C
ATOM      6  O5  BGC B   1      18.853 -22.296 -19.6210  0.00  0.00     0.000 O
ATOM      7   O  BGC B   1      21.115 -22.335 -16.7490  0.00  0.00     0.000 O
ATOM      9  HD  BGC B   1      21.539 -22.937 -16.2930  0.00  0.00     0.000 HD
ATOM      9   O  BGC B   1      20.314 -25.072 -16.9700  0.00  0.00     0.000 O
ATOM     11  HD  BGC B   1      20.739 -25.674 -16.5140  0.00  0.00     0.000 HD
ATOM     11   O  BGC B   1      19.607 -25.851 -19.6450  0.00  0.00     0.000 O
ATOM     13  HD  BGC B   1      20.032 -26.453 -19.1890  0.00  0.00     0.000 HD
ATOM     13   C  BGC B   1      18.270 -23.854 -21.3570  0.00  0.00     0.000 C
ATOM     14   O  BGC B   1      16.938 -24.065 -20.8990  0.00  0.00     0.000 O
ATOM     16  HD  BGC B   1      17.363 -24.667 -20.4430  0.00  0.00     0.000 HD
ENDROOT
BRANCH 1 16
ATOM     16  O4  BGC B   2      19.331 -20.600 -18.2050  0.00  0.00     0.000 O
BRANCH 16 20
ATOM     17  C1  BGC B   2      19.624 -16.556 -18.5120  0.00  0.00     0.000 C
ATOM     18  C2  BGC B   2      18.977 -17.215 -19.7210  0.00  0.00     0.000 C
ATOM     19  C3  BGC B   2      18.593 -18.645 -19.3460  0.00  0.00     0.000 C
ATOM     20  C4  BGC B   2      19.793 -19.389 -18.7970  0.00  0.00     0.000 C
ATOM     21  C5  BGC B   2      20.524 -18.598 -17.7110  0.00  0.00     0.000 C
ATOM     22  O5  BGC B   2      20.826 -17.294 -18.2230  0.00  0.00     0.000 O
ATOM     23   O  BGC B   2      17.794 -16.495 -20.1020  0.00  0.00     0.000 O
ATOM     25  HD  BGC B   2      17.930 -17.235 -19.6750  0.00  0.00     0.000 HD
ATOM     25   O  BGC B   2      18.072 -19.321 -20.4840  0.00  0.00     0.000 O
ATOM     27  HD  BGC B   2      18.208 -20.061 -20.0570  0.00  0.00     0.000 HD
ATOM     27   C  BGC B   2      21.835 -19.245 -17.2850  0.00  0.00     0.000 C
ATOM     28   O  BGC B   2      22.732 -19.460 -18.3620  0.00  0.00     0.000 O
ATOM     30  HD  BGC B   2      22.868 -20.201 -17.9340  0.00  0.00     0.000 HD
BRANCH 17 30
ATOM     30  O4  BGC B   3      20.066 -15.278 -18.9300  0.00  0.00     0.000 O
BRANCH 30 34
ATOM     31  C1  BGC B   3      20.535 -11.477 -17.4270  0.00  0.00     0.000 C
ATOM     32  C2  BGC B   3      21.609 -12.471 -16.9860  0.00  0.00     0.000 C
ATOM     33  C3  BGC B   3      21.560 -13.685 -17.8970  0.00  0.00     0.000 C
ATOM     34  C4  BGC B   3      20.154 -14.284 -17.9040  0.00  0.00     0.000 C
ATOM     35  C5  BGC B   3      19.124 -13.210 -18.2100  0.00  0.00     0.000 C
ATOM     36  O5  BGC B   3      19.280 -12.125 -17.2900  0.00  0.00     0.000 O
ATOM     37   O  BGC B   3      22.895 -11.867 -17.1070  0.00  0.00     0.000 O
ATOM     39  HD  BGC B   3      23.235 -12.545 -16.6880  0.00  0.00     0.000 HD
ATOM     39   O  BGC B   3      22.507 -14.635 -17.4330  0.00  0.00     0.000 O
ATOM     41  HD  BGC B   3      22.847 -15.313 -17.0140  0.00  0.00     0.000 HD
ATOM     41   C  BGC B   3      17.682 -13.701 -18.1470  0.00  0.00     0.000 C
ATOM     42   O  BGC B   3      17.406 -14.237 -16.8750  0.00  0.00     0.000 O
ATOM     44  HD  BGC B   3      17.745 -14.915 -16.4560  0.00  0.00     0.000 HD
BRANCH 31 44
ATOM     44  O4  BGC B   4      20.543 -10.420 -16.5020  0.00  0.00     0.000 O
BRANCH 44 48
ATOM     45  C1  BGC B   4      19.514  -6.466 -16.1710  0.00  0.00     0.000 C
ATOM     46  C2  BGC B   4      18.342  -7.415 -16.3770  0.00  0.00     0.000 C
ATOM     47  C3  BGC B   4      18.783  -8.829 -16.0920  0.00  0.00     0.000 C
ATOM     48  C4  BGC B   4      20.017  -9.180 -16.9290  0.00  0.00     0.000 C
ATOM     49  C5  BGC B   4      21.112  -8.122 -16.7440  0.00  0.00     0.000 C
ATOM     50  O5  BGC B   4      20.586  -6.822 -17.0450  0.00  0.00     0.000 O
ATOM     51   O  BGC B   4      17.265  -7.070 -15.4850  0.00  0.00     0.000 O
ATOM     53  HD  BGC B   4      17.582  -7.754 -15.0590  0.00  0.00     0.000 HD
ATOM     53   O  BGC B   4      17.709  -9.723 -16.4160  0.00  0.00     0.000 O
ATOM     55  HD  BGC B   4      18.026 -10.407 -15.9900  0.00  0.00     0.000 HD
ATOM     55   C  BGC B   4      22.333  -8.322 -17.6250  0.00  0.00     0.000 C
ATOM     56   O  BGC B   4      21.886  -8.388 -18.9800  0.00  0.00     0.000 O
ATOM     58  HD  BGC B   4      22.203  -9.072 -18.5540  0.00  0.00     0.000 HD
BRANCH 45 58
ATOM     58  O4  BGC B   5      19.097  -5.208 -16.7010  0.00  0.00     0.000 O
BRANCH 58 62
ATOM     59  C1  BGC B   5      19.596  -1.138 -16.1230  0.00  0.00     0.000 C
ATOM     60  C2  BGC B   5      20.849  -1.976 -15.9660  0.00  0.00     0.000 C
ATOM     61  C3  BGC B   5      20.657  -3.344 -16.5910  0.00  0.00     0.000 C
ATOM     62  C4  BGC B   5      19.418  -4.002 -16.0050  0.00  0.00     0.000 C
ATOM     63  C5  BGC B   5      18.203  -3.071 -16.1250  0.00  0.00     0.000 C
ATOM     64  O5  BGC B   5      18.510  -1.830 -15.4980  0.00  0.00     0.000 O
ATOM     65   O  BGC B   5      17.314  -3.860 -14.1040  0.00  0.00     0.000 O
ATOM     67  HD  BGC B   5      17.352  -4.538 -13.5660  0.00  0.00     0.000 HD
ATOM     67   O  BGC B   5      17.314  -3.860 -14.1040  0.00  0.00     0.000 O
ATOM     69  HD  BGC B   5      17.352  -4.538 -13.5660  0.00  0.00     0.000 HD
ENDBRANCH 58 62
ENDBRANCH 45 58
ENDBRANCH 44 48
ENDBRANCH 31 44
ENDBRANCH 30 34
ENDBRANCH 17 30
ENDBRANCH 16 20
ENDBRANCH 1 16
TORSDOF 8
ENDMDL
MODEL 39
REMARK VINA RESULT:      -7.8      3.336      8.278
ROOT
ATOM      1  C1  BGC B   1      18.281  11.527  -8.7230  0.00  0.00     0.000 C
ATOM      2  C2  BGC B   1      17.552  11.862  -7.4230  0.00  0.00     0.000 C
ATOM      3  C3  BGC B   1      17.330  13.359  -7.3220  0.00  0.00     0.000 C
ATOM      4  C4  BGC B   1      18.637  14.113  -7.5290  0.00  0.00     0.000 C
ATOM      5  C5  BGC B   1      19.233  13.687  -8.8630  0.00  0.00     0.000 C
ATOM      6  O5  BGC B   1      19.489  12.272  -8.7880  0.00  0.00     0.000 O
ATOM      7   O  BGC B   1      16.280  11.193  -7.4090  0.00  0.00     0.000 O
ATOM      9  HD  BGC B   1      15.639  11.556  -6.9520  0.00  0.00     0.000 HD
ATOM      9   O  BGC B   1      16.768  13.657  -6.0400  0.00  0.00     0.000 O
ATOM     11  HD  BGC B   1      16.127  14.019  -5.5830  0.00  0.00     0.000 HD
ATOM     11   O  BGC B   1      18.388  15.501  -7.5350  0.00  0.00     0.000 O
ATOM     13  HD  BGC B   1      17.747  15.864  -7.0780  0.00  0.00     0.000 HD
ATOM     13   C  BGC B   1      20.527  14.394  -9.2400  0.00  0.00     0.000 C
ATOM     14   O  BGC B   1      21.528  14.264  -8.2350  0.00  0.00     0.000 O
ATOM     16  HD  BGC B   1      20.888  14.626  -7.7790  0.00  0.00     0.000 HD
ENDROOT
BRANCH 1 16
ATOM     16  O4  BGC B   2      18.691  10.165  -8.6100  0.00  0.00     0.000 O
BRANCH 16 20
ATOM     17  C1  BGC B   2      19.234   6.807 -10.8380  0.00  0.00     0.000 C
ATOM     18  C2  BGC B   2      20.320   7.853 -11.0350  0.00  0.00     0.000 C
ATOM     19  C3  BGC B   2      20.217   8.878  -9.9080  0.00  0.00     0.000 C
ATOM     20  C4  BGC B   2      18.813   9.443  -9.8330  0.00  0.00     0.000 C
ATOM     21  C5  BGC B   2      17.744   8.349  -9.8280  0.00  0.00     0.000 C
ATOM     22  O5  BGC B   2      17.969   7.486 -10.9500  0.00  0.00     0.000 O
ATOM     23   O  BGC B   2      21.616   7.234 -10.9900  0.00  0.00     0.000 O
ATOM     25  HD  BGC B   2      21.160   7.704 -10.4240  0.00  0.00     0.000 HD
ATOM     25   O  BGC B   2      21.158   9.924 -10.1160  0.00  0.00     0.000 O
ATOM     27  HD  BGC B   2      20.701  10.394  -9.5500  0.00  0.00     0.000 HD
ATOM     27   C  BGC B   2      16.329   8.901  -9.9440  0.00  0.00     0.000 C
ATOM     28   O  BGC B   2      16.134   9.713 -11.0910  0.00  0.00     0.000 O
ATOM     30  HD  BGC B   2      15.677  10.182 -10.5250  0.00  0.00     0.000 HD
BRANCH 17 30
ATOM     30  O4  BGC B   3      19.289   5.943 -11.9580  0.00  0.00     0.000 O
BRANCH 30 34
ATOM     31  C1  BGC B   3      18.118   2.139 -12.9980  0.00  0.00     0.000 C
ATOM     32  C2  BGC B   3      17.107   2.903 -12.1430  0.00  0.00     0.000 C
ATOM     33  C3  BGC B   3      17.459   4.380 -12.1680  0.00  0.00     0.000 C
ATOM     34  C4  BGC B   3      18.905   4.586 -11.7160  0.00  0.00     0.000 C
ATOM     35  C5  BGC B   3      19.839   3.691 -12.5110  0.00  0.00     0.000 C
ATOM     36  O5  BGC B   3      19.396   2.333 -12.4130  0.00  0.00     0.000 O
ATOM     37   O  BGC B   3      15.801   2.741 -12.6920  0.00  0.00     0.000 O
ATOM     39  HD  BGC B   3      15.475   3.118 -11.9840  0.00  0.00     0.000 HD
ATOM     39   O  BGC B   3      16.563   5.070 -11.3100  0.00  0.00     0.000 O
ATOM     41  HD  BGC B   3      16.237   5.447 -10.6020  0.00  0.00     0.000 HD
ATOM     41   C  BGC B   3      21.295   3.763 -12.0640  0.00  0.00     0.000 C
ATOM     42   O  BGC B   3      21.402   3.425 -10.7010  0.00  0.00     0.000 O
ATOM     44  HD  BGC B   3      21.076   3.802  -9.9930  0.00  0.00     0.000 HD
BRANCH 31 44
ATOM     44  O4  BGC B   4      17.823   0.772 -12.8680  0.00  0.00     0.000 O
BRANCH 44 48
ATOM     45  C1  BGC B   4      18.767  -2.812 -14.6200  0.00  0.00     0.000 C
ATOM     46  C2  BGC B   4      19.730  -2.361 -13.5320  0.00  0.00     0.000 C
ATOM     47  C3  BGC B   4      19.087  -1.271 -12.7100  0.00  0.00     0.000 C
ATOM     48  C4  BGC B   4      18.604  -0.135 -13.6190  0.00  0.00     0.000 C
ATOM     49  C5  BGC B   4      17.723  -0.685 -14.7470  0.00  0.00     0.000 C
ATOM     50  O5  BGC B   4      18.433  -1.707 -15.4620  0.00  0.00     0.000 O
ATOM     51   O  BGC B   4      20.055  -3.468 -12.6700  0.00  0.00     0.000 O
ATOM     53  HD  BGC B   4      19.486  -3.061 -12.1610  0.00  0.00     0.000 HD
ATOM     53   O  BGC B   4      20.051  -0.766 -11.7760  0.00  0.00     0.000 O
ATOM     55  HD  BGC B   4      19.481  -0.359 -11.2660  0.00  0.00     0.000 HD
ATOM     55   C  BGC B   4      17.291   0.352 -15.7680  0.00  0.00     0.000 C
ATOM     56   O  BGC B   4      18.469   0.980 -16.2770  0.00  0.00     0.000 O
ATOM     58  HD  BGC B   4      17.899   1.387 -15.7670  0.00  0.00     0.000 HD
BRANCH 45 58
ATOM     58  O4  BGC B   5      19.528  -3.641 -15.4980  0.00  0.00     0.000 O
BRANCH 58 62
ATOM     59  C1  BGC B   5      19.324  -7.263 -17.4940  0.00  0.00     0.000 C
ATOM     60  C2  BGC B   5      18.637  -6.101 -18.1830  0.00  0.00     0.000 C
ATOM     61  C3  BGC B   5      19.115  -4.782 -17.6070  0.00  0.00     0.000 C
ATOM     62  C4  BGC B   5      18.919  -4.786 -16.0990  0.00  0.00     0.000 C
ATOM     63  C5  BGC B   5      19.569  -6.028 -15.4720  0.00  0.00     0.000 C
ATOM     64  O5  BGC B   5      19.034  -7.191 -16.0950  0.00  0.00     0.000 O
ATOM     65   O  BGC B   5      17.902  -6.154 -13.8280  0.00  0.00     0.000 O
ATOM     67  HD  BGC B   5      17.305  -5.668 -13.4310  0.00  0.00     0.000 HD
ATOM     67   O  BGC B   5      17.902  -6.154 -13.8280  0.00  0.00     0.000 O
ATOM     69  HD  BGC B   5      17.305  -5.668 -13.4310  0.00  0.00     0.000 HD
ENDBRANCH 58 62
ENDBRANCH 45 58
ENDBRANCH 44 48
ENDBRANCH 31 44
ENDBRANCH 30 34
ENDBRANCH 17 30
ENDBRANCH 16 20
ENDBRANCH 1 16
TORSDOF 8
ENDMDL
MODEL 40
REMARK VINA RESULT:      -7.7      5.067     17.984
ROOT
ATOM      1  C1  BGC B   1      20.465 -20.369 -21.0160  0.00  0.00     0.000 C
ATOM      2  C2  BGC B   1      21.051 -21.455 -20.1150  0.00  0.00     0.000 C
ATOM      3  C3  BGC B   1      21.484 -22.645 -20.9480  0.00  0.00     0.000 C
ATOM      4  C4  BGC B   1      20.349 -23.112 -21.8510  0.00  0.00     0.000 C
ATOM      5  C5  BGC B   1      19.885 -21.932 -22.6930  0.00  0.00     0.000 C
ATOM      6  O5  BGC B   1      19.407 -20.920 -21.7870  0.00  0.00     0.000 O
ATOM      7   O  BGC B   1      22.191 -20.926 -19.4170  0.00  0.00     0.000 O
ATOM      9  HD  BGC B   1      22.810 -21.483 -19.1780  0.00  0.00     0.000 HD
ATOM      9   O  BGC B   1      21.903 -23.695 -20.0720  0.00  0.00     0.000 O
ATOM     11  HD  BGC B   1      22.521 -24.252 -19.8330  0.00  0.00     0.000 HD
ATOM     11   O  BGC B   1      20.807 -24.150 -22.6900  0.00  0.00     0.000 O
ATOM     13  HD  BGC B   1      21.426 -24.707 -22.4510  0.00  0.00     0.000 HD
ATOM     13   C  BGC B   1      18.780 -22.252 -23.6880  0.00  0.00     0.000 C
ATOM     14   O  BGC B   1      17.641 -22.838 -23.0640  0.00  0.00     0.000 O
ATOM     16  HD  BGC B   1      18.260 -23.395 -22.8250  0.00  0.00     0.000 HD
ENDROOT
BRANCH 1 16
ATOM     16  O4  BGC B   2      19.840 -19.425 -20.1480  0.00  0.00     0.000 O
BRANCH 16 20
ATOM     17  C1  BGC B   2      19.227 -15.425 -19.7510  0.00  0.00     0.000 C
ATOM     18  C2  BGC B   2      18.238 -16.105 -20.6860  0.00  0.00     0.000 C
ATOM     19  C3  BGC B   2      18.329 -17.614 -20.4730  0.00  0.00     0.000 C
ATOM     20  C4  BGC B   2      19.760 -18.086 -20.6290  0.00  0.00     0.000 C
ATOM     21  C5  BGC B   2      20.743 -17.246 -19.8120  0.00  0.00     0.000 C
ATOM     22  O5  BGC B   2      20.543 -15.865 -20.1370  0.00  0.00     0.000 O
ATOM     23   O  BGC B   2      16.901 -15.668 -20.3930  0.00  0.00     0.000 O
ATOM     25  HD  BGC B   2      17.346 -16.389 -20.2150  0.00  0.00     0.000 HD
ATOM     25   O  BGC B   2      17.485 -18.286 -21.4010  0.00  0.00     0.000 O
ATOM     27  HD  BGC B   2      17.930 -19.007 -21.2220  0.00  0.00     0.000 HD
ATOM     27   C  BGC B   2      22.199 -17.585 -20.1040  0.00  0.00     0.000 C
ATOM     28   O  BGC B   2      22.541 -17.466 -21.4750  0.00  0.00     0.000 O
ATOM     30  HD  BGC B   2      22.986 -18.187 -21.2960  0.00  0.00     0.000 HD
BRANCH 17 30
ATOM     30  O4  BGC B   3      19.196 -14.043 -20.0560  0.00  0.00     0.000 O
BRANCH 30 34
ATOM     31  C1  BGC B   3      19.653 -10.411 -18.1800  0.00  0.00     0.000 C
ATOM     32  C2  BGC B   3      20.962 -11.144 -18.4700  0.00  0.00     0.000 C
ATOM     33  C3  BGC B   3      20.697 -12.237 -19.4910  0.00  0.00     0.000 C
ATOM     34  C4  BGC B   3      19.586 -13.163 -18.9970  0.00  0.00     0.000 C
ATOM     35  C5  BGC B   3      18.366 -12.356 -18.5910  0.00  0.00     0.000 C
ATOM     36  O5  BGC B   3      18.749 -11.360 -17.6370  0.00  0.00     0.000 O
ATOM     37   O  BGC B   3      21.907 -10.230 -19.0220  0.00  0.00     0.000 O
ATOM     39  HD  BGC B   3      22.517 -10.839 -18.9440  0.00  0.00     0.000 HD
ATOM     39   O  BGC B   3      21.900 -12.962 -19.6970  0.00  0.00     0.000 O
ATOM     41  HD  BGC B   3      22.510 -13.571 -19.6180  0.00  0.00     0.000 HD
ATOM     41   C  BGC B   3      17.238 -13.193 -17.9990  0.00  0.00     0.000 C
ATOM     42   O  BGC B   3      17.700 -13.903 -16.8740  0.00  0.00     0.000 O
ATOM     44  HD  BGC B   3      18.310 -14.512 -16.7950  0.00  0.00     0.000 HD
BRANCH 31 44
ATOM     44  O4  BGC B   4      19.915  -9.480 -17.1610  0.00  0.00     0.000 O
BRANCH 44 48
ATOM     45  C1  BGC B   4      18.606  -5.808 -15.8930  0.00  0.00     0.000 C
ATOM     46  C2  BGC B   4      17.866  -6.993 -15.2880  0.00  0.00     0.000 C
ATOM     47  C3  BGC B   4      18.667  -8.253 -15.5090  0.00  0.00     0.000 C
ATOM     48  C4  BGC B   4      18.994  -8.421 -16.9960  0.00  0.00     0.000 C
ATOM     49  C5  BGC B   4      19.645  -7.149 -17.5520  0.00  0.00     0.000 C
ATOM     50  O5  BGC B   4      18.798  -6.019 -17.2920  0.00  0.00     0.000 O
ATOM     51   O  BGC B   4      17.686  -6.792 -13.8730  0.00  0.00     0.000 O
ATOM     53  HD  BGC B   4      18.346  -7.352 -13.8490  0.00  0.00     0.000 HD
ATOM     53   O  BGC B   4      17.899  -9.375 -15.0520  0.00  0.00     0.000 O
ATOM     55  HD  BGC B   4      18.559  -9.935 -15.0280  0.00  0.00     0.000 HD
ATOM     55   C  BGC B   4      19.900  -7.177 -19.0480  0.00  0.00     0.000 C
ATOM     56   O  BGC B   4      18.659  -7.463 -19.6970  0.00  0.00     0.000 O
ATOM     58  HD  BGC B   4      19.319  -8.023 -19.6730  0.00  0.00     0.000 HD
BRANCH 45 58
ATOM     58  O4  BGC B   5      17.683  -4.720 -15.8750  0.00  0.00     0.000 O
BRANCH 58 62
ATOM     59  C1  BGC B   5      17.403  -0.713 -14.8670  0.00  0.00     0.000 C
ATOM     60  C2  BGC B   5      18.142  -1.009 -16.1560  0.00  0.00     0.000 C
ATOM     61  C3  BGC B   5      17.832  -2.414 -16.6370  0.00  0.00     0.000 C
ATOM     62  C4  BGC B   5      18.137  -3.409 -15.5300  0.00  0.00     0.000 C
ATOM     63  C5  BGC B   5      17.423  -3.009 -14.2310  0.00  0.00     0.000 C
ATOM     64  O5  BGC B   5      17.800  -1.680 -13.8890  0.00  0.00     0.000 O
ATOM     65   O  BGC B   5      19.187  -3.835 -12.9260  0.00  0.00     0.000 O
ATOM     67  HD  BGC B   5      19.854  -4.386 -12.9610  0.00  0.00     0.000 HD
ATOM     67   O  BGC B   5      19.187  -3.835 -12.9260  0.00  0.00     0.000 O
ATOM     69  HD  BGC B   5      19.854  -4.386 -12.9610  0.00  0.00     0.000 HD
ENDBRANCH 58 62
ENDBRANCH 45 58
ENDBRANCH 44 48
ENDBRANCH 31 44
ENDBRANCH 30 34
ENDBRANCH 17 30
ENDBRANCH 16 20
ENDBRANCH 1 16
TORSDOF 8
ENDMDL
MODEL 41
REMARK VINA RESULT:      -7.7      4.391     17.467
ROOT
ATOM      1  C1  BGC B   1      18.431 -18.793 -22.6860  0.00  0.00     0.000 C
ATOM      2  C2  BGC B   1      18.333 -20.133 -21.9600  0.00  0.00     0.000 C
ATOM      3  C3  BGC B   1      18.576 -21.271 -22.9310  0.00  0.00     0.000 C
ATOM      4  C4  BGC B   1      17.672 -21.142 -24.1510  0.00  0.00     0.000 C
ATOM      5  C5  BGC B   1      17.893 -19.770 -24.7710  0.00  0.00     0.000 C
ATOM      6  O5  BGC B   1      17.529 -18.787 -23.7840  0.00  0.00     0.000 O
ATOM      7   O  BGC B   1      19.322 -20.180 -20.9180  0.00  0.00     0.000 O
ATOM      9  HD  BGC B   1      19.623 -20.958 -20.6840  0.00  0.00     0.000 HD
ATOM      9   O  BGC B   1      18.347 -22.512 -22.2570  0.00  0.00     0.000 O
ATOM     11  HD  BGC B   1      18.648 -23.290 -22.0230  0.00  0.00     0.000 HD
ATOM     11   O  BGC B   1      17.990 -22.150 -25.0860  0.00  0.00     0.000 O
ATOM     13  HD  BGC B   1      18.291 -22.927 -24.8520  0.00  0.00     0.000 HD
ATOM     13   C  BGC B   1      17.091 -19.504 -26.0370  0.00  0.00     0.000 C
ATOM     14   O  BGC B   1      15.693 -19.693 -25.8430  0.00  0.00     0.000 O
ATOM     16  HD  BGC B   1      15.994 -20.470 -25.6080  0.00  0.00     0.000 HD
ENDROOT
BRANCH 1 16
ATOM     16  O4  BGC B   2      17.924 -17.812 -21.7840  0.00  0.00     0.000 O
BRANCH 16 20
ATOM     17  C1  BGC B   2      18.134 -13.832 -20.9750  0.00  0.00     0.000 C
ATOM     18  C2  BGC B   2      17.222 -14.171 -22.1450  0.00  0.00     0.000 C
ATOM     19  C3  BGC B   2      16.938 -15.671 -22.1200  0.00  0.00     0.000 C
ATOM     20  C4  BGC B   2      18.234 -16.455 -22.0920  0.00  0.00     0.000 C
ATOM     21  C5  BGC B   2      19.198 -15.950 -21.0170  0.00  0.00     0.000 C
ATOM     22  O5  BGC B   2      19.371 -14.538 -21.1880  0.00  0.00     0.000 O
ATOM     23   O  BGC B   2      15.982 -13.455 -22.0280  0.00  0.00     0.000 O
ATOM     25  HD  BGC B   2      16.214 -14.274 -21.8730  0.00  0.00     0.000 HD
ATOM     25   O  BGC B   2      16.165 -16.037 -23.2570  0.00  0.00     0.000 O
ATOM     27  HD  BGC B   2      16.398 -16.856 -23.1020  0.00  0.00     0.000 HD
ATOM     27   C  BGC B   2      20.573 -16.600 -21.1000  0.00  0.00     0.000 C
ATOM     28   O  BGC B   2      21.193 -16.445 -22.3670  0.00  0.00     0.000 O
ATOM     30  HD  BGC B   2      21.426 -17.264 -22.2110  0.00  0.00     0.000 HD
BRANCH 17 30
ATOM     30  O4  BGC B   3      18.465 -12.462 -21.0980  0.00  0.00     0.000 O
BRANCH 30 34
ATOM     31  C1  BGC B   3      19.473  -9.258 -18.7220  0.00  0.00     0.000 C
ATOM     32  C2  BGC B   3      20.603 -10.262 -18.9460  0.00  0.00     0.000 C
ATOM     33  C3  BGC B   3      20.245 -11.149 -20.1250  0.00  0.00     0.000 C
ATOM     34  C4  BGC B   3      18.888 -11.814 -19.8940  0.00  0.00     0.000 C
ATOM     35  C5  BGC B   3      17.844 -10.771 -19.5360  0.00  0.00     0.000 C
ATOM     36  O5  BGC B   3      18.303 -10.001 -18.4200  0.00  0.00     0.000 O
ATOM     37   O  BGC B   3      21.806  -9.563 -19.2560  0.00  0.00     0.000 O
ATOM     39  HD  BGC B   3      22.239 -10.310 -19.1850  0.00  0.00     0.000 HD
ATOM     39   O  BGC B   3      21.263 -12.128 -20.2770  0.00  0.00     0.000 O
ATOM     41  HD  BGC B   3      21.695 -12.874 -20.2060  0.00  0.00     0.000 HD
ATOM     41   C  BGC B   3      16.476 -11.355 -19.1980  0.00  0.00     0.000 C
ATOM     42   O  BGC B   3      16.587 -12.263 -18.1280  0.00  0.00     0.000 O
ATOM     44  HD  BGC B   3      17.020 -13.010 -18.0570  0.00  0.00     0.000 HD
BRANCH 31 44
ATOM     44  O4  BGC B   4      19.791  -8.526 -17.5660  0.00  0.00     0.000 O
BRANCH 44 48
ATOM     45  C1  BGC B   4      18.555  -5.128 -15.6340  0.00  0.00     0.000 C
ATOM     46  C2  BGC B   4      17.899  -6.413 -15.1480  0.00  0.00     0.000 C
ATOM     47  C3  BGC B   4      18.694  -7.599 -15.6340  0.00  0.00     0.000 C
ATOM     48  C4  BGC B   4      18.874  -7.533 -17.1540  0.00  0.00     0.000 C
ATOM     49  C5  BGC B   4      19.443  -6.171 -17.5700  0.00  0.00     0.000 C
ATOM     50  O5  BGC B   4      18.609  -5.120 -17.0610  0.00  0.00     0.000 O
ATOM     51   O  BGC B   4      17.858  -6.432 -13.7080  0.00  0.00     0.000 O
ATOM     53  HD  BGC B   4      18.526  -6.968 -13.8340  0.00  0.00     0.000 HD
ATOM     53   O  BGC B   4      17.995  -8.801 -15.2810  0.00  0.00     0.000 O
ATOM     55  HD  BGC B   4      18.663  -9.337 -15.4060  0.00  0.00     0.000 HD
ATOM     55   C  BGC B   4      19.548  -5.967 -19.0710  0.00  0.00     0.000 C
ATOM     56   O  BGC B   4      18.253  -6.192 -19.6320  0.00  0.00     0.000 O
ATOM     58  HD  BGC B   4      18.922  -6.728 -19.7580  0.00  0.00     0.000 HD
BRANCH 45 58
ATOM     58  O4  BGC B   5      17.620  -4.084 -15.3620  0.00  0.00     0.000 O
BRANCH 58 62
ATOM     59  C1  BGC B   5      17.433  -0.035 -14.5170  0.00  0.00     0.000 C
ATOM     60  C2  BGC B   5      17.691  -0.385 -15.9680  0.00  0.00     0.000 C
ATOM     61  C3  BGC B   5      17.331  -1.833 -16.2390  0.00  0.00     0.000 C
ATOM     62  C4  BGC B   5      18.074  -2.732 -15.2650  0.00  0.00     0.000 C
ATOM     63  C5  BGC B   5      17.835  -2.276 -13.8180  0.00  0.00     0.000 C
ATOM     64  O5  BGC B   5      18.215  -0.910 -13.6970  0.00  0.00     0.000 O
ATOM     65   O  BGC B   5      19.998  -2.922 -13.1850  0.00  0.00     0.000 O
ATOM     67  HD  BGC B   5      20.647  -3.442 -13.4270  0.00  0.00     0.000 HD
ATOM     67   O  BGC B   5      19.998  -2.922 -13.1850  0.00  0.00     0.000 O
ATOM     69  HD  BGC B   5      20.647  -3.442 -13.4270  0.00  0.00     0.000 HD
ENDBRANCH 58 62
ENDBRANCH 45 58
ENDBRANCH 44 48
ENDBRANCH 31 44
ENDBRANCH 30 34
ENDBRANCH 17 30
ENDBRANCH 16 20
ENDBRANCH 1 16
TORSDOF 8
ENDMDL
MODEL 42
REMARK VINA RESULT:      -7.6      2.601      3.096
ROOT
ATOM      1  C1  BGC B   1      19.097   4.638 -13.7820  0.00  0.00     0.000 C
ATOM      2  C2  BGC B   1      19.463   5.235 -12.4240  0.00  0.00     0.000 C
ATOM      3  C3  BGC B   1      18.992   6.675 -12.3440  0.00  0.00     0.000 C
ATOM      4  C4  BGC B   1      19.489   7.472 -13.5440  0.00  0.00     0.000 C
ATOM      5  C5  BGC B   1      19.036   6.765 -14.8130  0.00  0.00     0.000 C
ATOM      6  O5  BGC B   1      19.633   5.455 -14.8130  0.00  0.00     0.000 O
ATOM      7   O  BGC B   1      18.828   4.472 -11.3850  0.00  0.00     0.000 O
ATOM      9  HD  BGC B   1      18.643   4.878 -10.6430  0.00  0.00     0.000 HD
ATOM      9   O  BGC B   1      19.463   7.248 -11.1210  0.00  0.00     0.000 O
ATOM     11  HD  BGC B   1      19.278   7.654 -10.3790  0.00  0.00     0.000 HD
ATOM     11   O  BGC B   1      18.952   8.776 -13.5010  0.00  0.00     0.000 O
ATOM     13  HD  BGC B   1      18.767   9.182 -12.7590  0.00  0.00     0.000 HD
ATOM     13   C  BGC B   1      19.416   7.470 -16.1070  0.00  0.00     0.000 C
ATOM     14   O  BGC B   1      20.816   7.714 -16.2000  0.00  0.00     0.000 O
ATOM     16  HD  BGC B   1      20.631   8.121 -15.4580  0.00  0.00     0.000 HD
ENDROOT
BRANCH 1 16
ATOM     16  O4  BGC B   2      19.806   3.404 -13.8780  0.00  0.00     0.000 O
BRANCH 16 20
ATOM     17  C1  BGC B   2      19.454  -0.391 -15.2950  0.00  0.00     0.000 C
ATOM     18  C2  BGC B   2      19.447   0.671 -16.3850  0.00  0.00     0.000 C
ATOM     19  C3  BGC B   2      19.944   1.984 -15.7840  0.00  0.00     0.000 C
ATOM     20  C4  BGC B   2      19.135   2.345 -14.5560  0.00  0.00     0.000 C
ATOM     21  C5  BGC B   2      19.012   1.179 -13.5750  0.00  0.00     0.000 C
ATOM     22  O5  BGC B   2      18.520   0.035 -14.2860  0.00  0.00     0.000 O
ATOM     23   O  BGC B   2      20.321   0.284 -17.4580  0.00  0.00     0.000 O
ATOM     25  HD  BGC B   2      20.393   0.846 -16.8030  0.00  0.00     0.000 HD
ATOM     25   O  BGC B   2      19.859   3.022 -16.7540  0.00  0.00     0.000 O
ATOM     27  HD  BGC B   2      19.931   3.585 -16.0990  0.00  0.00     0.000 HD
ATOM     27   C  BGC B   2      18.047   1.464 -12.4310  0.00  0.00     0.000 C
ATOM     28   O  BGC B   2      16.746   1.821 -12.8680  0.00  0.00     0.000 O
ATOM     30  HD  BGC B   2      16.818   2.383 -12.2130  0.00  0.00     0.000 HD
BRANCH 17 30
ATOM     30  O4  BGC B   3      18.883  -1.558 -15.8570  0.00  0.00     0.000 O
BRANCH 30 34
ATOM     31  C1  BGC B   3      19.287  -5.650 -15.7250  0.00  0.00     0.000 C
ATOM     32  C2  BGC B   3      18.822  -5.015 -14.4140  0.00  0.00     0.000 C
ATOM     33  C3  BGC B   3      18.336  -3.605 -14.6970  0.00  0.00     0.000 C
ATOM     34  C4  BGC B   3      19.428  -2.800 -15.4000  0.00  0.00     0.000 C
ATOM     35  C5  BGC B   3      19.943  -3.555 -16.6130  0.00  0.00     0.000 C
ATOM     36  O5  BGC B   3      20.362  -4.864 -16.2150  0.00  0.00     0.000 O
ATOM     37   O  BGC B   3      17.737  -5.769 -13.8790  0.00  0.00     0.000 O
ATOM     39  HD  BGC B   3      17.793  -5.303 -13.1520  0.00  0.00     0.000 HD
ATOM     39   O  BGC B   3      17.979  -2.997 -13.4650  0.00  0.00     0.000 O
ATOM     41  HD  BGC B   3      18.036  -2.531 -12.7370  0.00  0.00     0.000 HD
ATOM     41   C  BGC B   3      21.102  -2.866 -17.3250  0.00  0.00     0.000 C
ATOM     42   O  BGC B   3      22.172  -2.669 -16.4320  0.00  0.00     0.000 O
ATOM     44  HD  BGC B   3      22.229  -2.203 -15.7040  0.00  0.00     0.000 HD
BRANCH 31 44
ATOM     44  O4  BGC B   4      19.823  -6.909 -15.4100  0.00  0.00     0.000 O
BRANCH 44 48
ATOM     45  C1  BGC B   4      20.206 -10.676 -16.9800  0.00  0.00     0.000 C
ATOM     46  C2  BGC B   4      21.147  -9.638 -17.5760  0.00  0.00     0.000 C
ATOM     47  C3  BGC B   4      21.195  -8.428 -16.6760  0.00  0.00     0.000 C
ATOM     48  C4  BGC B   4      19.780  -7.903 -16.4130  0.00  0.00     0.000 C
ATOM     49  C5  BGC B   4      18.871  -9.031 -15.9130  0.00  0.00     0.000 C
ATOM     50  O5  BGC B   4      18.896 -10.123 -16.8440  0.00  0.00     0.000 O
ATOM     51   O  BGC B   4      22.473 -10.186 -17.6990  0.00  0.00     0.000 O
ATOM     53  HD  BGC B   4      22.589  -9.703 -16.9900  0.00  0.00     0.000 HD
ATOM     53   O  BGC B   4      21.980  -7.409 -17.3130  0.00  0.00     0.000 O
ATOM     55  HD  BGC B   4      22.096  -6.926 -16.6040  0.00  0.00     0.000 HD
ATOM     55   C  BGC B   4      17.417  -8.633 -15.7350  0.00  0.00     0.000 C
ATOM     56   O  BGC B   4      16.957  -8.096 -16.9770  0.00  0.00     0.000 O
ATOM     58  HD  BGC B   4      17.074  -7.613 -16.2680  0.00  0.00     0.000 HD
BRANCH 45 58
ATOM     58  O4  BGC B   5      20.015 -11.659 -17.9970  0.00  0.00     0.000 O
BRANCH 58 62
ATOM     59  C1  BGC B   5      18.156 -15.294 -18.6920  0.00  0.00     0.000 C
ATOM     60  C2  BGC B   5      17.304 -14.251 -17.9960  0.00  0.00     0.000 C
ATOM     61  C3  BGC B   5      17.910 -12.870 -18.1640  0.00  0.00     0.000 C
ATOM     62  C4  BGC B   5      19.352 -12.886 -17.6820  0.00  0.00     0.000 C
ATOM     63  C5  BGC B   5      20.139 -14.015 -18.3650  0.00  0.00     0.000 C
ATOM     64  O5  BGC B   5      19.470 -15.250 -18.1280  0.00  0.00     0.000 O
ATOM     65   O  BGC B   5      21.438 -14.362 -16.4450  0.00  0.00     0.000 O
ATOM     67  HD  BGC B   5      21.695 -13.964 -15.7200  0.00  0.00     0.000 HD
ATOM     67   O  BGC B   5      21.438 -14.362 -16.4450  0.00  0.00     0.000 O
ATOM     69  HD  BGC B   5      21.695 -13.964 -15.7200  0.00  0.00     0.000 HD
ENDBRANCH 58 62
ENDBRANCH 45 58
ENDBRANCH 44 48
ENDBRANCH 31 44
ENDBRANCH 30 34
ENDBRANCH 17 30
ENDBRANCH 16 20
ENDBRANCH 1 16
TORSDOF 8
ENDMDL
MODEL 43
REMARK VINA RESULT:      -7.6      8.068     21.504
ROOT
ATOM      1  C1  BGC B   1      19.254 -25.724 -21.8620  0.00  0.00     0.000 C
ATOM      2  C2  BGC B   1      20.494 -26.564 -21.5640  0.00  0.00     0.000 C
ATOM      3  C3  BGC B   1      20.183 -28.037 -21.7500  0.00  0.00     0.000 C
ATOM      4  C4  BGC B   1      18.943 -28.430 -20.9570  0.00  0.00     0.000 C
ATOM      5  C5  BGC B   1      17.797 -27.521 -21.3730  0.00  0.00     0.000 C
ATOM      6  O5  BGC B   1      18.178 -26.171 -21.0480  0.00  0.00     0.000 O
ATOM      7   O  BGC B   1      21.549 -26.186 -22.4640  0.00  0.00     0.000 O
ATOM      9  HD  BGC B   1      22.145 -26.783 -22.6600  0.00  0.00     0.000 HD
ATOM      9   O  BGC B   1      21.317 -28.805 -21.3380  0.00  0.00     0.000 O
ATOM     11  HD  BGC B   1      21.913 -29.402 -21.5340  0.00  0.00     0.000 HD
ATOM     11   O  BGC B   1      18.614 -29.775 -21.2300  0.00  0.00     0.000 O
ATOM     13  HD  BGC B   1      19.209 -30.372 -21.4260  0.00  0.00     0.000 HD
ATOM     13   C  BGC B   1      16.466 -27.822 -20.6990  0.00  0.00     0.000 C
ATOM     14   O  BGC B   1      16.562 -27.809 -19.2780  0.00  0.00     0.000 O
ATOM     16  HD  BGC B   1      17.158 -28.407 -19.4740  0.00  0.00     0.000 HD
ENDROOT
BRANCH 1 16
ATOM     16  O4  BGC B   2      19.546 -24.406 -21.4010  0.00  0.00     0.000 O
BRANCH 16 20
ATOM     17  C1  BGC B   2      17.891 -20.706 -21.0670  0.00  0.00     0.000 C
ATOM     18  C2  BGC B   2      17.349 -21.712 -20.0610  0.00  0.00     0.000 C
ATOM     19  C3  BGC B   2      18.280 -22.922 -20.0350  0.00  0.00     0.000 C
ATOM     20  C4  BGC B   2      18.466 -23.476 -21.4330  0.00  0.00     0.000 C
ATOM     21  C5  BGC B   2      18.825 -22.391 -22.4480  0.00  0.00     0.000 C
ATOM     22  O5  BGC B   2      17.853 -21.342 -22.3580  0.00  0.00     0.000 O
ATOM     23   O  BGC B   2      17.306 -21.124 -18.7500  0.00  0.00     0.000 O
ATOM     25  HD  BGC B   2      17.843 -21.683 -19.1350  0.00  0.00     0.000 HD
ATOM     25   O  BGC B   2      17.750 -23.922 -19.1740  0.00  0.00     0.000 O
ATOM     27  HD  BGC B   2      18.287 -24.482 -19.5600  0.00  0.00     0.000 HD
ATOM     27   C  BGC B   2      18.829 -22.898 -23.8840  0.00  0.00     0.000 C
ATOM     28   O  BGC B   2      17.600 -23.488 -24.2760  0.00  0.00     0.000 O
ATOM     30  HD  BGC B   2      18.137 -24.047 -24.6620  0.00  0.00     0.000 HD
BRANCH 17 30
ATOM     30  O4  BGC B   3      16.946 -19.656 -21.1440  0.00  0.00     0.000 O
BRANCH 30 34
ATOM     31  C1  BGC B   3      16.973 -15.545 -20.9860  0.00  0.00     0.000 C
ATOM     32  C2  BGC B   3      17.021 -16.126 -22.3990  0.00  0.00     0.000 C
ATOM     33  C3  BGC B   3      16.608 -17.586 -22.3440  0.00  0.00     0.000 C
ATOM     34  C4  BGC B   3      17.486 -18.347 -21.3510  0.00  0.00     0.000 C
ATOM     35  C5  BGC B   3      17.506 -17.636 -20.0100  0.00  0.00     0.000 C
ATOM     36  O5  BGC B   3      17.902 -16.273 -20.1990  0.00  0.00     0.000 O
ATOM     37   O  BGC B   3      16.100 -15.427 -23.2330  0.00  0.00     0.000 O
ATOM     39  HD  BGC B   3      16.434 -15.837 -23.9180  0.00  0.00     0.000 HD
ATOM     39   O  BGC B   3      16.730 -18.137 -23.6460  0.00  0.00     0.000 O
ATOM     41  HD  BGC B   3      17.064 -18.548 -24.3320  0.00  0.00     0.000 HD
ATOM     41   C  BGC B   3      18.433 -18.276 -18.9830  0.00  0.00     0.000 C
ATOM     42   O  BGC B   3      19.749 -18.328 -19.4810  0.00  0.00     0.000 O
ATOM     44  HD  BGC B   3      20.083 -18.739 -20.1670  0.00  0.00     0.000 HD
BRANCH 31 44
ATOM     44  O4  BGC B   4      17.458 -14.229 -21.0610  0.00  0.00     0.000 O
BRANCH 44 48
ATOM     45  C1  BGC B   4      18.295 -11.030 -18.6380  0.00  0.00     0.000 C
ATOM     46  C2  BGC B   4      19.370 -12.108 -18.6660  0.00  0.00     0.000 C
ATOM     47  C3  BGC B   4      19.147 -13.010 -19.8540  0.00  0.00     0.000 C
ATOM     48  C4  BGC B   4      17.718 -13.562 -19.8430  0.00  0.00     0.000 C
ATOM     49  C5  BGC B   4      16.701 -12.421 -19.7110  0.00  0.00     0.000 C
ATOM     50  O5  BGC B   4      17.004 -11.634 -18.5500  0.00  0.00     0.000 O
ATOM     51   O  BGC B   4      20.673 -11.503 -18.7720  0.00  0.00     0.000 O
ATOM     53  HD  BGC B   4      20.572 -11.758 -19.5930  0.00  0.00     0.000 HD
ATOM     53   O  BGC B   4      20.085 -14.095 -19.7940  0.00  0.00     0.000 O
ATOM     55  HD  BGC B   4      19.985 -14.349 -20.6150  0.00  0.00     0.000 HD
ATOM     55   C  BGC B   4      15.260 -12.878 -19.5750  0.00  0.00     0.000 C
ATOM     56   O  BGC B   4      15.191 -13.777 -18.4660  0.00  0.00     0.000 O
ATOM     58  HD  BGC B   4      15.091 -14.032 -19.2880  0.00  0.00     0.000 HD
BRANCH 45 58
ATOM     58  O4  BGC B   5      18.416 -10.389 -17.3690  0.00  0.00     0.000 O
BRANCH 58 62
ATOM     59  C1  BGC B   5      19.104  -6.553 -15.9690  0.00  0.00     0.000 C
ATOM     60  C2  BGC B   5      17.689  -7.066 -15.7910  0.00  0.00     0.000 C
ATOM     61  C3  BGC B   5      17.647  -8.575 -15.9400  0.00  0.00     0.000 C
ATOM     62  C4  BGC B   5      18.265  -8.971 -17.2720  0.00  0.00     0.000 C
ATOM     63  C5  BGC B   5      19.663  -8.355 -17.4240  0.00  0.00     0.000 C
ATOM     64  O5  BGC B   5      19.563  -6.943 -17.2670  0.00  0.00     0.000 O
ATOM     65   O  BGC B   5      19.377  -8.107 -19.7380  0.00  0.00     0.000 O
ATOM     67  HD  BGC B   5      18.910  -8.416 -20.3990  0.00  0.00     0.000 HD
ATOM     67   O  BGC B   5      19.377  -8.107 -19.7380  0.00  0.00     0.000 O
ATOM     69  HD  BGC B   5      18.910  -8.416 -20.3990  0.00  0.00     0.000 HD
ENDBRANCH 58 62
ENDBRANCH 45 58
ENDBRANCH 44 48
ENDBRANCH 31 44
ENDBRANCH 30 34
ENDBRANCH 17 30
ENDBRANCH 16 20
ENDBRANCH 1 16
TORSDOF 8
ENDMDL
MODEL 44
REMARK VINA RESULT:      -7.6      2.449     14.903
ROOT
ATOM      1  C1  BGC B   1      19.518 -11.253 -16.9250  0.00  0.00     0.000 C
ATOM      2  C2  BGC B   1      18.542 -11.670 -18.0240  0.00  0.00     0.000 C
ATOM      3  C3  BGC B   1      18.408 -13.180 -18.0570  0.00  0.00     0.000 C
ATOM      4  C4  BGC B   1      19.779 -13.841 -18.1390  0.00  0.00     0.000 C
ATOM      5  C5  BGC B   1      20.625 -13.342 -16.9770  0.00  0.00     0.000 C
ATOM      6  O5  BGC B   1      20.759 -11.916 -17.1230  0.00  0.00     0.000 O
ATOM      7   O  BGC B   1      17.256 -11.086 -17.7610  0.00  0.00     0.000 O
ATOM      9  HD  BGC B   1      16.557 -11.502 -18.0590  0.00  0.00     0.000 HD
ATOM      9   O  BGC B   1      17.597 -13.548 -19.1760  0.00  0.00     0.000 O
ATOM     11  HD  BGC B   1      16.898 -13.964 -19.4740  0.00  0.00     0.000 HD
ATOM     11   O  BGC B   1      19.634 -15.242 -18.0610  0.00  0.00     0.000 O
ATOM     13  HD  BGC B   1      18.935 -15.658 -18.3590  0.00  0.00     0.000 HD
ATOM     13   C  BGC B   1      22.017 -13.952 -16.8920  0.00  0.00     0.000 C
ATOM     14   O  BGC B   1      22.757 -13.784 -18.0960  0.00  0.00     0.000 O
ATOM     16  HD  BGC B   1      22.058 -14.199 -18.3940  0.00  0.00     0.000 HD
ENDROOT
BRANCH 1 16
ATOM     16  O4  BGC B   2      19.796  -9.871 -17.1420  0.00  0.00     0.000 O
BRANCH 16 20
ATOM     17  C1  BGC B   2      20.487  -6.401 -15.1380  0.00  0.00     0.000 C
ATOM     18  C2  BGC B   2      21.373  -7.553 -14.6890  0.00  0.00     0.000 C
ATOM     19  C3  BGC B   2      21.287  -8.665 -15.7310  0.00  0.00     0.000 C
ATOM     20  C4  BGC B   2      19.843  -9.050 -15.9780  0.00  0.00     0.000 C
ATOM     21  C5  BGC B   2      18.953  -7.834 -16.2390  0.00  0.00     0.000 C
ATOM     22  O5  BGC B   2      19.136  -6.897 -15.1700  0.00  0.00     0.000 O
ATOM     23   O  BGC B   2      22.737  -7.113 -14.5810  0.00  0.00     0.000 O
ATOM     25  HD  BGC B   2      22.304  -7.576 -15.1710  0.00  0.00     0.000 HD
ATOM     25   O  BGC B   2      22.031  -9.797 -15.2940  0.00  0.00     0.000 O
ATOM     27  HD  BGC B   2      21.598 -10.259 -15.8840  0.00  0.00     0.000 HD
ATOM     27   C  BGC B   2      17.472  -8.185 -16.3010  0.00  0.00     0.000 C
ATOM     28   O  BGC B   2      17.001  -8.843 -15.1360  0.00  0.00     0.000 O
ATOM     30  HD  BGC B   2      16.568  -9.305 -15.7270  0.00  0.00     0.000 HD
BRANCH 17 30
ATOM     30  O4  BGC B   3      20.503  -5.442 -14.0970  0.00  0.00     0.000 O
BRANCH 30 34
ATOM     31  C1  BGC B   3      20.328  -1.363 -13.5920  0.00  0.00     0.000 C
ATOM     32  C2  BGC B   3      18.985  -2.022 -13.9040  0.00  0.00     0.000 C
ATOM     33  C3  BGC B   3      19.106  -3.517 -13.6720  0.00  0.00     0.000 C
ATOM     34  C4  BGC B   3      20.260  -4.088 -14.4940  0.00  0.00     0.000 C
ATOM     35  C5  BGC B   3      21.531  -3.296 -14.2430  0.00  0.00     0.000 C
ATOM     36  O5  BGC B   3      21.283  -1.908 -14.4890  0.00  0.00     0.000 O
ATOM     37   O  BGC B   3      17.987  -1.507 -13.0250  0.00  0.00     0.000 O
ATOM     39  HD  BGC B   3      17.385  -1.913 -13.4970  0.00  0.00     0.000 HD
ATOM     39   O  BGC B   3      17.878  -4.130 -14.0370  0.00  0.00     0.000 O
ATOM     41  HD  BGC B   3      17.277  -4.536 -14.5100  0.00  0.00     0.000 HD
ATOM     41   C  BGC B   3      22.716  -3.739 -15.0940  0.00  0.00     0.000 C
ATOM     42   O  BGC B   3      22.393  -3.646 -16.4610  0.00  0.00     0.000 O
ATOM     44  HD  BGC B   3      21.791  -4.052 -16.9340  0.00  0.00     0.000 HD
BRANCH 31 44
ATOM     44  O4  BGC B   4      20.207  -0.001 -13.9160  0.00  0.00     0.000 O
BRANCH 44 48
ATOM     45  C1  BGC B   4      21.454   3.695 -12.6560  0.00  0.00     0.000 C
ATOM     46  C2  BGC B   4      22.577   2.724 -12.9920  0.00  0.00     0.000 C
ATOM     47  C3  BGC B   4      22.023   1.575 -13.7980  0.00  0.00     0.000 C
ATOM     48  C4  BGC B   4      20.845   0.928 -13.0630  0.00  0.00     0.000 C
ATOM     49  C5  BGC B   4      19.808   1.987 -12.6700  0.00  0.00     0.000 C
ATOM     50  O5  BGC B   4      20.440   3.024 -11.9060  0.00  0.00     0.000 O
ATOM     51   O  BGC B   4      23.594   3.392 -13.7630  0.00  0.00     0.000 O
ATOM     53  HD  BGC B   4      23.198   2.962 -14.4020  0.00  0.00     0.000 HD
ATOM     53   O  BGC B   4      23.062   0.605 -13.9950  0.00  0.00     0.000 O
ATOM     55  HD  BGC B   4      22.667   0.175 -14.6340  0.00  0.00     0.000 HD
ATOM     55   C  BGC B   4      18.657   1.458 -11.8340  0.00  0.00     0.000 C
ATOM     56   O  BGC B   4      19.213   0.812 -10.6870  0.00  0.00     0.000 O
ATOM     58  HD  BGC B   4      18.817   0.382 -11.3260  0.00  0.00     0.000 HD
BRANCH 45 58
ATOM     58  O4  BGC B   5      21.995   4.598 -11.6910  0.00  0.00     0.000 O
BRANCH 58 62
ATOM     59  C1  BGC B   5      21.834   8.548 -10.4580  0.00  0.00     0.000 C
ATOM     60  C2  BGC B   5      20.520   7.795 -10.4000  0.00  0.00     0.000 C
ATOM     61  C3  BGC B   5      20.761   6.299 -10.4630  0.00  0.00     0.000 C
ATOM     62  C4  BGC B   5      21.587   5.969 -11.6960  0.00  0.00     0.000 C
ATOM     63  C5  BGC B   5      22.864   6.821 -11.7360  0.00  0.00     0.000 C
ATOM     64  O5  BGC B   5      22.501   8.197 -11.6740  0.00  0.00     0.000 O
ATOM     65   O  BGC B   5      22.806   6.921 -14.0770  0.00  0.00     0.000 O
ATOM     67  HD  BGC B   5      22.480   6.507 -14.7640  0.00  0.00     0.000 HD
ATOM     67   O  BGC B   5      22.806   6.921 -14.0770  0.00  0.00     0.000 O
ATOM     69  HD  BGC B   5      22.480   6.507 -14.7640  0.00  0.00     0.000 HD
ENDBRANCH 58 62
ENDBRANCH 45 58
ENDBRANCH 44 48
ENDBRANCH 31 44
ENDBRANCH 30 34
ENDBRANCH 17 30
ENDBRANCH 16 20
ENDBRANCH 1 16
TORSDOF 8
ENDMDL
MODEL 45
REMARK VINA RESULT:      -7.6      9.064     17.027
ROOT
ATOM      1  C1  BGC B   1      18.342 -10.782 -18.8940  0.00  0.00     0.000 C
ATOM      2  C2  BGC B   1      19.655 -10.154 -18.4280  0.00  0.00     0.000 C
ATOM      3  C3  BGC B   1      19.383  -8.835 -17.7290  0.00  0.00     0.000 C
ATOM      4  C4  BGC B   1      18.520  -7.931 -18.6010  0.00  0.00     0.000 C
ATOM      5  C5  BGC B   1      17.251  -8.685 -18.9680  0.00  0.00     0.000 C
ATOM      6  O5  BGC B   1      17.644  -9.854 -19.7120  0.00  0.00     0.000 O
ATOM      7   O  BGC B   1      20.309 -11.048 -17.5130  0.00  0.00     0.000 O
ATOM      9  HD  BGC B   1      20.833 -10.702 -16.9160  0.00  0.00     0.000 HD
ATOM      9   O  BGC B   1      20.632  -8.208 -17.4240  0.00  0.00     0.000 O
ATOM     11  HD  BGC B   1      21.156  -7.861 -16.8270  0.00  0.00     0.000 HD
ATOM     11   O  BGC B   1      18.194  -6.758 -17.8880  0.00  0.00     0.000 O
ATOM     13  HD  BGC B   1      18.718  -6.412 -17.2920  0.00  0.00     0.000 HD
ATOM     13   C  BGC B   1      16.256  -7.892 -19.8030  0.00  0.00     0.000 C
ATOM     14   O  BGC B   1      16.838  -7.378 -20.9970  0.00  0.00     0.000 O
ATOM     16  HD  BGC B   1      17.362  -7.032 -20.4000  0.00  0.00     0.000 HD
ENDROOT
BRANCH 1 16
ATOM     16  O4  BGC B   2      18.700 -11.851 -19.7670  0.00  0.00     0.000 O
BRANCH 16 20
ATOM     17  C1  BGC B   2      17.651 -15.653 -20.7580  0.00  0.00     0.000 C
ATOM     18  C2  BGC B   2      16.653 -14.603 -21.2220  0.00  0.00     0.000 C
ATOM     19  C3  BGC B   2      17.314 -13.230 -21.1260  0.00  0.00     0.000 C
ATOM     20  C4  BGC B   2      17.857 -13.000 -19.7300  0.00  0.00     0.000 C
ATOM     21  C5  BGC B   2      18.703 -14.173 -19.2340  0.00  0.00     0.000 C
ATOM     22  O5  BGC B   2      17.939 -15.377 -19.3740  0.00  0.00     0.000 O
ATOM     23   O  BGC B   2      16.276 -14.848 -22.5870  0.00  0.00     0.000 O
ATOM     25  HD  BGC B   2      16.811 -14.283 -22.2080  0.00  0.00     0.000 HD
ATOM     25   O  BGC B   2      16.374 -12.215 -21.4620  0.00  0.00     0.000 O
ATOM     27  HD  BGC B   2      16.910 -11.650 -21.0840  0.00  0.00     0.000 HD
ATOM     27   C  BGC B   2      19.098 -14.042 -17.7680  0.00  0.00     0.000 C
ATOM     28   O  BGC B   2      17.988 -13.890 -16.8980  0.00  0.00     0.000 O
ATOM     30  HD  BGC B   2      18.524 -13.325 -16.5200  0.00  0.00     0.000 HD
BRANCH 17 30
ATOM     30  O4  BGC B   3      16.969 -16.893 -20.7530  0.00  0.00     0.000 O
BRANCH 30 34
ATOM     31  C1  BGC B   3      17.750 -20.918 -21.0910  0.00  0.00     0.000 C
ATOM     32  C2  BGC B   3      18.209 -20.290 -19.7750  0.00  0.00     0.000 C
ATOM     33  C3  BGC B   3      17.524 -18.945 -19.6070  0.00  0.00     0.000 C
ATOM     34  C4  BGC B   3      17.796 -18.059 -20.8210  0.00  0.00     0.000 C
ATOM     35  C5  BGC B   3      17.452 -18.797 -22.1030  0.00  0.00     0.000 C
ATOM     36  O5  BGC B   3      18.152 -20.046 -22.1350  0.00  0.00     0.000 O
ATOM     37   O  BGC B   3      17.826 -21.131 -18.6880  0.00  0.00     0.000 O
ATOM     39  HD  BGC B   3      18.304 -20.638 -18.1600  0.00  0.00     0.000 HD
ATOM     39   O  BGC B   3      18.014 -18.336 -18.4220  0.00  0.00     0.000 O
ATOM     41  HD  BGC B   3      18.492 -17.843 -17.8940  0.00  0.00     0.000 HD
ATOM     41   C  BGC B   3      17.778 -18.020 -23.3730  0.00  0.00     0.000 C
ATOM     42   O  BGC B   3      19.146 -17.688 -23.4010  0.00  0.00     0.000 O
ATOM     44  HD  BGC B   3      19.624 -17.196 -22.8730  0.00  0.00     0.000 HD
BRANCH 31 44
ATOM     44  O4  BGC B   4      18.479 -22.106 -21.2600  0.00  0.00     0.000 O
BRANCH 44 48
ATOM     45  C1  BGC B   4      18.064 -25.895 -22.7680  0.00  0.00     0.000 C
ATOM     46  C2  BGC B   4      17.661 -24.781 -23.7230  0.00  0.00     0.000 C
ATOM     47  C3  BGC B   4      18.215 -23.468 -23.2270  0.00  0.00     0.000 C
ATOM     48  C4  BGC B   4      17.787 -23.225 -21.7770  0.00  0.00     0.000 C
ATOM     49  C5  BGC B   4      18.137 -24.434 -20.9010  0.00  0.00     0.000 C
ATOM     50  O5  BGC B   4      17.558 -25.622 -21.4610  0.00  0.00     0.000 O
ATOM     51   O  BGC B   4      18.184 -25.045 -25.0390  0.00  0.00     0.000 O
ATOM     53  HD  BGC B   4      18.755 -24.448 -24.7810  0.00  0.00     0.000 HD
ATOM     53   O  BGC B   4      17.718 -22.412 -24.0620  0.00  0.00     0.000 O
ATOM     55  HD  BGC B   4      18.290 -21.814 -23.8050  0.00  0.00     0.000 HD
ATOM     55   C  BGC B   4      17.647 -24.334 -19.4680  0.00  0.00     0.000 C
ATOM     56   O  BGC B   4      16.238 -24.100 -19.5050  0.00  0.00     0.000 O
ATOM     58  HD  BGC B   4      16.809 -23.502 -19.2470  0.00  0.00     0.000 HD
BRANCH 45 58
ATOM     58  O4  BGC B   5      17.300 -27.037 -23.1550  0.00  0.00     0.000 O
BRANCH 58 62
ATOM     59  C1  BGC B   5      17.606 -31.140 -22.6770  0.00  0.00     0.000 C
ATOM     60  C2  BGC B   5      18.560 -30.314 -21.8380  0.00  0.00     0.000 C
ATOM     61  C3  BGC B   5      18.097 -28.872 -21.7680  0.00  0.00     0.000 C
ATOM     62  C4  BGC B   5      17.914 -28.328 -23.1760  0.00  0.00     0.000 C
ATOM     63  C5  BGC B   5      17.002 -29.251 -23.9980  0.00  0.00     0.000 C
ATOM     64  O5  BGC B   5      17.548 -30.566 -23.9870  0.00  0.00     0.000 O
ATOM     65   O  BGC B   5      18.190 -28.785 -25.9650  0.00  0.00     0.000 O
ATOM     67  HD  BGC B   5      18.719 -28.194 -26.3120  0.00  0.00     0.000 HD
ATOM     67   O  BGC B   5      18.190 -28.785 -25.9650  0.00  0.00     0.000 O
ATOM     69  HD  BGC B   5      18.719 -28.194 -26.3120  0.00  0.00     0.000 HD
ENDBRANCH 58 62
ENDBRANCH 45 58
ENDBRANCH 44 48
ENDBRANCH 31 44
ENDBRANCH 30 34
ENDBRANCH 17 30
ENDBRANCH 16 20
ENDBRANCH 1 16
TORSDOF 8
ENDMDL
MODEL 46
REMARK VINA RESULT:      -7.6      3.298     16.362
ROOT
ATOM      1  C1  BGC B   1      17.683 -16.828 -20.2850  0.00  0.00     0.000 C
ATOM      2  C2  BGC B   1      17.675 -17.300 -21.7380  0.00  0.00     0.000 C
ATOM      3  C3  BGC B   1      17.039 -18.673 -21.8360  0.00  0.00     0.000 C
ATOM      4  C4  BGC B   1      17.691 -19.641 -20.8570  0.00  0.00     0.000 C
ATOM      5  C5  BGC B   1      17.608 -19.043 -19.4610  0.00  0.00     0.000 C
ATOM      6  O5  BGC B   1      18.335 -17.801 -19.4800  0.00  0.00     0.000 O
ATOM      7   O  BGC B   1      16.920 -16.371 -22.5330  0.00  0.00     0.000 O
ATOM      9  HD  BGC B   1      16.533 -16.673 -23.2470  0.00  0.00     0.000 HD
ATOM      9   O  BGC B   1      17.164 -19.146 -23.1810  0.00  0.00     0.000 O
ATOM     11  HD  BGC B   1      16.778 -19.448 -23.8940  0.00  0.00     0.000 HD
ATOM     11   O  BGC B   1      17.014 -20.879 -20.8920  0.00  0.00     0.000 O
ATOM     13  HD  BGC B   1      16.628 -21.181 -21.6060  0.00  0.00     0.000 HD
ATOM     13   C  BGC B   1      18.178 -19.920 -18.3550  0.00  0.00     0.000 C
ATOM     14   O  BGC B   1      19.528 -20.299 -18.6050  0.00  0.00     0.000 O
ATOM     16  HD  BGC B   1      19.141 -20.601 -19.3190  0.00  0.00     0.000 HD
ENDROOT
BRANCH 1 16
ATOM     16  O4  BGC B   2      18.531 -15.682 -20.2430  0.00  0.00     0.000 O
BRANCH 16 20
ATOM     17  C1  BGC B   2      19.369 -12.413 -17.9740  0.00  0.00     0.000 C
ATOM     18  C2  BGC B   2      19.867 -13.719 -17.3730  0.00  0.00     0.000 C
ATOM     19  C3  BGC B   2      19.828 -14.797 -18.4530  0.00  0.00     0.000 C
ATOM     20  C4  BGC B   2      18.445 -14.881 -19.0680  0.00  0.00     0.000 C
ATOM     21  C5  BGC B   2      17.909 -13.511 -19.4850  0.00  0.00     0.000 C
ATOM     22  O5  BGC B   2      17.999 -12.624 -18.3630  0.00  0.00     0.000 O
ATOM     23   O  BGC B   2      21.219 -13.566 -16.9100  0.00  0.00     0.000 O
ATOM     25  HD  BGC B   2      20.866 -13.934 -17.6100  0.00  0.00     0.000 HD
ATOM     25   O  BGC B   2      20.197 -16.054 -17.8970  0.00  0.00     0.000 O
ATOM     27  HD  BGC B   2      19.844 -16.422 -18.5970  0.00  0.00     0.000 HD
ATOM     27   C  BGC B   2      16.452 -13.553 -19.9280  0.00  0.00     0.000 C
ATOM     28   O  BGC B   2      15.582 -14.095 -18.9480  0.00  0.00     0.000 O
ATOM     30  HD  BGC B   2      15.229 -14.463 -19.6480  0.00  0.00     0.000 HD
BRANCH 17 30
ATOM     30  O4  BGC B   3      19.313 -11.471 -16.9200  0.00  0.00     0.000 O
BRANCH 30 34
ATOM     31  C1  BGC B   3      19.837  -7.444 -16.2610  0.00  0.00     0.000 C
ATOM     32  C2  BGC B   3      18.852  -7.781 -17.3800  0.00  0.00     0.000 C
ATOM     33  C3  BGC B   3      18.449  -9.240 -17.2570  0.00  0.00     0.000 C
ATOM     34  C4  BGC B   3      19.690 -10.133 -17.2600  0.00  0.00     0.000 C
ATOM     35  C5  BGC B   3      20.688  -9.654 -16.2210  0.00  0.00     0.000 C
ATOM     36  O5  BGC B   3      20.977  -8.270 -16.4410  0.00  0.00     0.000 O
ATOM     37   O  BGC B   3      17.683  -6.977 -17.2430  0.00  0.00     0.000 O
ATOM     39  HD  BGC B   3      17.417  -7.260 -18.0170  0.00  0.00     0.000 HD
ATOM     39   O  BGC B   3      17.596  -9.565 -18.3440  0.00  0.00     0.000 O
ATOM     41  HD  BGC B   3      17.331  -9.847 -19.1180  0.00  0.00     0.000 HD
ATOM     41   C  BGC B   3      21.999 -10.433 -16.2160  0.00  0.00     0.000 C
ATOM     42   O  BGC B   3      22.607 -10.368 -17.4840  0.00  0.00     0.000 O
ATOM     44  HD  BGC B   3      22.342 -10.651 -18.2580  0.00  0.00     0.000 HD
BRANCH 31 44
ATOM     44  O4  BGC B   4      20.264  -6.122 -16.4680  0.00  0.00     0.000 O
BRANCH 44 48
ATOM     45  C1  BGC B   4      21.019  -2.684 -14.3680  0.00  0.00     0.000 C
ATOM     46  C2  BGC B   4      22.136  -3.717 -14.3220  0.00  0.00     0.000 C
ATOM     47  C3  BGC B   4      21.926  -4.733 -15.4180  0.00  0.00     0.000 C
ATOM     48  C4  BGC B   4      20.521  -5.336 -15.3220  0.00  0.00     0.000 C
ATOM     49  C5  BGC B   4      19.462  -4.229 -15.2710  0.00  0.00     0.000 C
ATOM     50  O5  BGC B   4      19.755  -3.326 -14.1940  0.00  0.00     0.000 O
ATOM     51   O  BGC B   4      23.411  -3.075 -14.5140  0.00  0.00     0.000 O
ATOM     53  HD  BGC B   4      23.304  -3.408 -15.3070  0.00  0.00     0.000 HD
ATOM     53   O  BGC B   4      22.908  -5.770 -15.2810  0.00  0.00     0.000 O
ATOM     55  HD  BGC B   4      22.802  -6.103 -16.0730  0.00  0.00     0.000 HD
ATOM     55   C  BGC B   4      18.043  -4.726 -15.0590  0.00  0.00     0.000 C
ATOM     56   O  BGC B   4      18.034  -5.521 -13.8710  0.00  0.00     0.000 O
ATOM     58  HD  BGC B   4      17.927  -5.855 -14.6640  0.00  0.00     0.000 HD
BRANCH 45 58
ATOM     58  O4  BGC B   5      21.139  -1.924 -13.1650  0.00  0.00     0.000 O
BRANCH 58 62
ATOM     59  C1  BGC B   5      20.209   1.758 -11.5160  0.00  0.00     0.000 C
ATOM     60  C2  BGC B   5      19.031   0.969 -12.0500  0.00  0.00     0.000 C
ATOM     61  C3  BGC B   5      19.407  -0.488 -12.2380  0.00  0.00     0.000 C
ATOM     62  C4  BGC B   5      20.643  -0.585 -13.1190  0.00  0.00     0.000 C
ATOM     63  C5  BGC B   5      21.771   0.299 -12.5670  0.00  0.00     0.000 C
ATOM     64  O5  BGC B   5      21.292   1.634 -12.4430  0.00  0.00     0.000 O
ATOM     65   O  BGC B   5      22.539   0.785 -14.7280  0.00  0.00     0.000 O
ATOM     67  HD  BGC B   5      22.515   0.483 -15.5390  0.00  0.00     0.000 HD
ATOM     67   O  BGC B   5      22.539   0.785 -14.7280  0.00  0.00     0.000 O
ATOM     69  HD  BGC B   5      22.515   0.483 -15.5390  0.00  0.00     0.000 HD
ENDBRANCH 58 62
ENDBRANCH 45 58
ENDBRANCH 44 48
ENDBRANCH 31 44
ENDBRANCH 30 34
ENDBRANCH 17 30
ENDBRANCH 16 20
ENDBRANCH 1 16
TORSDOF 8
ENDMDL
MODEL 47
REMARK VINA RESULT:      -7.6      2.537     15.475
ROOT
ATOM      1  C1  BGC B   1      19.351  -6.046 -15.3900  0.00  0.00     0.000 C
ATOM      2  C2  BGC B   1      18.221  -7.030 -15.0930  0.00  0.00     0.000 C
ATOM      3  C3  BGC B   1      18.670  -8.447 -15.3950  0.00  0.00     0.000 C
ATOM      4  C4  BGC B   1      19.243  -8.542 -16.8030  0.00  0.00     0.000 C
ATOM      5  C5  BGC B   1      20.361  -7.519 -16.9400  0.00  0.00     0.000 C
ATOM      6  O5  BGC B   1      19.781  -6.218 -16.7330  0.00  0.00     0.000 O
ATOM      7   O  BGC B   1      17.861  -6.933 -13.7050  0.00  0.00     0.000 O
ATOM      9  HD  BGC B   1      17.527  -7.636 -13.3260  0.00  0.00     0.000 HD
ATOM      9   O  BGC B   1      17.556  -9.329 -15.2360  0.00  0.00     0.000 O
ATOM     11  HD  BGC B   1      17.221 -10.032 -14.8570  0.00  0.00     0.000 HD
ATOM     11   O  BGC B   1      19.750  -9.841 -17.0220  0.00  0.00     0.000 O
ATOM     13  HD  BGC B   1      19.415 -10.544 -16.6420  0.00  0.00     0.000 HD
ATOM     13   C  BGC B   1      21.071  -7.524 -18.2860  0.00  0.00     0.000 C
ATOM     14   O  BGC B   1      20.168  -7.357 -19.3750  0.00  0.00     0.000 O
ATOM     16  HD  BGC B   1      19.834  -8.060 -18.9960  0.00  0.00     0.000 HD
ENDROOT
BRANCH 1 16
ATOM     16  O4  BGC B   2      18.767  -4.745 -15.3500  0.00  0.00     0.000 O
BRANCH 16 20
ATOM     17  C1  BGC B   2      19.785  -0.899 -14.5120  0.00  0.00     0.000 C
ATOM     18  C2  BGC B   2      19.988  -1.281 -15.9710  0.00  0.00     0.000 C
ATOM     19  C3  BGC B   2      19.246  -2.588 -16.2370  0.00  0.00     0.000 C
ATOM     20  C4  BGC B   2      19.676  -3.652 -15.2480  0.00  0.00     0.000 C
ATOM     21  C5  BGC B   2      19.635  -3.155 -13.8020  0.00  0.00     0.000 C
ATOM     22  O5  BGC B   2      20.387  -1.938 -13.7170  0.00  0.00     0.000 O
ATOM     23   O  BGC B   2      19.458  -0.256 -16.8280  0.00  0.00     0.000 O
ATOM     25  HD  BGC B   2      19.173  -1.036 -16.5830  0.00  0.00     0.000 HD
ATOM     25   O  BGC B   2      19.495  -3.024 -17.5680  0.00  0.00     0.000 O
ATOM     27  HD  BGC B   2      19.209  -3.804 -17.3240  0.00  0.00     0.000 HD
ATOM     27   C  BGC B   2      20.242  -4.145 -12.8160  0.00  0.00     0.000 C
ATOM     28   O  BGC B   2      21.579  -4.503 -13.1290  0.00  0.00     0.000 O
ATOM     30  HD  BGC B   2      21.293  -5.283 -12.8850  0.00  0.00     0.000 HD
BRANCH 17 30
ATOM     30  O4  BGC B   3      20.577   0.251 -14.2760  0.00  0.00     0.000 O
BRANCH 30 34
ATOM     31  C1  BGC B   3      20.597   3.551 -11.8190  0.00  0.00     0.000 C
ATOM     32  C2  BGC B   3      21.210   2.295 -11.2000  0.00  0.00     0.000 C
ATOM     33  C3  BGC B   3      21.504   1.296 -12.3050  0.00  0.00     0.000 C
ATOM     34  C4  BGC B   3      20.238   1.011 -13.1120  0.00  0.00     0.000 C
ATOM     35  C5  BGC B   3      19.603   2.311 -13.5750  0.00  0.00     0.000 C
ATOM     36  O5  BGC B   3      19.384   3.163 -12.4460  0.00  0.00     0.000 O
ATOM     37   O  BGC B   3      22.437   2.632 -10.5570  0.00  0.00     0.000 O
ATOM     39  HD  BGC B   3      22.458   1.836 -10.2160  0.00  0.00     0.000 HD
ATOM     39   O  BGC B   3      22.001   0.105 -11.7140  0.00  0.00     0.000 O
ATOM     41  HD  BGC B   3      22.021  -0.691 -11.3730  0.00  0.00     0.000 HD
ATOM     41   C  BGC B   3      18.281   2.126 -14.3120  0.00  0.00     0.000 C
ATOM     42   O  BGC B   3      17.360   1.444 -13.4930  0.00  0.00     0.000 O
ATOM     44  HD  BGC B   3      17.381   0.649 -13.1520  0.00  0.00     0.000 HD
BRANCH 31 44
ATOM     44  O4  BGC B   4      20.245   4.406 -10.7620  0.00  0.00     0.000 O
BRANCH 44 48
ATOM     45  C1  BGC B   4      19.990   8.406  -9.9040  0.00  0.00     0.000 C
ATOM     46  C2  BGC B   4      18.782   7.831 -10.6310  0.00  0.00     0.000 C
ATOM     47  C3  BGC B   4      18.810   6.326 -10.5400  0.00  0.00     0.000 C
ATOM     48  C4  BGC B   4      20.151   5.787 -11.0470  0.00  0.00     0.000 C
ATOM     49  C5  BGC B   4      21.316   6.488 -10.3380  0.00  0.00     0.000 C
ATOM     50  O5  BGC B   4      21.193   7.909 -10.4930  0.00  0.00     0.000 O
ATOM     51   O  BGC B   4      17.567   8.317 -10.0290  0.00  0.00     0.000 O
ATOM     53  HD  BGC B   4      17.582   7.522  -9.6860  0.00  0.00     0.000 HD
ATOM     53   O  BGC B   4      17.742   5.795 -11.3380  0.00  0.00     0.000 O
ATOM     55  HD  BGC B   4      17.757   5.000 -10.9950  0.00  0.00     0.000 HD
ATOM     55   C  BGC B   4      22.690   6.102 -10.8570  0.00  0.00     0.000 C
ATOM     56   O  BGC B   4      22.707   6.344 -12.2660  0.00  0.00     0.000 O
ATOM     58  HD  BGC B   4      22.721   5.549 -11.9230  0.00  0.00     0.000 HD
BRANCH 45 58
ATOM     58  O4  BGC B   5      20.033   9.790 -10.2510  0.00  0.00     0.000 O
BRANCH 58 62
ATOM     59  C1  BGC B   5      20.503  13.545  -8.5700  0.00  0.00     0.000 C
ATOM     60  C2  BGC B   5      21.776  12.736  -8.7200  0.00  0.00     0.000 C
ATOM     61  C3  BGC B   5      21.569  11.594  -9.6970  0.00  0.00     0.000 C
ATOM     62  C4  BGC B   5      20.376  10.760  -9.2590  0.00  0.00     0.000 C
ATOM     63  C5  BGC B   5      19.142  11.649  -9.0480  0.00  0.00     0.000 C
ATOM     64  O5  BGC B   5      19.466  12.672  -8.1120  0.00  0.00     0.000 O
ATOM     65   O  BGC B   5      18.382  10.296  -7.2910  0.00  0.00     0.000 O
ATOM     67  HD  BGC B   5      18.461   9.496  -6.9700  0.00  0.00     0.000 HD
ATOM     67   O  BGC B   5      18.382  10.296  -7.2910  0.00  0.00     0.000 O
ATOM     69  HD  BGC B   5      18.461   9.496  -6.9700  0.00  0.00     0.000 HD
ENDBRANCH 58 62
ENDBRANCH 45 58
ENDBRANCH 44 48
ENDBRANCH 31 44
ENDBRANCH 30 34
ENDBRANCH 17 30
ENDBRANCH 16 20
ENDBRANCH 1 16
TORSDOF 8
ENDMDL
MODEL 48
REMARK VINA RESULT:      -7.6      2.484      3.969
ROOT
ATOM      1  C1  BGC B   1      19.121   2.845 -14.1890  0.00  0.00     0.000 C
ATOM      2  C2  BGC B   1      18.923   3.231 -12.7230  0.00  0.00     0.000 C
ATOM      3  C3  BGC B   1      18.485   4.679 -12.6200  0.00  0.00     0.000 C
ATOM      4  C4  BGC B   1      19.434   5.586 -13.3930  0.00  0.00     0.000 C
ATOM      5  C5  BGC B   1      19.514   5.087 -14.8290  0.00  0.00     0.000 C
ATOM      6  O5  BGC B   1      20.039   3.747 -14.7900  0.00  0.00     0.000 O
ATOM      7   O  BGC B   1      17.913   2.388 -12.1450  0.00  0.00     0.000 O
ATOM      9  HD  BGC B   1      17.453   2.706 -11.4840  0.00  0.00     0.000 HD
ATOM      9   O  BGC B   1      18.436   5.050 -11.2400  0.00  0.00     0.000 O
ATOM     11  HD  BGC B   1      17.976   5.369 -10.5780  0.00  0.00     0.000 HD
ATOM     11   O  BGC B   1      18.947   6.910 -13.3710  0.00  0.00     0.000 O
ATOM     13  HD  BGC B   1      18.487   7.228 -12.7100  0.00  0.00     0.000 HD
ATOM     13   C  BGC B   1      20.393   5.925 -15.7480  0.00  0.00     0.000 C
ATOM     14   O  BGC B   1      21.717   6.073 -15.2450  0.00  0.00     0.000 O
ATOM     16  HD  BGC B   1      21.257   6.391 -14.5830  0.00  0.00     0.000 HD
ENDROOT
BRANCH 1 16
ATOM     16  O4  BGC B   2      19.789   1.585 -14.1820  0.00  0.00     0.000 O
BRANCH 16 20
ATOM     17  C1  BGC B   2      19.869  -2.000 -16.0990  0.00  0.00     0.000 C
ATOM     18  C2  BGC B   2      20.407  -0.848 -16.9350  0.00  0.00     0.000 C
ATOM     19  C3  BGC B   2      20.667   0.340 -16.0120  0.00  0.00     0.000 C
ATOM     20  C4  BGC B   2      19.422   0.675 -15.2160  0.00  0.00     0.000 C
ATOM     21  C5  BGC B   2      18.809  -0.556 -14.5470  0.00  0.00     0.000 C
ATOM     22  O5  BGC B   2      18.613  -1.567 -15.5440  0.00  0.00     0.000 O
ATOM     23   O  BGC B   2      21.639  -1.231 -17.5680  0.00  0.00     0.000 O
ATOM     25  HD  BGC B   2      21.449  -0.743 -16.8780  0.00  0.00     0.000 HD
ATOM     25   O  BGC B   2      21.081   1.466 -16.7760  0.00  0.00     0.000 O
ATOM     27  HD  BGC B   2      20.891   1.954 -16.0870  0.00  0.00     0.000 HD
ATOM     27   C  BGC B   2      17.458  -0.271 -13.9030  0.00  0.00     0.000 C
ATOM     28   O  BGC B   2      16.507   0.268 -14.8060  0.00  0.00     0.000 O
ATOM     30  HD  BGC B   2      16.317   0.756 -14.1170  0.00  0.00     0.000 HD
BRANCH 17 30
ATOM     30  O4  BGC B   3      19.534  -3.039 -17.0010  0.00  0.00     0.000 O
BRANCH 30 34
ATOM     31  C1  BGC B   3      19.320  -7.145 -17.1310  0.00  0.00     0.000 C
ATOM     32  C2  BGC B   3      18.575  -6.508 -15.9580  0.00  0.00     0.000 C
ATOM     33  C3  BGC B   3      18.392  -5.027 -16.2390  0.00  0.00     0.000 C
ATOM     34  C4  BGC B   3      19.743  -4.371 -16.5210  0.00  0.00     0.000 C
ATOM     35  C5  BGC B   3      20.490  -5.140 -17.5970  0.00  0.00     0.000 C
ATOM     36  O5  BGC B   3      20.588  -6.516 -17.2160  0.00  0.00     0.000 O
ATOM     37   O  BGC B   3      17.287  -7.106 -15.8300  0.00  0.00     0.000 O
ATOM     39  HD  BGC B   3      17.187  -6.689 -15.0780  0.00  0.00     0.000 HD
ATOM     39   O  BGC B   3      17.770  -4.428 -15.1120  0.00  0.00     0.000 O
ATOM     41  HD  BGC B   3      17.669  -4.012 -14.3600  0.00  0.00     0.000 HD
ATOM     41   C  BGC B   3      21.891  -4.609 -17.8780  0.00  0.00     0.000 C
ATOM     42   O  BGC B   3      22.662  -4.624 -16.7000  0.00  0.00     0.000 O
ATOM     44  HD  BGC B   3      22.562  -4.207 -15.9480  0.00  0.00     0.000 HD
BRANCH 31 44
ATOM     44  O4  BGC B   4      19.560  -8.486 -16.7900  0.00  0.00     0.000 O
BRANCH 44 48
ATOM     45  C1  BGC B   4      19.613 -12.213 -18.4970  0.00  0.00     0.000 C
ATOM     46  C2  BGC B   4      20.872 -11.388 -18.7270  0.00  0.00     0.000 C
ATOM     47  C3  BGC B   4      20.904 -10.237 -17.7520  0.00  0.00     0.000 C
ATOM     48  C4  BGC B   4      19.607  -9.426 -17.8450  0.00  0.00     0.000 C
ATOM     49  C5  BGC B   4      18.386 -10.343 -17.7050  0.00  0.00     0.000 C
ATOM     50  O5  BGC B   4      18.456 -11.395 -18.6790  0.00  0.00     0.000 O
ATOM     51   O  BGC B   4      22.040 -12.206 -18.5270  0.00  0.00     0.000 O
ATOM     53  HD  BGC B   4      22.045 -11.774 -17.7770  0.00  0.00     0.000 HD
ATOM     53   O  BGC B   4      22.024  -9.397 -18.0660  0.00  0.00     0.000 O
ATOM     55  HD  BGC B   4      22.029  -8.965 -17.3150  0.00  0.00     0.000 HD
ATOM     55   C  BGC B   4      17.052  -9.646 -17.9000  0.00  0.00     0.000 C
ATOM     56   O  BGC B   4      17.082  -8.996 -19.1720  0.00  0.00     0.000 O
ATOM     58  HD  BGC B   4      17.086  -8.565 -18.4210  0.00  0.00     0.000 HD
BRANCH 45 58
ATOM     58  O4  BGC B   5      19.525 -13.110 -19.6040  0.00  0.00     0.000 O
BRANCH 58 62
ATOM     59  C1  BGC B   5      17.552 -16.692 -20.2530  0.00  0.00     0.000 C
ATOM     60  C2  BGC B   5      17.159 -15.557 -21.1760  0.00  0.00     0.000 C
ATOM     61  C3  BGC B   5      18.201 -14.455 -21.1400  0.00  0.00     0.000 C
ATOM     62  C4  BGC B   5      18.420 -14.010 -19.7020  0.00  0.00     0.000 C
ATOM     63  C5  BGC B   5      18.735 -15.216 -18.8050  0.00  0.00     0.000 C
ATOM     64  O5  BGC B   5      17.684 -16.168 -18.9270  0.00  0.00     0.000 O
ATOM     65   O  BGC B   5      17.625 -14.239 -16.9860  0.00  0.00     0.000 O
ATOM     67  HD  BGC B   5      17.361 -13.470 -16.6880  0.00  0.00     0.000 HD
ATOM     67   O  BGC B   5      17.625 -14.239 -16.9860  0.00  0.00     0.000 O
ATOM     69  HD  BGC B   5      17.361 -13.470 -16.6880  0.00  0.00     0.000 HD
ENDBRANCH 58 62
ENDBRANCH 45 58
ENDBRANCH 44 48
ENDBRANCH 31 44
ENDBRANCH 30 34
ENDBRANCH 17 30
ENDBRANCH 16 20
ENDBRANCH 1 16
TORSDOF 8
ENDMDL
MODEL 49
REMARK VINA RESULT:      -7.5      6.267     17.796
ROOT
ATOM      1  C1  BGC B   1      22.246 -21.179 -16.7260  0.00  0.00     0.000 C
ATOM      2  C2  BGC B   1      22.244 -22.030 -15.4580  0.00  0.00     0.000 C
ATOM      3  C3  BGC B   1      22.754 -23.425 -15.7650  0.00  0.00     0.000 C
ATOM      4  C4  BGC B   1      21.994 -24.031 -16.9380  0.00  0.00     0.000 C
ATOM      5  C5  BGC B   1      22.100 -23.082 -18.1230  0.00  0.00     0.000 C
ATOM      6  O5  BGC B   1      21.490 -21.837 -17.7330  0.00  0.00     0.000 O
ATOM      7   O  BGC B   1      23.099 -21.419 -14.4770  0.00  0.00     0.000 O
ATOM      9  HD  BGC B   1      23.473 -21.936 -13.8910  0.00  0.00     0.000 HD
ATOM      9   O  BGC B   1      22.617 -24.236 -14.5950  0.00  0.00     0.000 O
ATOM     11  HD  BGC B   1      22.991 -24.753 -14.0090  0.00  0.00     0.000 HD
ATOM     11   O  BGC B   1      22.556 -25.281 -17.2720  0.00  0.00     0.000 O
ATOM     13  HD  BGC B   1      22.930 -25.798 -16.6860  0.00  0.00     0.000 HD
ATOM     13   C  BGC B   1      21.426 -23.572 -19.3970  0.00  0.00     0.000 C
ATOM     14   O  BGC B   1      20.053 -23.894 -19.1950  0.00  0.00     0.000 O
ATOM     16  HD  BGC B   1      20.427 -24.410 -18.6090  0.00  0.00     0.000 HD
ENDROOT
BRANCH 1 16
ATOM     16  O4  BGC B   2      21.505 -20.000 -16.4160  0.00  0.00     0.000 O
BRANCH 16 20
ATOM     17  C1  BGC B   2      21.351 -16.016 -17.2120  0.00  0.00     0.000 C
ATOM     18  C2  BGC B   2      20.997 -16.892 -18.4050  0.00  0.00     0.000 C
ATOM     19  C3  BGC B   2      20.733 -18.310 -17.9040  0.00  0.00     0.000 C
ATOM     20  C4  BGC B   2      21.908 -18.810 -17.0890  0.00  0.00     0.000 C
ATOM     21  C5  BGC B   2      22.348 -17.807 -16.0220  0.00  0.00     0.000 C
ATOM     22  O5  BGC B   2      22.570 -16.539 -16.6530  0.00  0.00     0.000 O
ATOM     23   O  BGC B   2      19.813 -16.393 -19.0500  0.00  0.00     0.000 O
ATOM     25  HD  BGC B   2      19.966 -17.054 -18.5120  0.00  0.00     0.000 HD
ATOM     25   O  BGC B   2      20.493 -19.176 -19.0070  0.00  0.00     0.000 O
ATOM     27  HD  BGC B   2      20.646 -19.837 -18.4680  0.00  0.00     0.000 HD
ATOM     27   C  BGC B   2      23.640 -18.210 -15.3240  0.00  0.00     0.000 C
ATOM     28   O  BGC B   2      24.722 -18.416 -16.2180  0.00  0.00     0.000 O
ATOM     30  HD  BGC B   2      24.875 -19.078 -15.6800  0.00  0.00     0.000 HD
BRANCH 17 30
ATOM     30  O4  BGC B   3      21.697 -14.744 -17.7270  0.00  0.00     0.000 O
BRANCH 30 34
ATOM     31  C1  BGC B   3      21.604 -10.772 -16.6570  0.00  0.00     0.000 C
ATOM     32  C2  BGC B   3      22.536 -11.636 -15.8090  0.00  0.00     0.000 C
ATOM     33  C3  BGC B   3      22.786 -12.948 -16.5330  0.00  0.00     0.000 C
ATOM     34  C4  BGC B   3      21.459 -13.634 -16.8560  0.00  0.00     0.000 C
ATOM     35  C5  BGC B   3      20.527 -12.672 -17.5730  0.00  0.00     0.000 C
ATOM     36  O5  BGC B   3      20.382 -11.480 -16.7940  0.00  0.00     0.000 O
ATOM     37   O  BGC B   3      23.785 -10.968 -15.6430  0.00  0.00     0.000 O
ATOM     39  HD  BGC B   3      24.011 -11.569 -15.0620  0.00  0.00     0.000 HD
ATOM     39   O  BGC B   3      23.589 -13.774 -15.7040  0.00  0.00     0.000 O
ATOM     41  HD  BGC B   3      23.815 -14.375 -15.1230  0.00  0.00     0.000 HD
ATOM     41   C  BGC B   3      19.142 -13.245 -17.8530  0.00  0.00     0.000 C
ATOM     42   O  BGC B   3      18.531 -13.648 -16.6500  0.00  0.00     0.000 O
ATOM     44  HD  BGC B   3      18.757 -14.249 -16.0700  0.00  0.00     0.000 HD
BRANCH 31 44
ATOM     44  O4  BGC B   4      21.316  -9.617 -15.9120  0.00  0.00     0.000 O
BRANCH 44 48
ATOM     45  C1  BGC B   4      19.338  -6.041 -16.2340  0.00  0.00     0.000 C
ATOM     46  C2  BGC B   4      18.436  -7.257 -16.0790  0.00  0.00     0.000 C
ATOM     47  C3  BGC B   4      19.249  -8.427 -15.5830  0.00  0.00     0.000 C
ATOM     48  C4  BGC B   4      20.454  -8.664 -16.4990  0.00  0.00     0.000 C
ATOM     49  C5  BGC B   4      21.252  -7.368 -16.6860  0.00  0.00     0.000 C
ATOM     50  O5  BGC B   4      20.385  -6.328 -17.1630  0.00  0.00     0.000 O
ATOM     51   O  BGC B   4      17.389  -6.977 -15.1310  0.00  0.00     0.000 O
ATOM     53  HD  BGC B   4      17.907  -7.453 -14.6260  0.00  0.00     0.000 HD
ATOM     53   O  BGC B   4      18.417  -9.596 -15.5670  0.00  0.00     0.000 O
ATOM     55  HD  BGC B   4      18.935 -10.071 -15.0620  0.00  0.00     0.000 HD
ATOM     55   C  BGC B   4      22.401  -7.474 -17.6720  0.00  0.00     0.000 C
ATOM     56   O  BGC B   4      21.869  -7.949 -18.9100  0.00  0.00     0.000 O
ATOM     58  HD  BGC B   4      22.388  -8.425 -18.4050  0.00  0.00     0.000 HD
BRANCH 45 58
ATOM     58  O4  BGC B   5      18.567  -5.070 -16.9400  0.00  0.00     0.000 O
BRANCH 58 62
ATOM     59  C1  BGC B   5      17.452  -1.087 -16.7260  0.00  0.00     0.000 C
ATOM     60  C2  BGC B   5      18.784  -1.354 -17.3970  0.00  0.00     0.000 C
ATOM     61  C3  BGC B   5      18.899  -2.814 -17.7920  0.00  0.00     0.000 C
ATOM     62  C4  BGC B   5      18.654  -3.691 -16.5740  0.00  0.00     0.000 C
ATOM     63  C5  BGC B   5      17.329  -3.316 -15.8950  0.00  0.00     0.000 C
ATOM     64  O5  BGC B   5      17.351  -1.930 -15.5740  0.00  0.00     0.000 O
ATOM     65   O  BGC B   5      18.196  -3.812 -13.7740  0.00  0.00     0.000 O
ATOM     67  HD  BGC B   5      18.824  -4.267 -13.3890  0.00  0.00     0.000 HD
ATOM     67   O  BGC B   5      18.196  -3.812 -13.7740  0.00  0.00     0.000 O
ATOM     69  HD  BGC B   5      18.824  -4.267 -13.3890  0.00  0.00     0.000 HD
ENDBRANCH 58 62
ENDBRANCH 45 58
ENDBRANCH 44 48
ENDBRANCH 31 44
ENDBRANCH 30 34
ENDBRANCH 17 30
ENDBRANCH 16 20
ENDBRANCH 1 16
TORSDOF 8
ENDMDL
MODEL 50
REMARK VINA RESULT:      -7.5      6.112     12.106
ROOT
ATOM      1  C1  BGC B   1      21.475  -6.629 -16.5550  0.00  0.00     0.000 C
ATOM      2  C2  BGC B   1      21.630  -5.307 -17.3060  0.00  0.00     0.000 C
ATOM      3  C3  BGC B   1      22.020  -4.203 -16.3430  0.00  0.00     0.000 C
ATOM      4  C4  BGC B   1      21.059  -4.153 -15.1620  0.00  0.00     0.000 C
ATOM      5  C5  BGC B   1      21.024  -5.528 -14.5110  0.00  0.00     0.000 C
ATOM      6  O5  BGC B   1      20.542  -6.459 -15.4970  0.00  0.00     0.000 O
ATOM      7   O  BGC B   1      22.654  -5.448 -18.3050  0.00  0.00     0.000 O
ATOM      9  HD  BGC B   1      23.089  -4.737 -18.5380  0.00  0.00     0.000 HD
ATOM      9   O  BGC B   1      22.027  -2.957 -17.0470  0.00  0.00     0.000 O
ATOM     11  HD  BGC B   1      22.462  -2.246 -17.2800  0.00  0.00     0.000 HD
ATOM     11   O  BGC B   1      21.502  -3.191 -14.2310  0.00  0.00     0.000 O
ATOM     13  HD  BGC B   1      21.937  -2.479 -14.4640  0.00  0.00     0.000 HD
ATOM     13   C  BGC B   1      20.139  -5.628 -13.2770  0.00  0.00     0.000 C
ATOM     14   O  BGC B   1      18.801  -5.216 -13.5340  0.00  0.00     0.000 O
ATOM     16  HD  BGC B   1      19.236  -4.504 -13.7680  0.00  0.00     0.000 HD
ENDROOT
BRANCH 1 16
ATOM     16  O4  BGC B   2      20.848  -7.532 -17.4630  0.00  0.00     0.000 O
BRANCH 16 20
ATOM     17  C1  BGC B   2      19.697 -11.425 -17.7090  0.00  0.00     0.000 C
ATOM     18  C2  BGC B   2      18.646 -10.514 -17.0910  0.00  0.00     0.000 C
ATOM     19  C3  BGC B   2      19.028  -9.065 -17.3830  0.00  0.00     0.000 C
ATOM     20  C4  BGC B   2      20.444  -8.787 -16.9210  0.00  0.00     0.000 C
ATOM     21  C5  BGC B   2      21.436  -9.841 -17.4140  0.00  0.00     0.000 C
ATOM     22  O5  BGC B   2      20.944 -11.136 -17.0490  0.00  0.00     0.000 O
ATOM     23   O  BGC B   2      17.358 -10.786 -17.6660  0.00  0.00     0.000 O
ATOM     25  HD  BGC B   2      17.943 -10.159 -17.7830  0.00  0.00     0.000 HD
ATOM     25   O  BGC B   2      18.116  -8.185 -16.7370  0.00  0.00     0.000 O
ATOM     27  HD  BGC B   2      18.702  -7.557 -16.8540  0.00  0.00     0.000 HD
ATOM     27   C  BGC B   2      22.823  -9.682 -16.8040  0.00  0.00     0.000 C
ATOM     28   O  BGC B   2      22.819  -9.700 -15.3860  0.00  0.00     0.000 O
ATOM     30  HD  BGC B   2      23.405  -9.072 -15.5030  0.00  0.00     0.000 HD
BRANCH 17 30
ATOM     30  O4  BGC B   3      19.372 -12.747 -17.3220  0.00  0.00     0.000 O
BRANCH 30 34
ATOM     31  C1  BGC B   3      19.653 -16.606 -18.7190  0.00  0.00     0.000 C
ATOM     32  C2  BGC B   3      20.996 -15.909 -18.5060  0.00  0.00     0.000 C
ATOM     33  C3  BGC B   3      20.781 -14.684 -17.6350  0.00  0.00     0.000 C
ATOM     34  C4  BGC B   3      19.724 -13.773 -18.2560  0.00  0.00     0.000 C
ATOM     35  C5  BGC B   3      18.466 -14.562 -18.5730  0.00  0.00     0.000 C
ATOM     36  O5  BGC B   3      18.804 -15.688 -19.3900  0.00  0.00     0.000 O
ATOM     37   O  BGC B   3      21.889 -16.792 -17.8310  0.00  0.00     0.000 O
ATOM     39  HD  BGC B   3      22.531 -16.229 -17.9770  0.00  0.00     0.000 HD
ATOM     39   O  BGC B   3      22.019 -14.001 -17.5060  0.00  0.00     0.000 O
ATOM     41  HD  BGC B   3      22.661 -13.438 -17.6530  0.00  0.00     0.000 HD
ATOM     41   C  BGC B   3      17.387 -13.750 -19.2820  0.00  0.00     0.000 C
ATOM     42   O  BGC B   3      17.893 -13.213 -20.4810  0.00  0.00     0.000 O
ATOM     44  HD  BGC B   3      18.535 -12.650 -20.6280  0.00  0.00     0.000 HD
BRANCH 31 44
ATOM     44  O4  BGC B   4      19.874 -17.670 -19.6090  0.00  0.00     0.000 O
BRANCH 44 48
ATOM     45  C1  BGC B   4      18.225 -21.260 -20.7030  0.00  0.00     0.000 C
ATOM     46  C2  BGC B   4      17.572 -20.039 -21.3350  0.00  0.00     0.000 C
ATOM     47  C3  BGC B   4      18.482 -18.846 -21.1820  0.00  0.00     0.000 C
ATOM     48  C4  BGC B   4      18.863 -18.652 -19.7110  0.00  0.00     0.000 C
ATOM     49  C5  BGC B   4      19.418 -19.954 -19.1220  0.00  0.00     0.000 C
ATOM     50  O5  BGC B   4      18.473 -21.016 -19.3180  0.00  0.00     0.000 O
ATOM     51   O  BGC B   4      17.336 -20.275 -22.7360  0.00  0.00     0.000 O
ATOM     53  HD  BGC B   4      18.040 -19.775 -22.7980  0.00  0.00     0.000 HD
ATOM     53   O  BGC B   4      17.799 -17.679 -21.6630  0.00  0.00     0.000 O
ATOM     55  HD  BGC B   4      18.503 -17.179 -21.7250  0.00  0.00     0.000 HD
ATOM     55   C  BGC B   4      19.716 -19.894 -17.6350  0.00  0.00     0.000 C
ATOM     56   O  BGC B   4      18.522 -19.479 -16.9680  0.00  0.00     0.000 O
ATOM     58  HD  BGC B   4      19.226 -18.979 -17.0300  0.00  0.00     0.000 HD
BRANCH 45 58
ATOM     58  O4  BGC B   5      17.214 -22.266 -20.6570  0.00  0.00     0.000 O
BRANCH 58 62
ATOM     59  C1  BGC B   5      16.990 -26.398 -20.5170  0.00  0.00     0.000 C
ATOM     60  C2  BGC B   5      16.734 -25.688 -19.2030  0.00  0.00     0.000 C
ATOM     61  C3  BGC B   5      16.429 -24.222 -19.4400  0.00  0.00     0.000 C
ATOM     62  C4  BGC B   5      17.551 -23.594 -20.2510  0.00  0.00     0.000 C
ATOM     63  C5  BGC B   5      17.814 -24.405 -21.5290  0.00  0.00     0.000 C
ATOM     64  O5  BGC B   5      18.090 -25.755 -21.1680  0.00  0.00     0.000 O
ATOM     65   O  BGC B   5      20.107 -23.925 -21.4430  0.00  0.00     0.000 O
ATOM     67  HD  BGC B   5      20.667 -23.356 -21.1080  0.00  0.00     0.000 HD
ATOM     67   O  BGC B   5      20.107 -23.925 -21.4430  0.00  0.00     0.000 O
ATOM     69  HD  BGC B   5      20.667 -23.356 -21.1080  0.00  0.00     0.000 HD
ENDBRANCH 58 62
ENDBRANCH 45 58
ENDBRANCH 44 48
ENDBRANCH 31 44
ENDBRANCH 30 34
ENDBRANCH 17 30
ENDBRANCH 16 20
ENDBRANCH 1 16
TORSDOF 8
ENDMDL
MODEL 51
REMARK VINA RESULT:      -7.5      2.430     14.686
ROOT
ATOM      1  C1  BGC B   1      20.011  -9.682 -17.1420  0.00  0.00     0.000 C
ATOM      2  C2  BGC B   1      19.516 -10.287 -18.4550  0.00  0.00     0.000 C
ATOM      3  C3  BGC B   1      19.639 -11.798 -18.4110  0.00  0.00     0.000 C
ATOM      4  C4  BGC B   1      21.050 -12.213 -18.0130  0.00  0.00     0.000 C
ATOM      5  C5  BGC B   1      21.391 -11.548 -16.6870  0.00  0.00     0.000 C
ATOM      6  O5  BGC B   1      21.338 -10.124 -16.8940  0.00  0.00     0.000 O
ATOM      7   O  BGC B   1      18.137  -9.930 -18.6500  0.00  0.00     0.000 O
ATOM      9  HD  BGC B   1      17.645 -10.467 -19.1170  0.00  0.00     0.000 HD
ATOM      9   O  BGC B   1      19.296 -12.327 -19.6960  0.00  0.00     0.000 O
ATOM     11  HD  BGC B   1      18.803 -12.864 -20.1630  0.00  0.00     0.000 HD
ATOM     11   O  BGC B   1      21.110 -13.616 -17.8770  0.00  0.00     0.000 O
ATOM     13  HD  BGC B   1      20.617 -14.153 -18.3440  0.00  0.00     0.000 HD
ATOM     13   C  BGC B   1      22.761 -11.905 -16.1280  0.00  0.00     0.000 C
ATOM     14   O  BGC B   1      23.811 -11.638 -17.0520  0.00  0.00     0.000 O
ATOM     16  HD  BGC B   1      23.318 -12.175 -17.5190  0.00  0.00     0.000 HD
ENDROOT
BRANCH 1 16
ATOM     16  O4  BGC B   2      20.123  -8.278 -17.3670  0.00  0.00     0.000 O
BRANCH 16 20
ATOM     17  C1  BGC B   2      19.687  -4.690 -15.5040  0.00  0.00     0.000 C
ATOM     18  C2  BGC B   2      20.802  -5.548 -14.9250  0.00  0.00     0.000 C
ATOM     19  C3  BGC B   2      21.108  -6.674 -15.9090  0.00  0.00     0.000 C
ATOM     20  C4  BGC B   2      19.845  -7.439 -16.2490  0.00  0.00     0.000 C
ATOM     21  C5  BGC B   2      18.693  -6.515 -16.6440  0.00  0.00     0.000 C
ATOM     22  O5  BGC B   2      18.524  -5.531 -15.6160  0.00  0.00     0.000 O
ATOM     23   O  BGC B   2      21.986  -4.757 -14.7330  0.00  0.00     0.000 O
ATOM     25  HD  BGC B   2      21.746  -5.336 -15.3300  0.00  0.00     0.000 HD
ATOM     25   O  BGC B   2      22.081  -7.552 -15.3550  0.00  0.00     0.000 O
ATOM     27  HD  BGC B   2      21.841  -8.131 -15.9520  0.00  0.00     0.000 HD
ATOM     27   C  BGC B   2      17.369  -7.251 -16.8040  0.00  0.00     0.000 C
ATOM     28   O  BGC B   2      16.985  -7.976 -15.6470  0.00  0.00     0.000 O
ATOM     30  HD  BGC B   2      16.745  -8.555 -16.2450  0.00  0.00     0.000 HD
BRANCH 17 30
ATOM     30  O4  BGC B   3      19.356  -3.730 -14.5180  0.00  0.00     0.000 O
BRANCH 30 34
ATOM     31  C1  BGC B   3      18.298   0.233 -14.1980  0.00  0.00     0.000 C
ATOM     32  C2  BGC B   3      17.297  -0.631 -14.9640  0.00  0.00     0.000 C
ATOM     33  C3  BGC B   3      17.585  -2.093 -14.6720  0.00  0.00     0.000 C
ATOM     34  C4  BGC B   3      19.040  -2.422 -15.0050  0.00  0.00     0.000 C
ATOM     35  C5  BGC B   3      19.974  -1.436 -14.3240  0.00  0.00     0.000 C
ATOM     36  O5  BGC B   3      19.593  -0.101 -14.6730  0.00  0.00     0.000 O
ATOM     37   O  BGC B   3      15.975  -0.335 -14.5200  0.00  0.00     0.000 O
ATOM     39  HD  BGC B   3      15.666  -0.815 -15.1710  0.00  0.00     0.000 HD
ATOM     39   O  BGC B   3      16.702  -2.890 -15.4470  0.00  0.00     0.000 O
ATOM     41  HD  BGC B   3      16.393  -3.370 -16.0980  0.00  0.00     0.000 HD
ATOM     41   C  BGC B   3      21.444  -1.633 -14.6750  0.00  0.00     0.000 C
ATOM     42   O  BGC B   3      21.629  -1.535 -16.0670  0.00  0.00     0.000 O
ATOM     44  HD  BGC B   3      21.320  -2.016 -16.7180  0.00  0.00     0.000 HD
BRANCH 31 44
ATOM     44  O4  BGC B   4      18.067   1.567 -14.5720  0.00  0.00     0.000 O
BRANCH 44 48
ATOM     45  C1  BGC B   4      18.711   5.342 -13.1090  0.00  0.00     0.000 C
ATOM     46  C2  BGC B   4      19.811   4.814 -14.0200  0.00  0.00     0.000 C
ATOM     47  C3  BGC B   4      19.297   3.624 -14.7920  0.00  0.00     0.000 C
ATOM     48  C4  BGC B   4      18.730   2.572 -13.8330  0.00  0.00     0.000 C
ATOM     49  C5  BGC B   4      17.705   3.205 -12.8840  0.00  0.00     0.000 C
ATOM     50  O5  BGC B   4      18.300   4.318 -12.2010  0.00  0.00     0.000 O
ATOM     51   O  BGC B   4      20.216   5.838 -14.9480  0.00  0.00     0.000 O
ATOM     53  HD  BGC B   4      19.722   5.361 -15.4760  0.00  0.00     0.000 HD
ATOM     53   O  BGC B   4      20.380   3.059 -15.5450  0.00  0.00     0.000 O
ATOM     55  HD  BGC B   4      19.886   2.583 -16.0730  0.00  0.00     0.000 HD
ATOM     55   C  BGC B   4      17.173   2.264 -11.8180  0.00  0.00     0.000 C
ATOM     56   O  BGC B   4      18.292   1.732 -11.1080  0.00  0.00     0.000 O
ATOM     58  HD  BGC B   4      17.799   1.255 -11.6360  0.00  0.00     0.000 HD
BRANCH 45 58
ATOM     58  O4  BGC B   5      19.340   6.282 -12.2390  0.00  0.00     0.000 O
BRANCH 58 62
ATOM     59  C1  BGC B   5      18.598   9.769 -10.1340  0.00  0.00     0.000 C
ATOM     60  C2  BGC B   5      17.987   8.513  -9.5460  0.00  0.00     0.000 C
ATOM     61  C3  BGC B   5      18.646   7.278 -10.1300  0.00  0.00     0.000 C
ATOM     62  C4  BGC B   5      18.568   7.329 -11.6470  0.00  0.00     0.000 C
ATOM     63  C5  BGC B   5      19.128   8.659 -12.1730  0.00  0.00     0.000 C
ATOM     64  O5  BGC B   5      18.426   9.731 -11.5540  0.00  0.00     0.000 O
ATOM     65   O  BGC B   5      17.590   8.686 -13.9420  0.00  0.00     0.000 O
ATOM     67  HD  BGC B   5      17.080   8.160 -14.4040  0.00  0.00     0.000 HD
ATOM     67   O  BGC B   5      17.590   8.686 -13.9420  0.00  0.00     0.000 O
ATOM     69  HD  BGC B   5      17.080   8.160 -14.4040  0.00  0.00     0.000 HD
ENDBRANCH 58 62
ENDBRANCH 45 58
ENDBRANCH 44 48
ENDBRANCH 31 44
ENDBRANCH 30 34
ENDBRANCH 17 30
ENDBRANCH 16 20
ENDBRANCH 1 16
TORSDOF 8
ENDMDL
MODEL 52
REMARK VINA RESULT:      -7.5      3.241     16.110
ROOT
ATOM      1  C1  BGC B   1      19.006 -16.685 -20.6680  0.00  0.00     0.000 C
ATOM      2  C2  BGC B   1      18.898 -17.832 -19.6650  0.00  0.00     0.000 C
ATOM      3  C3  BGC B   1      19.259 -19.145 -20.3350  0.00  0.00     0.000 C
ATOM      4  C4  BGC B   1      18.450 -19.339 -21.6110  0.00  0.00     0.000 C
ATOM      5  C5  BGC B   1      18.671 -18.130 -22.5100  0.00  0.00     0.000 C
ATOM      6  O5  BGC B   1      18.194 -16.973 -21.7990  0.00  0.00     0.000 O
ATOM      7   O  BGC B   1      19.803 -17.593 -18.5740  0.00  0.00     0.000 O
ATOM      9  HD  BGC B   1      20.112 -18.282 -18.1500  0.00  0.00     0.000 HD
ATOM      9   O  BGC B   1      19.022 -20.214 -19.4140  0.00  0.00     0.000 O
ATOM     11  HD  BGC B   1      19.331 -20.902 -18.9890  0.00  0.00     0.000 HD
ATOM     11   O  BGC B   1      18.878 -20.511 -22.2690  0.00  0.00     0.000 O
ATOM     13  HD  BGC B   1      19.188 -21.200 -21.8450  0.00  0.00     0.000 HD
ATOM     13   C  BGC B   1      17.963 -18.197 -23.8550  0.00  0.00     0.000 C
ATOM     14   O  BGC B   1      16.561 -18.411 -23.7200  0.00  0.00     0.000 O
ATOM     16  HD  BGC B   1      16.871 -19.100 -23.2960  0.00  0.00     0.000 HD
ENDROOT
BRANCH 1 16
ATOM     16  O4  BGC B   2      18.393 -15.556 -20.0490  0.00  0.00     0.000 O
BRANCH 16 20
ATOM     17  C1  BGC B   2      18.603 -11.498 -19.8720  0.00  0.00     0.000 C
ATOM     18  C2  BGC B   2      18.102 -12.027 -21.2080  0.00  0.00     0.000 C
ATOM     19  C3  BGC B   2      17.721 -13.496 -21.0360  0.00  0.00     0.000 C
ATOM     20  C4  BGC B   2      18.879 -14.278 -20.4510  0.00  0.00     0.000 C
ATOM     21  C5  BGC B   2      19.472 -13.603 -19.2140  0.00  0.00     0.000 C
ATOM     22  O5  BGC B   2      19.789 -12.245 -19.5430  0.00  0.00     0.000 O
ATOM     23   O  BGC B   2      16.944 -11.288 -21.6290  0.00  0.00     0.000 O
ATOM     25  HD  BGC B   2      17.056 -12.070 -21.2740  0.00  0.00     0.000 HD
ATOM     25   O  BGC B   2      17.339 -14.047 -22.2910  0.00  0.00     0.000 O
ATOM     27  HD  BGC B   2      17.451 -14.829 -21.9370  0.00  0.00     0.000 HD
ATOM     27   C  BGC B   2      20.751 -14.273 -18.7270  0.00  0.00     0.000 C
ATOM     28   O  BGC B   2      21.759 -14.350 -19.7210  0.00  0.00     0.000 O
ATOM     30  HD  BGC B   2      21.871 -15.132 -19.3660  0.00  0.00     0.000 HD
BRANCH 17 30
ATOM     30  O4  BGC B   3      19.050 -10.175 -20.0970  0.00  0.00     0.000 O
BRANCH 30 34
ATOM     31  C1  BGC B   3      20.351  -6.946 -17.9040  0.00  0.00     0.000 C
ATOM     32  C2  BGC B   3      21.449  -7.938 -18.2870  0.00  0.00     0.000 C
ATOM     33  C3  BGC B   3      20.935  -8.836 -19.3980  0.00  0.00     0.000 C
ATOM     34  C4  BGC B   3      19.635  -9.515 -18.9700  0.00  0.00     0.000 C
ATOM     35  C5  BGC B   3      18.640  -8.484 -18.4670  0.00  0.00     0.000 C
ATOM     36  O5  BGC B   3      19.247  -7.702 -17.4330  0.00  0.00     0.000 O
ATOM     37   O  BGC B   3      22.586  -7.226 -18.7710  0.00  0.00     0.000 O
ATOM     39  HD  BGC B   3      23.034  -7.967 -18.7610  0.00  0.00     0.000 HD
ATOM     39   O  BGC B   3      21.932  -9.802 -19.6930  0.00  0.00     0.000 O
ATOM     41  HD  BGC B   3      22.380 -10.544 -19.6830  0.00  0.00     0.000 HD
ATOM     41   C  BGC B   3      17.344  -9.083 -17.9320  0.00  0.00     0.000 C
ATOM     42   O  BGC B   3      17.621  -9.984 -16.8870  0.00  0.00     0.000 O
ATOM     44  HD  BGC B   3      18.069 -10.725 -16.8770  0.00  0.00     0.000 HD
BRANCH 31 44
ATOM     44  O4  BGC B   4      20.824  -6.205 -16.8100  0.00  0.00     0.000 O
BRANCH 44 48
ATOM     45  C1  BGC B   4      19.605  -3.096 -14.4310  0.00  0.00     0.000 C
ATOM     46  C2  BGC B   4      19.267  -4.480 -13.8950  0.00  0.00     0.000 C
ATOM     47  C3  BGC B   4      20.087  -5.516 -14.6240  0.00  0.00     0.000 C
ATOM     48  C4  BGC B   4      19.897  -5.376 -16.1370  0.00  0.00     0.000 C
ATOM     49  C5  BGC B   4      20.158  -3.931 -16.5820  0.00  0.00     0.000 C
ATOM     50  O5  BGC B   4      19.325  -3.036 -15.8310  0.00  0.00     0.000 O
ATOM     51   O  BGC B   4      19.564  -4.550 -12.4880  0.00  0.00     0.000 O
ATOM     53  HD  BGC B   4      20.254  -4.974 -12.7950  0.00  0.00     0.000 HD
ATOM     53   O  BGC B   4      19.664  -6.821 -14.2020  0.00  0.00     0.000 O
ATOM     55  HD  BGC B   4      20.354  -7.245 -14.5090  0.00  0.00     0.000 HD
ATOM     55   C  BGC B   4      19.881  -3.667 -18.0510  0.00  0.00     0.000 C
ATOM     56   O  BGC B   4      18.537  -4.068 -18.3200  0.00  0.00     0.000 O
ATOM     58  HD  BGC B   4      19.227  -4.493 -18.6270  0.00  0.00     0.000 HD
BRANCH 45 58
ATOM     58  O4  BGC B   5      18.621  -2.215 -13.8890  0.00  0.00     0.000 O
BRANCH 58 62
ATOM     59  C1  BGC B   5      18.042   1.752 -12.8520  0.00  0.00     0.000 C
ATOM     60  C2  BGC B   5      17.946   1.446 -14.3330  0.00  0.00     0.000 C
ATOM     61  C3  BGC B   5      17.756  -0.042 -14.5580  0.00  0.00     0.000 C
ATOM     62  C4  BGC B   5      18.868  -0.808 -13.8600  0.00  0.00     0.000 C
ATOM     63  C5  BGC B   5      18.965  -0.394 -12.3840  0.00  0.00     0.000 C
ATOM     64  O5  BGC B   5      19.145   1.016 -12.3120  0.00  0.00     0.000 O
ATOM     65   O  BGC B   5      21.292  -0.681 -12.3860  0.00  0.00     0.000 O
ATOM     67  HD  BGC B   5      21.923  -1.089 -12.8160  0.00  0.00     0.000 HD
ATOM     67   O  BGC B   5      21.292  -0.681 -12.3860  0.00  0.00     0.000 O
ATOM     69  HD  BGC B   5      21.923  -1.089 -12.8160  0.00  0.00     0.000 HD
ENDBRANCH 58 62
ENDBRANCH 45 58
ENDBRANCH 44 48
ENDBRANCH 31 44
ENDBRANCH 30 34
ENDBRANCH 17 30
ENDBRANCH 16 20
ENDBRANCH 1 16
TORSDOF 8
ENDMDL
MODEL 53
REMARK VINA RESULT:      -7.4      7.297     20.828
ROOT
ATOM      1  C1  BGC B   1      18.086 -24.224 -23.3180  0.00  0.00     0.000 C
ATOM      2  C2  BGC B   1      17.451 -25.366 -22.5260  0.00  0.00     0.000 C
ATOM      3  C3  BGC B   1      17.931 -26.701 -23.0610  0.00  0.00     0.000 C
ATOM      4  C4  BGC B   1      17.727 -26.782 -24.5690  0.00  0.00     0.000 C
ATOM      5  C5  BGC B   1      18.425 -25.594 -25.2150  0.00  0.00     0.000 C
ATOM      6  O5  BGC B   1      17.807 -24.400 -24.7000  0.00  0.00     0.000 O
ATOM      7   O  BGC B   1      17.826 -25.248 -21.1440  0.00  0.00     0.000 O
ATOM      9  HD  BGC B   1      17.856 -25.973 -20.6720  0.00  0.00     0.000 HD
ATOM      9   O  BGC B   1      17.222 -27.749 -22.3940  0.00  0.00     0.000 O
ATOM     11  HD  BGC B   1      17.253 -28.474 -21.9220  0.00  0.00     0.000 HD
ATOM     11   O  BGC B   1      18.276 -27.987 -25.0570  0.00  0.00     0.000 O
ATOM     13  HD  BGC B   1      18.307 -28.712 -24.5850  0.00  0.00     0.000 HD
ATOM     13   C  BGC B   1      18.352 -25.560 -26.7350  0.00  0.00     0.000 C
ATOM     14   O  BGC B   1      17.012 -25.614 -27.2150  0.00  0.00     0.000 O
ATOM     16  HD  BGC B   1      17.043 -26.339 -26.7430  0.00  0.00     0.000 HD
ENDROOT
BRANCH 1 16
ATOM     16  O4  BGC B   2      17.382 -23.041 -22.9450  0.00  0.00     0.000 O
BRANCH 16 20
ATOM     17  C1  BGC B   2      17.935 -19.079 -22.2150  0.00  0.00     0.000 C
ATOM     18  C2  BGC B   2      18.264 -19.489 -23.6420  0.00  0.00     0.000 C
ATOM     19  C3  BGC B   2      17.682 -20.878 -23.8940  0.00  0.00     0.000 C
ATOM     20  C4  BGC B   2      18.162 -21.853 -22.8390  0.00  0.00     0.000 C
ATOM     21  C5  BGC B   2      17.982 -21.312 -21.4200  0.00  0.00     0.000 C
ATOM     22  O5  BGC B   2      18.593 -20.018 -21.3440  0.00  0.00     0.000 O
ATOM     23   O  BGC B   2      17.682 -18.559 -24.5700  0.00  0.00     0.000 O
ATOM     25  HD  BGC B   2      17.466 -19.356 -24.3100  0.00  0.00     0.000 HD
ATOM     25   O  BGC B   2      18.055 -21.332 -25.1900  0.00  0.00     0.000 O
ATOM     27  HD  BGC B   2      17.840 -22.129 -24.9290  0.00  0.00     0.000 HD
ATOM     27   C  BGC B   2      18.630 -22.194 -20.3600  0.00  0.00     0.000 C
ATOM     28   O  BGC B   2      20.013 -22.416 -20.5830  0.00  0.00     0.000 O
ATOM     30  HD  BGC B   2      19.797 -23.213 -20.3220  0.00  0.00     0.000 HD
BRANCH 17 30
ATOM     30  O4  BGC B   3      18.584 -17.843 -21.9840  0.00  0.00     0.000 O
BRANCH 30 34
ATOM     31  C1  BGC B   3      18.129 -14.521 -19.6000  0.00  0.00     0.000 C
ATOM     32  C2  BGC B   3      17.761 -15.841 -18.9250  0.00  0.00     0.000 C
ATOM     33  C3  BGC B   3      18.338 -16.986 -19.7380  0.00  0.00     0.000 C
ATOM     34  C4  BGC B   3      17.861 -16.899 -21.1870  0.00  0.00     0.000 C
ATOM     35  C5  BGC B   3      18.129 -15.514 -21.7500  0.00  0.00     0.000 C
ATOM     36  O5  BGC B   3      17.543 -14.530 -20.8920  0.00  0.00     0.000 O
ATOM     37   O  BGC B   3      18.331 -15.883 -17.6180  0.00  0.00     0.000 O
ATOM     39  HD  BGC B   3      17.871 -16.599 -17.4580  0.00  0.00     0.000 HD
ATOM     39   O  BGC B   3      17.926 -18.210 -19.1470  0.00  0.00     0.000 O
ATOM     41  HD  BGC B   3      17.466 -18.926 -18.9870  0.00  0.00     0.000 HD
ATOM     41   C  BGC B   3      17.601 -15.308 -23.1650  0.00  0.00     0.000 C
ATOM     42   O  BGC B   3      16.214 -15.546 -23.2050  0.00  0.00     0.000 O
ATOM     44  HD  BGC B   3      15.754 -16.261 -23.0450  0.00  0.00     0.000 HD
BRANCH 31 44
ATOM     44  O4  BGC B   4      17.495 -13.495 -18.8800  0.00  0.00     0.000 O
BRANCH 44 48
ATOM     45  C1  BGC B   4      18.486  -9.877 -17.2270  0.00  0.00     0.000 C
ATOM     46  C2  BGC B   4      17.810  -9.792 -18.5890  0.00  0.00     0.000 C
ATOM     47  C3  BGC B   4      17.152 -11.112 -18.9060  0.00  0.00     0.000 C
ATOM     48  C4  BGC B   4      18.166 -12.255 -18.7890  0.00  0.00     0.000 C
ATOM     49  C5  BGC B   4      18.874 -12.209 -17.4290  0.00  0.00     0.000 C
ATOM     50  O5  BGC B   4      19.466 -10.916 -17.2350  0.00  0.00     0.000 O
ATOM     51   O  BGC B   4      16.809  -8.757 -18.5790  0.00  0.00     0.000 O
ATOM     53  HD  BGC B   4      16.292  -9.449 -18.5050  0.00  0.00     0.000 HD
ATOM     53   O  BGC B   4      16.634 -11.060 -20.2430  0.00  0.00     0.000 O
ATOM     55  HD  BGC B   4      16.117 -11.752 -20.1690  0.00  0.00     0.000 HD
ATOM     55   C  BGC B   4      19.982 -13.233 -17.2640  0.00  0.00     0.000 C
ATOM     56   O  BGC B   4      20.901 -13.060 -18.3450  0.00  0.00     0.000 O
ATOM     58  HD  BGC B   4      20.384 -13.751 -18.2700  0.00  0.00     0.000 HD
BRANCH 45 58
ATOM     58  O4  BGC B   5      19.290  -8.703 -17.1160  0.00  0.00     0.000 O
BRANCH 58 62
ATOM     59  C1  BGC B   5      20.029  -5.596 -14.4800  0.00  0.00     0.000 C
ATOM     60  C2  BGC B   5      20.916  -6.814 -14.3150  0.00  0.00     0.000 C
ATOM     61  C3  BGC B   5      20.855  -7.689 -15.5520  0.00  0.00     0.000 C
ATOM     62  C4  BGC B   5      19.407  -8.039 -15.8550  0.00  0.00     0.000 C
ATOM     63  C5  BGC B   5      18.547  -6.769 -15.9310  0.00  0.00     0.000 C
ATOM     64  O5  BGC B   5      18.690  -6.044 -14.7140  0.00  0.00     0.000 O
ATOM     65   O  BGC B   5      16.693  -7.889 -15.0340  0.00  0.00     0.000 O
ATOM     67  HD  BGC B   5      16.370  -8.685 -14.9270  0.00  0.00     0.000 HD
ATOM     67   O  BGC B   5      16.693  -7.889 -15.0340  0.00  0.00     0.000 O
ATOM     69  HD  BGC B   5      16.370  -8.685 -14.9270  0.00  0.00     0.000 HD
ENDBRANCH 58 62
ENDBRANCH 45 58
ENDBRANCH 44 48
ENDBRANCH 31 44
ENDBRANCH 30 34
ENDBRANCH 17 30
ENDBRANCH 16 20
ENDBRANCH 1 16
TORSDOF 8
ENDMDL
MODEL 54
REMARK VINA RESULT:      -7.4      5.874     11.855
ROOT
ATOM      1  C1  BGC B   1      20.551  -5.952 -17.6860  0.00  0.00     0.000 C
ATOM      2  C2  BGC B   1      20.928  -4.730 -18.5220  0.00  0.00     0.000 C
ATOM      3  C3  BGC B   1      21.135  -3.527 -17.6230  0.00  0.00     0.000 C
ATOM      4  C4  BGC B   1      19.934  -3.325 -16.7080  0.00  0.00     0.000 C
ATOM      5  C5  BGC B   1      19.694  -4.614 -15.9350  0.00  0.00     0.000 C
ATOM      6  O5  BGC B   1      19.410  -5.646 -16.8970  0.00  0.00     0.000 O
ATOM      7   O  BGC B   1      22.146  -5.003 -19.2360  0.00  0.00     0.000 O
ATOM      9  HD  BGC B   1      22.652  -4.330 -19.4390  0.00  0.00     0.000 HD
ATOM      9   O  BGC B   1      21.355  -2.372 -18.4390  0.00  0.00     0.000 O
ATOM     11  HD  BGC B   1      21.861  -1.700 -18.6420  0.00  0.00     0.000 HD
ATOM     11   O  BGC B   1      20.194  -2.267 -15.8110  0.00  0.00     0.000 O
ATOM     13  HD  BGC B   1      20.700  -1.595 -16.0150  0.00  0.00     0.000 HD
ATOM     13   C  BGC B   1      18.548  -4.555 -14.9350  0.00  0.00     0.000 C
ATOM     14   O  BGC B   1      17.322  -4.155 -15.5390  0.00  0.00     0.000 O
ATOM     16  HD  BGC B   1      17.828  -3.482 -15.7420  0.00  0.00     0.000 HD
ENDROOT
BRANCH 1 16
ATOM     16  O4  BGC B   2      20.110  -6.946 -18.6090  0.00  0.00     0.000 O
BRANCH 16 20
ATOM     17  C1  BGC B   2      18.917 -10.833 -18.6650  0.00  0.00     0.000 C
ATOM     18  C2  BGC B   2      17.777  -9.847 -18.4580  0.00  0.00     0.000 C
ATOM     19  C3  BGC B   2      18.275  -8.448 -18.8160  0.00  0.00     0.000 C
ATOM     20  C4  BGC B   2      19.534  -8.119 -18.0410  0.00  0.00     0.000 C
ATOM     21  C5  BGC B   2      20.579  -9.231 -18.1270  0.00  0.00     0.000 C
ATOM     22  O5  BGC B   2      19.963 -10.467 -17.7450  0.00  0.00     0.000 O
ATOM     23   O  BGC B   2      16.670 -10.185 -19.3090  0.00  0.00     0.000 O
ATOM     25  HD  BGC B   2      17.289  -9.580 -19.3470  0.00  0.00     0.000 HD
ATOM     25   O  BGC B   2      17.261  -7.489 -18.5420  0.00  0.00     0.000 O
ATOM     27  HD  BGC B   2      17.880  -6.884 -18.5790  0.00  0.00     0.000 HD
ATOM     27   C  BGC B   2      21.769  -9.001 -17.2030  0.00  0.00     0.000 C
ATOM     28   O  BGC B   2      21.401  -8.837 -15.8430  0.00  0.00     0.000 O
ATOM     30  HD  BGC B   2      22.019  -8.232 -15.8810  0.00  0.00     0.000 HD
BRANCH 17 30
ATOM     30  O4  BGC B   3      18.455 -12.093 -18.2170  0.00  0.00     0.000 O
BRANCH 30 34
ATOM     31  C1  BGC B   3      18.916 -16.098 -19.0370  0.00  0.00     0.000 C
ATOM     32  C2  BGC B   3      20.165 -15.417 -18.4810  0.00  0.00     0.000 C
ATOM     33  C3  BGC B   3      19.765 -14.091 -17.8580  0.00  0.00     0.000 C
ATOM     34  C4  BGC B   3      19.017 -13.233 -18.8760  0.00  0.00     0.000 C
ATOM     35  C5  BGC B   3      17.875 -14.021 -19.4940  0.00  0.00     0.000 C
ATOM     36  O5  BGC B   3      18.380 -15.245 -20.0370  0.00  0.00     0.000 O
ATOM     37   O  BGC B   3      20.742 -16.236 -17.4670  0.00  0.00     0.000 O
ATOM     39  HD  BGC B   3      21.432 -15.713 -17.4590  0.00  0.00     0.000 HD
ATOM     39   O  BGC B   3      20.941 -13.430 -17.4130  0.00  0.00     0.000 O
ATOM     41  HD  BGC B   3      21.630 -12.906 -17.4050  0.00  0.00     0.000 HD
ATOM     41   C  BGC B   3      17.127 -13.271 -20.5910  0.00  0.00     0.000 C
ATOM     42   O  BGC B   3      18.017 -12.895 -21.6160  0.00  0.00     0.000 O
ATOM     44  HD  BGC B   3      18.707 -12.371 -21.6080  0.00  0.00     0.000 HD
BRANCH 31 44
ATOM     44  O4  BGC B   4      19.337 -17.267 -19.6930  0.00  0.00     0.000 O
BRANCH 44 48
ATOM     45  C1  BGC B   4      18.089 -21.100 -20.4390  0.00  0.00     0.000 C
ATOM     46  C2  BGC B   4      17.452 -20.038 -21.3240  0.00  0.00     0.000 C
ATOM     47  C3  BGC B   4      18.254 -18.763 -21.2370  0.00  0.00     0.000 C
ATOM     48  C4  BGC B   4      18.415 -18.334 -19.7750  0.00  0.00     0.000 C
ATOM     49  C5  BGC B   4      18.965 -19.490 -18.9320  0.00  0.00     0.000 C
ATOM     50  O5  BGC B   4      18.126 -20.645 -19.0850  0.00  0.00     0.000 O
ATOM     51   O  BGC B   4      17.428 -20.486 -22.6920  0.00  0.00     0.000 O
ATOM     53  HD  BGC B   4      18.100 -19.942 -22.7380  0.00  0.00     0.000 HD
ATOM     53   O  BGC B   4      17.571 -17.736 -21.9700  0.00  0.00     0.000 O
ATOM     55  HD  BGC B   4      18.243 -17.192 -22.0160  0.00  0.00     0.000 HD
ATOM     55   C  BGC B   4      19.050 -19.198 -17.4440  0.00  0.00     0.000 C
ATOM     56   O  BGC B   4      17.751 -18.795 -17.0050  0.00  0.00     0.000 O
ATOM     58  HD  BGC B   4      18.424 -18.252 -17.0510  0.00  0.00     0.000 HD
BRANCH 45 58
ATOM     58  O4  BGC B   5      17.146 -22.169 -20.3710  0.00  0.00     0.000 O
BRANCH 58 62
ATOM     59  C1  BGC B   5      17.052 -26.278 -20.8840  0.00  0.00     0.000 C
ATOM     60  C2  BGC B   5      17.159 -25.804 -19.4480  0.00  0.00     0.000 C
ATOM     61  C3  BGC B   5      16.771 -24.341 -19.3400  0.00  0.00     0.000 C
ATOM     62  C4  BGC B   5      17.610 -23.520 -20.3060  0.00  0.00     0.000 C
ATOM     63  C5  BGC B   5      17.521 -24.099 -21.7260  0.00  0.00     0.000 C
ATOM     64  O5  BGC B   5      17.913 -25.467 -21.6900  0.00  0.00     0.000 O
ATOM     65   O  BGC B   5      19.737 -23.487 -22.1870  0.00  0.00     0.000 O
ATOM     67  HD  BGC B   5      20.357 -22.943 -21.9250  0.00  0.00     0.000 HD
ATOM     67   O  BGC B   5      19.737 -23.487 -22.1870  0.00  0.00     0.000 O
ATOM     69  HD  BGC B   5      20.357 -22.943 -21.9250  0.00  0.00     0.000 HD
ENDBRANCH 58 62
ENDBRANCH 45 58
ENDBRANCH 44 48
ENDBRANCH 31 44
ENDBRANCH 30 34
ENDBRANCH 17 30
ENDBRANCH 16 20
ENDBRANCH 1 16
TORSDOF 8
ENDMDL
MODEL 55
REMARK VINA RESULT:      -7.4      4.561     10.048
ROOT
ATOM      1  C1  BGC B   1      18.434  -4.738 -14.9820  0.00  0.00     0.000 C
ATOM      2  C2  BGC B   1      19.335  -4.101 -13.9250  0.00  0.00     0.000 C
ATOM      3  C3  BGC B   1      18.654  -2.887 -13.3230  0.00  0.00     0.000 C
ATOM      4  C4  BGC B   1      18.185  -1.934 -14.4150  0.00  0.00     0.000 C
ATOM      5  C5  BGC B   1      17.291  -2.705 -15.3750  0.00  0.00     0.000 C
ATOM      6  O5  BGC B   1      18.085  -3.759 -15.9510  0.00  0.00     0.000 O
ATOM      7   O  BGC B   1      19.597  -5.060 -12.8870  0.00  0.00     0.000 O
ATOM      9  HD  BGC B   1      19.764  -4.758 -12.0930  0.00  0.00     0.000 HD
ATOM      9   O  BGC B   1      19.569  -2.236 -12.4370  0.00  0.00     0.000 O
ATOM     11  HD  BGC B   1      19.737  -1.933 -11.6430  0.00  0.00     0.000 HD
ATOM     11   O  BGC B   1      17.464  -0.868 -13.8370  0.00  0.00     0.000 O
ATOM     13  HD  BGC B   1      17.631  -0.566 -13.0430  0.00  0.00     0.000 HD
ATOM     13   C  BGC B   1      16.699  -1.873 -16.5050  0.00  0.00     0.000 C
ATOM     14   O  BGC B   1      17.699  -1.197 -17.2610  0.00  0.00     0.000 O
ATOM     16  HD  BGC B   1      17.866  -0.895 -16.4670  0.00  0.00     0.000 HD
ENDROOT
BRANCH 1 16
ATOM     16  O4  BGC B   2      19.244  -5.680 -15.6800  0.00  0.00     0.000 O
BRANCH 16 20
ATOM     17  C1  BGC B   2      18.969  -8.946 -18.0880  0.00  0.00     0.000 C
ATOM     18  C2  BGC B   2      18.674  -7.635 -18.8000  0.00  0.00     0.000 C
ATOM     19  C3  BGC B   2      19.157  -6.485 -17.9200  0.00  0.00     0.000 C
ATOM     20  C4  BGC B   2      18.555  -6.591 -16.5330  0.00  0.00     0.000 C
ATOM     21  C5  BGC B   2      18.712  -7.989 -15.9350  0.00  0.00     0.000 C
ATOM     22  O5  BGC B   2      18.200  -8.946 -16.8700  0.00  0.00     0.000 O
ATOM     23   O  BGC B   2      19.370  -7.589 -20.0570  0.00  0.00     0.000 O
ATOM     25  HD  BGC B   2      19.510  -7.225 -19.2840  0.00  0.00     0.000 HD
ATOM     25   O  BGC B   2      18.810  -5.240 -18.5150  0.00  0.00     0.000 O
ATOM     27  HD  BGC B   2      18.950  -4.877 -17.7410  0.00  0.00     0.000 HD
ATOM     27   C  BGC B   2      17.949  -8.164 -14.6270  0.00  0.00     0.000 C
ATOM     28   O  BGC B   2      16.565  -7.879 -14.7410  0.00  0.00     0.000 O
ATOM     30  HD  BGC B   2      16.705  -7.516 -13.9680  0.00  0.00     0.000 HD
BRANCH 17 30
ATOM     30  O4  BGC B   3      18.408  -9.977 -18.8780  0.00  0.00     0.000 O
BRANCH 30 34
ATOM     31  C1  BGC B   3      19.108 -13.922 -19.8140  0.00  0.00     0.000 C
ATOM     32  C2  BGC B   3      19.261 -13.585 -18.3320  0.00  0.00     0.000 C
ATOM     33  C3  BGC B   3      18.603 -12.243 -18.0620  0.00  0.00     0.000 C
ATOM     34  C4  BGC B   3      19.187 -11.174 -18.9850  0.00  0.00     0.000 C
ATOM     35  C5  BGC B   3      19.133 -11.635 -20.4300  0.00  0.00     0.000 C
ATOM     36  O5  BGC B   3      19.777 -12.908 -20.5480  0.00  0.00     0.000 O
ATOM     37   O  BGC B   3      18.601 -14.577 -17.5480  0.00  0.00     0.000 O
ATOM     39  HD  BGC B   3      18.956 -14.229 -16.8390  0.00  0.00     0.000 HD
ATOM     39   O  BGC B   3      18.817 -11.902 -16.7010  0.00  0.00     0.000 O
ATOM     41  HD  BGC B   3      19.172 -11.554 -15.9920  0.00  0.00     0.000 HD
ATOM     41   C  BGC B   3      19.780 -10.667 -21.4140  0.00  0.00     0.000 C
ATOM     42   O  BGC B   3      21.126 -10.446 -21.0650  0.00  0.00     0.000 O
ATOM     44  HD  BGC B   3      21.481 -10.099 -20.3560  0.00  0.00     0.000 HD
BRANCH 31 44
ATOM     44  O4  BGC B   4      19.814 -15.114 -20.0440  0.00  0.00     0.000 O
BRANCH 44 48
ATOM     45  C1  BGC B   4      19.441 -18.669 -22.0510  0.00  0.00     0.000 C
ATOM     46  C2  BGC B   4      19.867 -17.491 -22.9150  0.00  0.00     0.000 C
ATOM     47  C3  BGC B   4      20.346 -16.366 -22.0310  0.00  0.00     0.000 C
ATOM     48  C4  BGC B   4      19.277 -16.015 -20.9910  0.00  0.00     0.000 C
ATOM     49  C5  BGC B   4      18.828 -17.272 -20.2340  0.00  0.00     0.000 C
ATOM     50  O5  BGC B   4      18.391 -18.269 -21.1680  0.00  0.00     0.000 O
ATOM     51   O  BGC B   4      20.938 -17.886 -23.7940  0.00  0.00     0.000 O
ATOM     53  HD  BGC B   4      21.399 -17.457 -23.2000  0.00  0.00     0.000 HD
ATOM     53   O  BGC B   4      20.620 -15.220 -22.8490  0.00  0.00     0.000 O
ATOM     55  HD  BGC B   4      21.081 -14.790 -22.2550  0.00  0.00     0.000 HD
ATOM     55   C  BGC B   4      17.686 -17.043 -19.2610  0.00  0.00     0.000 C
ATOM     56   O  BGC B   4      16.607 -16.451 -19.9870  0.00  0.00     0.000 O
ATOM     58  HD  BGC B   4      17.069 -16.022 -19.3930  0.00  0.00     0.000 HD
BRANCH 45 58
ATOM     58  O4  BGC B   5      18.770 -19.575 -22.9270  0.00  0.00     0.000 O
BRANCH 58 62
ATOM     59  C1  BGC B   5      18.529 -23.592 -23.9000  0.00  0.00     0.000 C
ATOM     60  C2  BGC B   5      17.918 -23.208 -22.5680  0.00  0.00     0.000 C
ATOM     61  C3  BGC B   5      17.686 -21.711 -22.5000  0.00  0.00     0.000 C
ATOM     62  C4  BGC B   5      18.987 -20.982 -22.7950  0.00  0.00     0.000 C
ATOM     63  C5  BGC B   5      19.594 -21.473 -24.1170  0.00  0.00     0.000 C
ATOM     64  O5  BGC B   5      19.764 -22.884 -24.0500  0.00  0.00     0.000 O
ATOM     65   O  BGC B   5      21.773 -21.182 -23.3030  0.00  0.00     0.000 O
ATOM     67  HD  BGC B   5      22.217 -20.751 -22.6980  0.00  0.00     0.000 HD
ATOM     67   O  BGC B   5      21.773 -21.182 -23.3030  0.00  0.00     0.000 O
ATOM     69  HD  BGC B   5      22.217 -20.751 -22.6980  0.00  0.00     0.000 HD
ENDBRANCH 58 62
ENDBRANCH 45 58
ENDBRANCH 44 48
ENDBRANCH 31 44
ENDBRANCH 30 34
ENDBRANCH 17 30
ENDBRANCH 16 20
ENDBRANCH 1 16
TORSDOF 8
ENDMDL
MODEL 56
REMARK VINA RESULT:      -7.4      2.429     15.249
ROOT
ATOM      1  C1  BGC B   1      19.726  -6.125 -16.6990  0.00  0.00     0.000 C
ATOM      2  C2  BGC B   1      20.857  -7.104 -17.0100  0.00  0.00     0.000 C
ATOM      3  C3  BGC B   1      20.294  -8.374 -17.6180  0.00  0.00     0.000 C
ATOM      4  C4  BGC B   1      19.183  -8.944 -16.7450  0.00  0.00     0.000 C
ATOM      5  C5  BGC B   1      18.131  -7.864 -16.5380  0.00  0.00     0.000 C
ATOM      6  O5  BGC B   1      18.770  -6.764 -15.8640  0.00  0.00     0.000 O
ATOM      7   O  BGC B   1      21.766  -6.496 -17.9430  0.00  0.00     0.000 O
ATOM      9  HD  BGC B   1      22.214  -7.019 -18.4670  0.00  0.00     0.000 HD
ATOM      9   O  BGC B   1      21.354  -9.322 -17.7750  0.00  0.00     0.000 O
ATOM     11  HD  BGC B   1      21.803  -9.845 -18.2990  0.00  0.00     0.000 HD
ATOM     11   O  BGC B   1      18.605 -10.062 -17.3820  0.00  0.00     0.000 O
ATOM     13  HD  BGC B   1      19.053 -10.585 -17.9060  0.00  0.00     0.000 HD
ATOM     13   C  BGC B   1      16.923  -8.296 -15.7200  0.00  0.00     0.000 C
ATOM     14   O  BGC B   1      17.289  -8.820 -14.4470  0.00  0.00     0.000 O
ATOM     16  HD  BGC B   1      17.738  -9.344 -14.9720  0.00  0.00     0.000 HD
ENDROOT
BRANCH 1 16
ATOM     16  O4  BGC B   2      20.298  -5.099 -15.8910  0.00  0.00     0.000 O
BRANCH 16 20
ATOM     17  C1  BGC B   2      19.432  -1.475 -14.2630  0.00  0.00     0.000 C
ATOM     18  C2  BGC B   2      18.785  -2.643 -13.5340  0.00  0.00     0.000 C
ATOM     19  C3  BGC B   2      19.460  -3.934 -13.9920  0.00  0.00     0.000 C
ATOM     20  C4  BGC B   2      19.422  -4.044 -15.5020  0.00  0.00     0.000 C
ATOM     21  C5  BGC B   2      19.907  -2.768 -16.1920  0.00  0.00     0.000 C
ATOM     22  O5  BGC B   2      19.169  -1.658 -15.6670  0.00  0.00     0.000 O
ATOM     23   O  BGC B   2      18.961  -2.498 -12.1150  0.00  0.00     0.000 O
ATOM     25  HD  BGC B   2      19.346  -2.987 -12.7170  0.00  0.00     0.000 HD
ATOM     25   O  BGC B   2      18.813  -5.054 -13.4000  0.00  0.00     0.000 O
ATOM     27  HD  BGC B   2      19.198  -5.544 -14.0020  0.00  0.00     0.000 HD
ATOM     27   C  BGC B   2      19.698  -2.792 -17.7010  0.00  0.00     0.000 C
ATOM     28   O  BGC B   2      18.350  -3.021 -18.0790  0.00  0.00     0.000 O
ATOM     30  HD  BGC B   2      18.735  -3.511 -18.6810  0.00  0.00     0.000 HD
BRANCH 17 30
ATOM     30  O4  BGC B   3      18.708  -0.314 -13.9000  0.00  0.00     0.000 O
BRANCH 30 34
ATOM     31  C1  BGC B   3      19.291   3.721 -13.3510  0.00  0.00     0.000 C
ATOM     32  C2  BGC B   3      19.728   3.197 -14.7190  0.00  0.00     0.000 C
ATOM     33  C3  BGC B   3      19.109   1.829 -14.9410  0.00  0.00     0.000 C
ATOM     34  C4  BGC B   3      19.475   0.890 -13.7930  0.00  0.00     0.000 C
ATOM     35  C5  BGC B   3      19.145   1.533 -12.4580  0.00  0.00     0.000 C
ATOM     36  O5  BGC B   3      19.779   2.813 -12.3760  0.00  0.00     0.000 O
ATOM     37   O  BGC B   3      19.259   4.077 -15.7380  0.00  0.00     0.000 O
ATOM     39  HD  BGC B   3      19.740   3.642 -16.3120  0.00  0.00     0.000 HD
ATOM     39   O  BGC B   3      19.582   1.317 -16.1780  0.00  0.00     0.000 O
ATOM     41  HD  BGC B   3      20.064   0.882 -16.7520  0.00  0.00     0.000 HD
ATOM     41   C  BGC B   3      19.562   0.702 -11.2490  0.00  0.00     0.000 C
ATOM     42   O  BGC B   3      20.946   0.445 -11.2920  0.00  0.00     0.000 O
ATOM     44  HD  BGC B   3      21.427   0.010 -11.8660  0.00  0.00     0.000 HD
BRANCH 31 44
ATOM     44  O4  BGC B   4      19.963   4.936 -13.1380  0.00  0.00     0.000 O
BRANCH 44 48
ATOM     45  C1  BGC B   4      20.197   7.906 -10.3210  0.00  0.00     0.000 C
ATOM     46  C2  BGC B   4      21.185   6.764 -10.1280  0.00  0.00     0.000 C
ATOM     47  C3  BGC B   4      21.279   5.958 -11.4000  0.00  0.00     0.000 C
ATOM     48  C4  BGC B   4      19.885   5.503 -11.8460  0.00  0.00     0.000 C
ATOM     49  C5  BGC B   4      18.925   6.697 -11.9180  0.00  0.00     0.000 C
ATOM     50  O5  BGC B   4      18.911   7.384 -10.6580  0.00  0.00     0.000 O
ATOM     51   O  BGC B   4      22.487   7.287  -9.8050  0.00  0.00     0.000 O
ATOM     53  HD  BGC B   4      22.620   7.094 -10.6390  0.00  0.00     0.000 HD
ATOM     53   O  BGC B   4      22.109   4.813 -11.1630  0.00  0.00     0.000 O
ATOM     55  HD  BGC B   4      22.242   4.620 -11.9960  0.00  0.00     0.000 HD
ATOM     55   C  BGC B   4      17.488   6.328 -12.2390  0.00  0.00     0.000 C
ATOM     56   O  BGC B   4      17.060   5.364 -11.2750  0.00  0.00     0.000 O
ATOM     58  HD  BGC B   4      17.193   5.171 -12.1090  0.00  0.00     0.000 HD
BRANCH 45 58
ATOM     58  O4  BGC B   5      19.971   8.452  -9.0220  0.00  0.00     0.000 O
BRANCH 58 62
ATOM     59  C1  BGC B   5      18.479  11.817  -7.1260  0.00  0.00     0.000 C
ATOM     60  C2  BGC B   5      17.619  11.266  -8.2450  0.00  0.00     0.000 C
ATOM     61  C3  BGC B   5      18.025   9.843  -8.5780  0.00  0.00     0.000 C
ATOM     62  C4  BGC B   5      19.512   9.799  -8.8880  0.00  0.00     0.000 C
ATOM     63  C5  BGC B   5      20.321  10.443  -7.7530  0.00  0.00     0.000 C
ATOM     64  O5  BGC B   5      19.847  11.769  -7.5450  0.00  0.00     0.000 O
ATOM     65   O  BGC B   5      21.917  11.263  -9.2630  0.00  0.00     0.000 O
ATOM     67  HD  BGC B   5      22.226  11.127 -10.0610  0.00  0.00     0.000 HD
ATOM     67   O  BGC B   5      21.917  11.263  -9.2630  0.00  0.00     0.000 O
ATOM     69  HD  BGC B   5      22.226  11.127 -10.0610  0.00  0.00     0.000 HD
ENDBRANCH 58 62
ENDBRANCH 45 58
ENDBRANCH 44 48
ENDBRANCH 31 44
ENDBRANCH 30 34
ENDBRANCH 17 30
ENDBRANCH 16 20
ENDBRANCH 1 16
TORSDOF 8
ENDMDL
MODEL 57
REMARK VINA RESULT:      -7.4     11.587     20.533
ROOT
ATOM      1  C1  BGC B   1      18.754 -14.774 -18.5010  0.00  0.00     0.000 C
ATOM      2  C2  BGC B   1      20.078 -14.133 -18.0900  0.00  0.00     0.000 C
ATOM      3  C3  BGC B   1      19.820 -12.892 -17.2570  0.00  0.00     0.000 C
ATOM      4  C4  BGC B   1      18.854 -11.955 -17.9700  0.00  0.00     0.000 C
ATOM      5  C5  BGC B   1      17.585 -12.729 -18.2980  0.00  0.00     0.000 C
ATOM      6  O5  BGC B   1      17.955 -13.811 -19.1730  0.00  0.00     0.000 O
ATOM      7   O  BGC B   1      20.839 -15.074 -17.3150  0.00  0.00     0.000 O
ATOM      9  HD  BGC B   1      21.399 -14.758 -16.7350  0.00  0.00     0.000 HD
ATOM      9   O  BGC B   1      21.067 -12.240 -17.0000  0.00  0.00     0.000 O
ATOM     11  HD  BGC B   1      21.627 -11.924 -16.4190  0.00  0.00     0.000 HD
ATOM     11   O  BGC B   1      18.547 -10.862 -17.1320  0.00  0.00     0.000 O
ATOM     13  HD  BGC B   1      19.107 -10.546 -16.5510  0.00  0.00     0.000 HD
ATOM     13   C  BGC B   1      16.495 -11.911 -18.9750  0.00  0.00     0.000 C
ATOM     14   O  BGC B   1      16.954 -11.271 -20.1610  0.00  0.00     0.000 O
ATOM     16  HD  BGC B   1      17.514 -10.955 -19.5810  0.00  0.00     0.000 HD
ENDROOT
BRANCH 1 16
ATOM     16  O4  BGC B   2      19.074 -15.748 -19.4920  0.00  0.00     0.000 O
BRANCH 16 20
ATOM     17  C1  BGC B   2      17.835 -19.327 -20.9740  0.00  0.00     0.000 C
ATOM     18  C2  BGC B   2      16.903 -18.171 -21.3080  0.00  0.00     0.000 C
ATOM     19  C3  BGC B   2      17.637 -16.861 -21.0300  0.00  0.00     0.000 C
ATOM     20  C4  BGC B   2      18.168 -16.843 -19.6120  0.00  0.00     0.000 C
ATOM     21  C5  BGC B   2      18.940 -18.116 -19.2620  0.00  0.00     0.000 C
ATOM     22  O5  BGC B   2      18.114 -19.247 -19.5640  0.00  0.00     0.000 O
ATOM     23   O  BGC B   2      16.536 -18.219 -22.6970  0.00  0.00     0.000 O
ATOM     25  HD  BGC B   2      17.096 -17.738 -22.2440  0.00  0.00     0.000 HD
ATOM     25   O  BGC B   2      16.760 -15.761 -21.2420  0.00  0.00     0.000 O
ATOM     27  HD  BGC B   2      17.320 -15.280 -20.7890  0.00  0.00     0.000 HD
ATOM     27   C  BGC B   2      19.317 -18.196 -17.7880  0.00  0.00     0.000 C
ATOM     28   O  BGC B   2      18.203 -18.094 -16.9160  0.00  0.00     0.000 O
ATOM     30  HD  BGC B   2      18.762 -17.613 -16.4630  0.00  0.00     0.000 HD
BRANCH 17 30
ATOM     30  O4  BGC B   3      17.085 -20.517 -21.1350  0.00  0.00     0.000 O
BRANCH 30 34
ATOM     31  C1  BGC B   3      17.666 -24.546 -21.7280  0.00  0.00     0.000 C
ATOM     32  C2  BGC B   3      18.021 -24.053 -20.3250  0.00  0.00     0.000 C
ATOM     33  C3  BGC B   3      17.400 -22.683 -20.1140  0.00  0.00     0.000 C
ATOM     34  C4  BGC B   3      17.847 -21.726 -21.2180  0.00  0.00     0.000 C
ATOM     35  C5  BGC B   3      17.596 -22.339 -22.5840  0.00  0.00     0.000 C
ATOM     36  O5  BGC B   3      18.223 -23.624 -22.6510  0.00  0.00     0.000 O
ATOM     37   O  BGC B   3      17.480 -24.948 -19.3560  0.00  0.00     0.000 O
ATOM     39  HD  BGC B   3      17.928 -24.530 -18.7440  0.00  0.00     0.000 HD
ATOM     39   O  BGC B   3      17.799 -22.200 -18.8400  0.00  0.00     0.000 O
ATOM     41  HD  BGC B   3      18.247 -21.782 -18.2280  0.00  0.00     0.000 HD
ATOM     41   C  BGC B   3      18.096 -21.489 -23.7470  0.00  0.00     0.000 C
ATOM     42   O  BGC B   3      19.477 -21.247 -23.6120  0.00  0.00     0.000 O
ATOM     44  HD  BGC B   3      19.925 -20.828 -23.0000  0.00  0.00     0.000 HD
BRANCH 31 44
ATOM     44  O4  BGC B   4      18.339 -25.763 -21.9230  0.00  0.00     0.000 O
BRANCH 44 48
ATOM     45  C1  BGC B   4      17.885 -29.370 -23.8180  0.00  0.00     0.000 C
ATOM     46  C2  BGC B   4      17.644 -28.152 -24.6980  0.00  0.00     0.000 C
ATOM     47  C3  BGC B   4      18.212 -26.925 -24.0270  0.00  0.00     0.000 C
ATOM     48  C4  BGC B   4      17.647 -26.786 -22.6100  0.00  0.00     0.000 C
ATOM     49  C5  BGC B   4      17.838 -28.088 -21.8220  0.00  0.00     0.000 C
ATOM     50  O5  BGC B   4      17.259 -29.182 -22.5480  0.00  0.00     0.000 O
ATOM     51   O  BGC B   4      18.289 -28.330 -25.9740  0.00  0.00     0.000 O
ATOM     53  HD  BGC B   4      18.861 -27.795 -25.6050  0.00  0.00     0.000 HD
ATOM     53   O  BGC B   4      17.863 -25.770 -24.8030  0.00  0.00     0.000 O
ATOM     55  HD  BGC B   4      18.435 -25.235 -24.4340  0.00  0.00     0.000 HD
ATOM     55   C  BGC B   4      17.206 -28.085 -20.4420  0.00  0.00     0.000 C
ATOM     56   O  BGC B   4      15.823 -27.761 -20.5980  0.00  0.00     0.000 O
ATOM     58  HD  BGC B   4      16.395 -27.225 -20.2290  0.00  0.00     0.000 HD
BRANCH 45 58
ATOM     58  O4  BGC B   5      17.107 -30.423 -24.3850  0.00  0.00     0.000 O
BRANCH 58 62
ATOM     59  C1  BGC B   5      17.193 -34.483 -25.1980  0.00  0.00     0.000 C
ATOM     60  C2  BGC B   5      17.357 -34.108 -23.7390  0.00  0.00     0.000 C
ATOM     61  C3  BGC B   5      16.902 -32.681 -23.5010  0.00  0.00     0.000 C
ATOM     62  C4  BGC B   5      17.641 -31.747 -24.4460  0.00  0.00     0.000 C
ATOM     63  C5  BGC B   5      17.502 -32.227 -25.8980  0.00  0.00     0.000 C
ATOM     64  O5  BGC B   5      17.964 -33.570 -25.9860  0.00  0.00     0.000 O
ATOM     65   O  BGC B   5      19.653 -31.463 -26.4300  0.00  0.00     0.000 O
ATOM     67  HD  BGC B   5      20.259 -30.905 -26.1610  0.00  0.00     0.000 HD
ATOM     67   O  BGC B   5      19.653 -31.463 -26.4300  0.00  0.00     0.000 O
ATOM     69  HD  BGC B   5      20.259 -30.905 -26.1610  0.00  0.00     0.000 HD
ENDBRANCH 58 62
ENDBRANCH 45 58
ENDBRANCH 44 48
ENDBRANCH 31 44
ENDBRANCH 30 34
ENDBRANCH 17 30
ENDBRANCH 16 20
ENDBRANCH 1 16
TORSDOF 8
ENDMDL
MODEL 58
REMARK VINA RESULT:      -7.4      7.141     20.498
ROOT
ATOM      1  C1  BGC B   1      18.129 -23.888 -22.2250  0.00  0.00     0.000 C
ATOM      2  C2  BGC B   1      18.938 -24.575 -23.3250  0.00  0.00     0.000 C
ATOM      3  C3  BGC B   1      18.286 -25.889 -23.7080  0.00  0.00     0.000 C
ATOM      4  C4  BGC B   1      18.035 -26.747 -22.4740  0.00  0.00     0.000 C
ATOM      5  C5  BGC B   1      17.210 -25.937 -21.4840  0.00  0.00     0.000 C
ATOM      6  O5  BGC B   1      17.984 -24.777 -21.1260  0.00  0.00     0.000 O
ATOM      7   O  BGC B   1      18.991 -23.719 -24.4780  0.00  0.00     0.000 O
ATOM      9  HD  BGC B   1      19.081 -24.093 -25.2530  0.00  0.00     0.000 HD
ATOM      9   O  BGC B   1      19.132 -26.571 -24.6390  0.00  0.00     0.000 O
ATOM     11  HD  BGC B   1      19.221 -26.945 -25.4150  0.00  0.00     0.000 HD
ATOM     11   O  BGC B   1      17.334 -27.914 -22.8430  0.00  0.00     0.000 O
ATOM     13  HD  BGC B   1      17.424 -28.289 -23.6180  0.00  0.00     0.000 HD
ATOM     13   C  BGC B   1      16.833 -26.679 -20.2100  0.00  0.00     0.000 C
ATOM     14   O  BGC B   1      17.970 -27.202 -19.5300  0.00  0.00     0.000 O
ATOM     16  HD  BGC B   1      18.060 -27.577 -20.3060  0.00  0.00     0.000 HD
ENDROOT
BRANCH 1 16
ATOM     16  O4  BGC B   2      18.944 -22.824 -21.7370  0.00  0.00     0.000 O
BRANCH 16 20
ATOM     17  C1  BGC B   2      18.707 -19.086 -20.1520  0.00  0.00     0.000 C
ATOM     18  C2  BGC B   2      17.881 -20.122 -19.4030  0.00  0.00     0.000 C
ATOM     19  C3  BGC B   2      18.327 -21.512 -19.8480  0.00  0.00     0.000 C
ATOM     20  C4  BGC B   2      18.259 -21.633 -21.3570  0.00  0.00     0.000 C
ATOM     21  C5  BGC B   2      18.943 -20.464 -22.0670  0.00  0.00     0.000 C
ATOM     22  O5  BGC B   2      18.405 -19.240 -21.5520  0.00  0.00     0.000 O
ATOM     23   O  BGC B   2      18.091 -19.991 -17.9870  0.00  0.00     0.000 O
ATOM     25  HD  BGC B   2      18.384 -20.545 -18.5850  0.00  0.00     0.000 HD
ATOM     25   O  BGC B   2      17.509 -22.503 -19.2370  0.00  0.00     0.000 O
ATOM     27  HD  BGC B   2      17.802 -23.056 -19.8350  0.00  0.00     0.000 HD
ATOM     27   C  BGC B   2      18.720 -20.472 -23.5740  0.00  0.00     0.000 C
ATOM     28   O  BGC B   2      17.349 -20.478 -23.9390  0.00  0.00     0.000 O
ATOM     30  HD  BGC B   2      17.642 -21.032 -24.5370  0.00  0.00     0.000 HD
BRANCH 17 30
ATOM     30  O4  BGC B   3      18.189 -17.817 -19.8000  0.00  0.00     0.000 O
BRANCH 30 34
ATOM     31  C1  BGC B   3      19.564 -14.021 -19.0100  0.00  0.00     0.000 C
ATOM     32  C2  BGC B   3      19.360 -14.326 -20.4940  0.00  0.00     0.000 C
ATOM     33  C3  BGC B   3      18.495 -15.567 -20.6250  0.00  0.00     0.000 C
ATOM     34  C4  BGC B   3      19.118 -16.730 -19.8540  0.00  0.00     0.000 C
ATOM     35  C5  BGC B   3      19.427 -16.312 -18.4270  0.00  0.00     0.000 C
ATOM     36  O5  BGC B   3      20.238 -15.133 -18.4410  0.00  0.00     0.000 O
ATOM     37   O  BGC B   3      18.682 -13.236 -21.1140  0.00  0.00     0.000 O
ATOM     39  HD  BGC B   3      18.834 -13.601 -21.8840  0.00  0.00     0.000 HD
ATOM     39   O  BGC B   3      18.375 -15.887 -22.0030  0.00  0.00     0.000 O
ATOM     41  HD  BGC B   3      18.526 -16.253 -22.7730  0.00  0.00     0.000 HD
ATOM     41   C  BGC B   3      20.137 -17.384 -17.6080  0.00  0.00     0.000 C
ATOM     42   O  BGC B   3      21.341 -17.757 -18.2350  0.00  0.00     0.000 O
ATOM     44  HD  BGC B   3      21.493 -18.123 -19.0050  0.00  0.00     0.000 HD
BRANCH 31 44
ATOM     44  O4  BGC B   4      20.449 -12.933 -18.9280  0.00  0.00     0.000 O
BRANCH 44 48
ATOM     45  C1  BGC B   4      21.482  -9.859 -16.4210  0.00  0.00     0.000 C
ATOM     46  C2  BGC B   4      21.943 -11.236 -15.9650  0.00  0.00     0.000 C
ATOM     47  C3  BGC B   4      21.861 -12.202 -17.1210  0.00  0.00     0.000 C
ATOM     48  C4  BGC B   4      20.454 -12.190 -17.7260  0.00  0.00     0.000 C
ATOM     49  C5  BGC B   4      20.025 -10.757 -18.0640  0.00  0.00     0.000 C
ATOM     50  O5  BGC B   4      20.136  -9.930 -16.8960  0.00  0.00     0.000 O
ATOM     51   O  BGC B   4      23.305 -11.171 -15.5010  0.00  0.00     0.000 O
ATOM     53  HD  BGC B   4      23.442 -11.521 -16.2810  0.00  0.00     0.000 HD
ATOM     53   O  BGC B   4      22.173 -13.519 -16.6450  0.00  0.00     0.000 O
ATOM     55  HD  BGC B   4      22.310 -13.869 -17.4260  0.00  0.00     0.000 HD
ATOM     55   C  BGC B   4      18.596 -10.631 -18.5620  0.00  0.00     0.000 C
ATOM     56   O  BGC B   4      17.740 -11.222 -17.5830  0.00  0.00     0.000 O
ATOM     58  HD  BGC B   4      17.877 -11.572 -18.3630  0.00  0.00     0.000 HD
BRANCH 45 58
ATOM     58  O4  BGC B   5      21.341  -9.080 -15.2330  0.00  0.00     0.000 O
BRANCH 58 62
ATOM     59  C1  BGC B   5      20.883  -5.023 -14.5430  0.00  0.00     0.000 C
ATOM     60  C2  BGC B   5      20.993  -5.426 -15.9990  0.00  0.00     0.000 C
ATOM     61  C3  BGC B   5      20.738  -6.913 -16.1610  0.00  0.00     0.000 C
ATOM     62  C4  BGC B   5      21.676  -7.690 -15.2510  0.00  0.00     0.000 C
ATOM     63  C5  BGC B   5      21.574  -7.180 -13.8060  0.00  0.00     0.000 C
ATOM     64  O5  BGC B   5      21.837  -5.781 -13.7920  0.00  0.00     0.000 O
ATOM     65   O  BGC B   5      23.849  -7.601 -13.4250  0.00  0.00     0.000 O
ATOM     67  HD  BGC B   5      24.509  -8.074 -13.7250  0.00  0.00     0.000 HD
ATOM     67   O  BGC B   5      23.849  -7.601 -13.4250  0.00  0.00     0.000 O
ATOM     69  HD  BGC B   5      24.509  -8.074 -13.7250  0.00  0.00     0.000 HD
ENDBRANCH 58 62
ENDBRANCH 45 58
ENDBRANCH 44 48
ENDBRANCH 31 44
ENDBRANCH 30 34
ENDBRANCH 17 30
ENDBRANCH 16 20
ENDBRANCH 1 16
TORSDOF 8
ENDMDL
MODEL 59
REMARK VINA RESULT:      -7.3     22.461     26.017
ROOT
ATOM      1  C1  BGC B   1      18.096 -17.265   4.1310  0.00  0.00     0.000 C
ATOM      2  C2  BGC B   1      19.453 -17.822   3.7010  0.00  0.00     0.000 C
ATOM      3  C3  BGC B   1      20.547 -17.280   4.6000  0.00  0.00     0.000 C
ATOM      4  C4  BGC B   1      20.479 -15.760   4.6770  0.00  0.00     0.000 C
ATOM      5  C5  BGC B   1      19.082 -15.362   5.1310  0.00  0.00     0.000 C
ATOM      6  O5  BGC B   1      18.154 -15.846   4.1420  0.00  0.00     0.000 O
ATOM      7   O  BGC B   1      19.428 -19.255   3.7960  0.00  0.00     0.000 O
ATOM      9  HD  BGC B   1      20.178 -19.662   3.9410  0.00  0.00     0.000 HD
ATOM      9   O  BGC B   1      21.815 -17.709   4.0950  0.00  0.00     0.000 O
ATOM     11  HD  BGC B   1      22.566 -18.116   4.2400  0.00  0.00     0.000 HD
ATOM     11   O  BGC B   1      21.437 -15.289   5.6000  0.00  0.00     0.000 O
ATOM     13  HD  BGC B   1      22.187 -15.696   5.7440  0.00  0.00     0.000 HD
ATOM     13   C  BGC B   1      18.868 -13.866   5.3040  0.00  0.00     0.000 C
ATOM     14   O  BGC B   1      19.187 -13.132   4.1250  0.00  0.00     0.000 O
ATOM     16  HD  BGC B   1      19.938 -13.539   4.2690  0.00  0.00     0.000 HD
ENDROOT
BRANCH 1 16
ATOM     16  O4  BGC B   2      17.182 -17.592   3.0860  0.00  0.00     0.000 O
BRANCH 16 20
ATOM     17  C1  BGC B   2      13.197 -17.923   2.3460  0.00  0.00     0.000 C
ATOM     18  C2  BGC B   2      13.705 -16.489   2.3280  0.00  0.00     0.000 C
ATOM     19  C3  BGC B   2      15.230 -16.516   2.2500  0.00  0.00     0.000 C
ATOM     20  C4  BGC B   2      15.803 -17.366   3.3650  0.00  0.00     0.000 C
ATOM     21  C5  BGC B   2      15.125 -18.734   3.4620  0.00  0.00     0.000 C
ATOM     22  O5  BGC B   2      13.708 -18.535   3.5450  0.00  0.00     0.000 O
ATOM     23   O  BGC B   2      13.187 -15.795   1.1810  0.00  0.00     0.000 O
ATOM     25  HD  BGC B   2      13.956 -16.147   1.3690  0.00  0.00     0.000 HD
ATOM     25   O  BGC B   2      15.742 -15.190   2.3280  0.00  0.00     0.000 O
ATOM     27  HD  BGC B   2      16.511 -15.542   2.5160  0.00  0.00     0.000 HD
ATOM     27   C  BGC B   2      15.556 -19.524   4.6910  0.00  0.00     0.000 C
ATOM     28   O  BGC B   2      15.342 -18.831   5.9090  0.00  0.00     0.000 O
ATOM     30  HD  BGC B   2      16.111 -19.182   6.0970  0.00  0.00     0.000 HD
BRANCH 17 30
ATOM     30  O4  BGC B   3      11.796 -17.858   2.5330  0.00  0.00     0.000 O
BRANCH 30 34
ATOM     31  C1  BGC B   3       8.789 -20.658   2.3120  0.00  0.00     0.000 C
ATOM     32  C2  BGC B   3       9.043 -20.109   3.7160  0.00  0.00     0.000 C
ATOM     33  C3  BGC B   3       9.863 -18.836   3.6040  0.00  0.00     0.000 C
ATOM     34  C4  BGC B   3      11.149 -19.102   2.8220  0.00  0.00     0.000 C
ATOM     35  C5  BGC B   3      10.833 -19.779   1.5000  0.00  0.00     0.000 C
ATOM     36  O5  BGC B   3      10.054 -20.955   1.7410  0.00  0.00     0.000 O
ATOM     37   O  BGC B   3       7.798 -19.791   4.3340  0.00  0.00     0.000 O
ATOM     39  HD  BGC B   3       8.220 -19.664   5.0800  0.00  0.00     0.000 HD
ATOM     39   O  BGC B   3      10.160 -18.375   4.9140  0.00  0.00     0.000 O
ATOM     41  HD  BGC B   3      10.582 -18.248   5.6590  0.00  0.00     0.000 HD
ATOM     41   C  BGC B   3      12.066 -20.166   0.6910  0.00  0.00     0.000 C
ATOM     42   O  BGC B   3      12.892 -21.021   1.4460  0.00  0.00     0.000 O
ATOM     44  HD  BGC B   3      13.314 -20.894   2.1910  0.00  0.00     0.000 HD
BRANCH 31 44
ATOM     44  O4  BGC B   4       8.120 -21.884   2.4610  0.00  0.00     0.000 O
BRANCH 44 48
ATOM     45  C1  BGC B   4       5.597 -24.351   0.3750  0.00  0.00     0.000 C
ATOM     46  C2  BGC B   4       7.076 -24.550   0.0750  0.00  0.00     0.000 C
ATOM     47  C3  BGC B   4       7.901 -23.894   1.1550  0.00  0.00     0.000 C
ATOM     48  C4  BGC B   4       7.495 -22.425   1.3150  0.00  0.00     0.000 C
ATOM     49  C5  BGC B   4       5.979 -22.304   1.5120  0.00  0.00     0.000 C
ATOM     50  O5  BGC B   4       5.296 -22.956   0.4300  0.00  0.00     0.000 O
ATOM     51   O  BGC B   4       7.386 -25.956   0.0360  0.00  0.00     0.000 O
ATOM     53  HD  BGC B   4       7.699 -25.769   0.8210  0.00  0.00     0.000 HD
ATOM     53   O  BGC B   4       9.287 -23.976   0.7910  0.00  0.00     0.000 O
ATOM     55  HD  BGC B   4       9.599 -23.788   1.5770  0.00  0.00     0.000 HD
ATOM     55   C  BGC B   4       5.465 -20.876   1.5640  0.00  0.00     0.000 C
ATOM     56   O  BGC B   4       5.898 -20.213   0.3750  0.00  0.00     0.000 O
ATOM     58  HD  BGC B   4       6.211 -20.026   1.1600  0.00  0.00     0.000 HD
BRANCH 45 58
ATOM     58  O4  BGC B   5       4.901 -24.764  -0.8010  0.00  0.00     0.000 O
BRANCH 58 62
ATOM     59  C1  BGC B   5       1.070 -25.089  -2.3390  0.00  0.00     0.000 C
ATOM     60  C2  BGC B   5       1.680 -23.704  -2.4030  0.00  0.00     0.000 C
ATOM     61  C3  BGC B   5       3.184 -23.775  -2.2140  0.00  0.00     0.000 C
ATOM     62  C4  BGC B   5       3.499 -24.510  -0.9210  0.00  0.00     0.000 C
ATOM     63  C5  BGC B   5       2.787 -25.871  -0.8850  0.00  0.00     0.000 C
ATOM     64  O5  BGC B   5       1.390 -25.664  -1.0690  0.00  0.00     0.000 O
ATOM     65   O  BGC B   5       2.492 -25.731   1.4370  0.00  0.00     0.000 O
ATOM     67  HD  BGC B   5       2.811 -25.334   2.1370  0.00  0.00     0.000 HD
ATOM     67   O  BGC B   5       2.492 -25.731   1.4370  0.00  0.00     0.000 O
ATOM     69  HD  BGC B   5       2.811 -25.334   2.1370  0.00  0.00     0.000 HD
ENDBRANCH 58 62
ENDBRANCH 45 58
ENDBRANCH 44 48
ENDBRANCH 31 44
ENDBRANCH 30 34
ENDBRANCH 17 30
ENDBRANCH 16 20
ENDBRANCH 1 16
TORSDOF 8
ENDMDL
MODEL 60
REMARK VINA RESULT:      -7.3      2.119      3.767
ROOT
ATOM      1  C1  BGC B   1      18.008   7.488 -11.1540  0.00  0.00     0.000 C
ATOM      2  C2  BGC B   1      18.815   8.731 -11.5260  0.00  0.00     0.000 C
ATOM      3  C3  BGC B   1      18.318   9.929 -10.7410  0.00  0.00     0.000 C
ATOM      4  C4  BGC B   1      16.809  10.083 -10.8900  0.00  0.00     0.000 C
ATOM      5  C5  BGC B   1      16.148   8.778 -10.4700  0.00  0.00     0.000 C
ATOM      6  O5  BGC B   1      16.626   7.749 -11.3560  0.00  0.00     0.000 O
ATOM      7   O  BGC B   1      20.201   8.505 -11.2180  0.00  0.00     0.000 O
ATOM      9  HD  BGC B   1      20.689   9.196 -11.0310  0.00  0.00     0.000 HD
ATOM      9   O  BGC B   1      18.997  11.100 -11.2040  0.00  0.00     0.000 O
ATOM     11  HD  BGC B   1      19.486  11.790 -11.0170  0.00  0.00     0.000 HD
ATOM     11   O  BGC B   1      16.357  11.137 -10.0680  0.00  0.00     0.000 O
ATOM     13  HD  BGC B   1      16.845  11.828  -9.8820  0.00  0.00     0.000 HD
ATOM     13   C  BGC B   1      14.627   8.789 -10.5170  0.00  0.00     0.000 C
ATOM     14   O  BGC B   1      14.127   9.158 -11.7980  0.00  0.00     0.000 O
ATOM     16  HD  BGC B   1      14.615   9.848 -11.6110  0.00  0.00     0.000 HD
ENDROOT
BRANCH 1 16
ATOM     16  O4  BGC B   2      18.343   6.492 -12.1190  0.00  0.00     0.000 O
BRANCH 16 20
ATOM     17  C1  BGC B   2      18.318   2.446 -12.5260  0.00  0.00     0.000 C
ATOM     18  C2  BGC B   2      17.198   2.979 -11.6440  0.00  0.00     0.000 C
ATOM     19  C3  BGC B   2      17.087   4.487 -11.8590  0.00  0.00     0.000 C
ATOM     20  C4  BGC B   2      18.428   5.154 -11.6360  0.00  0.00     0.000 C
ATOM     21  C5  BGC B   2      19.558   4.462 -12.3990  0.00  0.00     0.000 C
ATOM     22  O5  BGC B   2      19.538   3.066 -12.0780  0.00  0.00     0.000 O
ATOM     23   O  BGC B   2      15.951   2.360 -12.0000  0.00  0.00     0.000 O
ATOM     25  HD  BGC B   2      16.299   3.137 -12.1600  0.00  0.00     0.000 HD
ATOM     25   O  BGC B   2      16.112   5.031 -10.9770  0.00  0.00     0.000 O
ATOM     27  HD  BGC B   2      16.460   5.808 -11.1370  0.00  0.00     0.000 HD
ATOM     27   C  BGC B   2      20.937   5.001 -12.0380  0.00  0.00     0.000 C
ATOM     28   O  BGC B   2      21.223   4.928 -10.6510  0.00  0.00     0.000 O
ATOM     30  HD  BGC B   2      21.571   5.705 -10.8110  0.00  0.00     0.000 HD
BRANCH 17 30
ATOM     30  O4  BGC B   3      18.465   1.074 -12.2160  0.00  0.00     0.000 O
BRANCH 30 34
ATOM     31  C1  BGC B   3      19.797  -2.396 -13.9810  0.00  0.00     0.000 C
ATOM     32  C2  BGC B   3      20.904  -1.501 -13.4260  0.00  0.00     0.000 C
ATOM     33  C3  BGC B   3      20.289  -0.490 -12.4740  0.00  0.00     0.000 C
ATOM     34  C4  BGC B   3      19.180   0.292 -13.1780  0.00  0.00     0.000 C
ATOM     35  C5  BGC B   3      18.193  -0.661 -13.8290  0.00  0.00     0.000 C
ATOM     36  O5  BGC B   3      18.897  -1.561 -14.6910  0.00  0.00     0.000 O
ATOM     37   O  BGC B   3      21.839  -2.295 -12.6980  0.00  0.00     0.000 O
ATOM     39  HD  BGC B   3      22.360  -1.605 -12.6470  0.00  0.00     0.000 HD
ATOM     39   O  BGC B   3      21.311   0.385 -12.0240  0.00  0.00     0.000 O
ATOM     41  HD  BGC B   3      21.833   1.075 -11.9730  0.00  0.00     0.000 HD
ATOM     41   C  BGC B   3      17.100   0.034 -14.6340  0.00  0.00     0.000 C
ATOM     42   O  BGC B   3      17.674   0.838 -15.6370  0.00  0.00     0.000 O
ATOM     44  HD  BGC B   3      18.195   1.528 -15.5860  0.00  0.00     0.000 HD
BRANCH 31 44
ATOM     44  O4  BGC B   4      20.387  -3.246 -14.9300  0.00  0.00     0.000 O
BRANCH 44 48
ATOM     45  C1  BGC B   4      19.807  -6.864 -16.7690  0.00  0.00     0.000 C
ATOM     46  C2  BGC B   4      18.749  -5.814 -17.0790  0.00  0.00     0.000 C
ATOM     47  C3  BGC B   4      19.263  -4.451 -16.6850  0.00  0.00     0.000 C
ATOM     48  C4  BGC B   4      19.719  -4.456 -15.2230  0.00  0.00     0.000 C
ATOM     49  C5  BGC B   4      20.703  -5.605 -14.9700  0.00  0.00     0.000 C
ATOM     50  O5  BGC B   4      20.112  -6.848 -15.3740  0.00  0.00     0.000 O
ATOM     51   O  BGC B   4      18.451  -5.815 -18.4880  0.00  0.00     0.000 O
ATOM     53  HD  BGC B   4      18.959  -5.114 -18.4560  0.00  0.00     0.000 HD
ATOM     53   O  BGC B   4      18.210  -3.492 -16.8610  0.00  0.00     0.000 O
ATOM     55  HD  BGC B   4      18.718  -2.791 -16.8280  0.00  0.00     0.000 HD
ATOM     55   C  BGC B   4      21.123  -5.763 -13.5190  0.00  0.00     0.000 C
ATOM     56   O  BGC B   4      19.936  -5.903 -12.7350  0.00  0.00     0.000 O
ATOM     58  HD  BGC B   4      20.444  -5.202 -12.7030  0.00  0.00     0.000 HD
BRANCH 45 58
ATOM     58  O4  BGC B   5      19.160  -8.127 -16.9230  0.00  0.00     0.000 O
BRANCH 58 62
ATOM     59  C1  BGC B   5      19.766 -11.951 -18.3910  0.00  0.00     0.000 C
ATOM     60  C2  BGC B   5      20.603 -11.578 -17.1840  0.00  0.00     0.000 C
ATOM     61  C3  BGC B   5      20.023 -10.361 -16.4890  0.00  0.00     0.000 C
ATOM     62  C4  BGC B   5      19.876  -9.226 -17.4910  0.00  0.00     0.000 C
ATOM     63  C5  BGC B   5      19.088  -9.692 -18.7240  0.00  0.00     0.000 C
ATOM     64  O5  BGC B   5      19.736 -10.831 -19.2810  0.00  0.00     0.000 O
ATOM     65   O  BGC B   5      20.341  -8.301 -20.1350  0.00  0.00     0.000 O
ATOM     67  HD  BGC B   5      20.840  -7.593 -20.1180  0.00  0.00     0.000 HD
ATOM     67   O  BGC B   5      20.341  -8.301 -20.1350  0.00  0.00     0.000 O
ATOM     69  HD  BGC B   5      20.840  -7.593 -20.1180  0.00  0.00     0.000 HD
ENDBRANCH 58 62
ENDBRANCH 45 58
ENDBRANCH 44 48
ENDBRANCH 31 44
ENDBRANCH 30 34
ENDBRANCH 17 30
ENDBRANCH 16 20
ENDBRANCH 1 16
TORSDOF 8
ENDMDL
MODEL 61
REMARK VINA RESULT:      -7.3      4.035      7.454
ROOT
ATOM      1  C1  BGC B   1      21.086  -1.789 -15.3580  0.00  0.00     0.000 C
ATOM      2  C2  BGC B   1      20.581  -0.553 -16.1000  0.00  0.00     0.000 C
ATOM      3  C3  BGC B   1      21.561   0.592 -15.9310  0.00  0.00     0.000 C
ATOM      4  C4  BGC B   1      21.877   0.819 -14.4580  0.00  0.00     0.000 C
ATOM      5  C5  BGC B   1      22.380  -0.489 -13.8660  0.00  0.00     0.000 C
ATOM      6  O5  BGC B   1      21.321  -1.456 -13.9970  0.00  0.00     0.000 O
ATOM      7   O  BGC B   1      20.448  -0.860 -17.4970  0.00  0.00     0.000 O
ATOM      9  HD  BGC B   1      20.531  -0.209 -18.0630  0.00  0.00     0.000 HD
ATOM      9   O  BGC B   1      21.002   1.770 -16.5200  0.00  0.00     0.000 O
ATOM     11  HD  BGC B   1      21.085   2.421 -17.0850  0.00  0.00     0.000 HD
ATOM     11   O  BGC B   1      22.868   1.816 -14.3340  0.00  0.00     0.000 O
ATOM     13  HD  BGC B   1      22.951   2.467 -14.9000  0.00  0.00     0.000 HD
ATOM     13   C  BGC B   1      22.786  -0.413 -12.4010  0.00  0.00     0.000 C
ATOM     14   O  BGC B   1      21.740   0.086 -11.5740  0.00  0.00     0.000 O
ATOM     16  HD  BGC B   1      21.823   0.737 -12.1390  0.00  0.00     0.000 HD
ENDROOT
BRANCH 1 16
ATOM     16  O4  BGC B   2      19.997  -2.710 -15.3320  0.00  0.00     0.000 O
BRANCH 16 20
ATOM     17  C1  BGC B   2      19.433  -6.701 -15.8780  0.00  0.00     0.000 C
ATOM     18  C2  BGC B   2      19.415  -6.274 -14.4170  0.00  0.00     0.000 C
ATOM     19  C3  BGC B   2      19.267  -4.756 -14.3570  0.00  0.00     0.000 C
ATOM     20  C4  BGC B   2      20.342  -4.086 -15.1880  0.00  0.00     0.000 C
ATOM     21  C5  BGC B   2      20.448  -4.681 -16.5930  0.00  0.00     0.000 C
ATOM     22  O5  BGC B   2      20.598  -6.102 -16.4760  0.00  0.00     0.000 O
ATOM     23   O  BGC B   2      18.303  -6.882 -13.7390  0.00  0.00     0.000 O
ATOM     25  HD  BGC B   2      18.451  -6.087 -14.0490  0.00  0.00     0.000 HD
ATOM     25   O  BGC B   2      19.343  -4.315 -13.0060  0.00  0.00     0.000 O
ATOM     27  HD  BGC B   2      19.490  -3.520 -13.3160  0.00  0.00     0.000 HD
ATOM     27   C  BGC B   2      21.643  -4.151 -17.3740  0.00  0.00     0.000 C
ATOM     28   O  BGC B   2      22.881  -4.347 -16.7100  0.00  0.00     0.000 O
ATOM     30  HD  BGC B   2      23.029  -3.552 -17.0200  0.00  0.00     0.000 HD
BRANCH 17 30
ATOM     30  O4  BGC B   3      19.684  -8.093 -15.8950  0.00  0.00     0.000 O
BRANCH 30 34
ATOM     31  C1  BGC B   3      19.191 -11.289 -18.4380  0.00  0.00     0.000 C
ATOM     32  C2  BGC B   3      20.487 -10.507 -18.6460  0.00  0.00     0.000 C
ATOM     33  C3  BGC B   3      20.737  -9.636 -17.4270  0.00  0.00     0.000 C
ATOM     34  C4  BGC B   3      19.529  -8.738 -17.1630  0.00  0.00     0.000 C
ATOM     35  C5  BGC B   3      18.256  -9.565 -17.1110  0.00  0.00     0.000 C
ATOM     36  O5  BGC B   3      18.143 -10.341 -18.3080  0.00  0.00     0.000 O
ATOM     37   O  BGC B   3      21.576 -11.418 -18.7800  0.00  0.00     0.000 O
ATOM     39  HD  BGC B   3      22.082 -10.753 -19.0100  0.00  0.00     0.000 HD
ATOM     39   O  BGC B   3      21.900  -8.857 -17.6610  0.00  0.00     0.000 O
ATOM     41  HD  BGC B   3      22.405  -8.192 -17.8910  0.00  0.00     0.000 HD
ATOM     41   C  BGC B   3      16.987  -8.738 -16.9420  0.00  0.00     0.000 C
ATOM     42   O  BGC B   3      16.872  -7.805 -17.9910  0.00  0.00     0.000 O
ATOM     44  HD  BGC B   3      17.378  -7.141 -18.2210  0.00  0.00     0.000 HD
BRANCH 31 44
ATOM     44  O4  BGC B   4      18.941 -12.001 -19.6230  0.00  0.00     0.000 O
BRANCH 44 48
ATOM     45  C1  BGC B   4      17.882 -15.905 -20.2850  0.00  0.00     0.000 C
ATOM     46  C2  BGC B   4      16.928 -14.877 -20.8760  0.00  0.00     0.000 C
ATOM     47  C3  BGC B   4      17.605 -13.528 -20.9170  0.00  0.00     0.000 C
ATOM     48  C4  BGC B   4      18.133 -13.156 -19.5280  0.00  0.00     0.000 C
ATOM     49  C5  BGC B   4      19.001 -14.286 -18.9610  0.00  0.00     0.000 C
ATOM     50  O5  BGC B   4      18.259 -15.515 -18.9640  0.00  0.00     0.000 O
ATOM     51   O  BGC B   4      16.559 -15.258 -22.2150  0.00  0.00     0.000 O
ATOM     53  HD  BGC B   4      17.139 -14.644 -22.4030  0.00  0.00     0.000 HD
ATOM     53   O  BGC B   4      16.653 -12.547 -21.3530  0.00  0.00     0.000 O
ATOM     55  HD  BGC B   4      17.234 -11.932 -21.5400  0.00  0.00     0.000 HD
ATOM     55   C  BGC B   4      19.475 -14.058 -17.5370  0.00  0.00     0.000 C
ATOM     56   O  BGC B   4      18.323 -13.819 -16.7260  0.00  0.00     0.000 O
ATOM     58  HD  BGC B   4      18.904 -13.205 -16.9140  0.00  0.00     0.000 HD
BRANCH 45 58
ATOM     58  O4  BGC B   5      17.097 -17.072 -20.0420  0.00  0.00     0.000 O
BRANCH 58 62
ATOM     59  C1  BGC B   5      17.570 -21.155 -19.5400  0.00  0.00     0.000 C
ATOM     60  C2  BGC B   5      18.746 -20.306 -19.1010  0.00  0.00     0.000 C
ATOM     61  C3  BGC B   5      18.324 -18.858 -18.9350  0.00  0.00     0.000 C
ATOM     62  C4  BGC B   5      17.676 -18.367 -20.2200  0.00  0.00     0.000 C
ATOM     63  C5  BGC B   5      16.547 -19.314 -20.6520  0.00  0.00     0.000 C
ATOM     64  O5  BGC B   5      17.073 -20.631 -20.7760  0.00  0.00     0.000 O
ATOM     65   O  BGC B   5      17.003 -18.931 -22.9200  0.00  0.00     0.000 O
ATOM     67  HD  BGC B   5      17.381 -18.357 -23.4470  0.00  0.00     0.000 HD
ATOM     67   O  BGC B   5      17.003 -18.931 -22.9200  0.00  0.00     0.000 O
ATOM     69  HD  BGC B   5      17.381 -18.357 -23.4470  0.00  0.00     0.000 HD
ENDBRANCH 58 62
ENDBRANCH 45 58
ENDBRANCH 44 48
ENDBRANCH 31 44
ENDBRANCH 30 34
ENDBRANCH 17 30
ENDBRANCH 16 20
ENDBRANCH 1 16
TORSDOF 8
ENDMDL
MODEL 62
REMARK VINA RESULT:      -7.3     20.391     21.882
ROOT
ATOM      1  C1  BGC B   1      19.019   5.845   4.1690  0.00  0.00     0.000 C
ATOM      2  C2  BGC B   1      20.231   5.978   3.2490  0.00  0.00     0.000 C
ATOM      3  C3  BGC B   1      20.755   7.401   3.2800  0.00  0.00     0.000 C
ATOM      4  C4  BGC B   1      19.634   8.395   3.0030  0.00  0.00     0.000 C
ATOM      5  C5  BGC B   1      18.514   8.149   4.0030  0.00  0.00     0.000 C
ATOM      6  O5  BGC B   1      18.041   6.805   3.7970  0.00  0.00     0.000 O
ATOM      7   O  BGC B   1      21.264   5.084   3.6940  0.00  0.00     0.000 O
ATOM      9  HD  BGC B   1      22.085   5.299   3.5220  0.00  0.00     0.000 HD
ATOM      9   O  BGC B   1      21.802   7.530   2.3130  0.00  0.00     0.000 O
ATOM     11  HD  BGC B   1      22.623   7.745   2.1410  0.00  0.00     0.000 HD
ATOM     11   O  BGC B   1      20.123   9.711   3.1420  0.00  0.00     0.000 O
ATOM     13  HD  BGC B   1      20.944   9.926   2.9700  0.00  0.00     0.000 HD
ATOM     13   C  BGC B   1      17.333   9.102   3.8860  0.00  0.00     0.000 C
ATOM     14   O  BGC B   1      16.775   9.115   2.5760  0.00  0.00     0.000 O
ATOM     16  HD  BGC B   1      17.596   9.330   2.4030  0.00  0.00     0.000 HD
ENDROOT
BRANCH 1 16
ATOM     16  O4  BGC B   2      18.431   4.580   3.8720  0.00  0.00     0.000 O
BRANCH 16 20
ATOM     17  C1  BGC B   2      16.495   1.459   5.6180  0.00  0.00     0.000 C
ATOM     18  C2  BGC B   2      15.781   2.792   5.7850  0.00  0.00     0.000 C
ATOM     19  C3  BGC B   2      16.386   3.793   4.8040  0.00  0.00     0.000 C
ATOM     20  C4  BGC B   2      17.889   3.864   4.9790  0.00  0.00     0.000 C
ATOM     21  C5  BGC B   2      18.541   2.481   4.9940  0.00  0.00     0.000 C
ATOM     22  O5  BGC B   2      17.874   1.673   5.9720  0.00  0.00     0.000 O
ATOM     23   O  BGC B   2      14.380   2.642   5.5000  0.00  0.00     0.000 O
ATOM     25  HD  BGC B   2      15.048   2.968   5.0550  0.00  0.00     0.000 HD
ATOM     25   O  BGC B   2      15.805   5.077   5.0010  0.00  0.00     0.000 O
ATOM     27  HD  BGC B   2      16.473   5.403   4.5570  0.00  0.00     0.000 HD
ATOM     27   C  BGC B   2      20.019   2.524   5.3570  0.00  0.00     0.000 C
ATOM     28   O  BGC B   2      20.274   3.152   6.6040  0.00  0.00     0.000 O
ATOM     30  HD  BGC B   2      20.941   3.478   6.1590  0.00  0.00     0.000 HD
BRANCH 17 30
ATOM     30  O4  BGC B   3      15.987   0.594   6.6160  0.00  0.00     0.000 O
BRANCH 30 34
ATOM     31  C1  BGC B   3      15.104  -3.382   7.1970  0.00  0.00     0.000 C
ATOM     32  C2  BGC B   3      16.552  -3.105   6.7930  0.00  0.00     0.000 C
ATOM     33  C3  BGC B   3      16.847  -1.630   7.0000  0.00  0.00     0.000 C
ATOM     34  C4  BGC B   3      15.837  -0.777   6.2350  0.00  0.00     0.000 C
ATOM     35  C5  BGC B   3      14.420  -1.201   6.5770  0.00  0.00     0.000 C
ATOM     36  O5  BGC B   3      14.275  -2.607   6.3470  0.00  0.00     0.000 O
ATOM     37   O  BGC B   3      17.430  -3.862   7.6240  0.00  0.00     0.000 O
ATOM     39  HD  BGC B   3      18.088  -3.634   7.1080  0.00  0.00     0.000 HD
ATOM     39   O  BGC B   3      18.168  -1.368   6.5500  0.00  0.00     0.000 O
ATOM     41  HD  BGC B   3      18.825  -1.140   6.0350  0.00  0.00     0.000 HD
ATOM     41   C  BGC B   3      13.344  -0.463   5.7880  0.00  0.00     0.000 C
ATOM     42   O  BGC B   3      13.545  -0.645   4.4060  0.00  0.00     0.000 O
ATOM     44  HD  BGC B   3      14.202  -0.416   3.8910  0.00  0.00     0.000 HD
BRANCH 31 44
ATOM     44  O4  BGC B   4      14.839  -4.728   6.8960  0.00  0.00     0.000 O
BRANCH 44 48
ATOM     45  C1  BGC B   4      12.125  -7.672   7.7740  0.00  0.00     0.000 C
ATOM     46  C2  BGC B   4      11.692  -6.712   6.6750  0.00  0.00     0.000 C
ATOM     47  C3  BGC B   4      12.891  -5.944   6.1750  0.00  0.00     0.000 C
ATOM     48  C4  BGC B   4      13.610  -5.263   7.3440  0.00  0.00     0.000 C
ATOM     49  C5  BGC B   4      13.920  -6.277   8.4510  0.00  0.00     0.000 C
ATOM     50  O5  BGC B   4      12.713  -6.942   8.8520  0.00  0.00     0.000 O
ATOM     51   O  BGC B   4      11.113  -7.446   5.5780  0.00  0.00     0.000 O
ATOM     53  HD  BGC B   4      11.894  -7.285   5.2390  0.00  0.00     0.000 HD
ATOM     53   O  BGC B   4      12.448  -4.955   5.2360  0.00  0.00     0.000 O
ATOM     55  HD  BGC B   4      13.228  -4.793   4.8970  0.00  0.00     0.000 HD
ATOM     55   C  BGC B   4      14.530  -5.673   9.7030  0.00  0.00     0.000 C
ATOM     56   O  BGC B   4      13.652  -4.643  10.1620  0.00  0.00     0.000 O
ATOM     58  HD  BGC B   4      14.432  -4.482   9.8220  0.00  0.00     0.000 HD
BRANCH 45 58
ATOM     58  O4  BGC B   5      10.920  -8.162   8.3620  0.00  0.00     0.000 O
BRANCH 58 62
ATOM     59  C1  BGC B   5       9.409 -11.810   9.6090  0.00  0.00     0.000 C
ATOM     60  C2  BGC B   5       9.826 -10.866  10.7190  0.00  0.00     0.000 C
ATOM     61  C3  BGC B   5       9.961  -9.450  10.1910  0.00  0.00     0.000 C
ATOM     62  C4  BGC B   5      10.912  -9.439   9.0050  0.00  0.00     0.000 C
ATOM     63  C5  BGC B   5      10.480 -10.472   7.9540  0.00  0.00     0.000 C
ATOM     64  O5  BGC B   5      10.395 -11.751   8.5740  0.00  0.00     0.000 O
ATOM     65   O  BGC B   5      12.707 -10.913   7.3710  0.00  0.00     0.000 O
ATOM     67  HD  BGC B   5      13.498 -10.562   7.4070  0.00  0.00     0.000 HD
ATOM     67   O  BGC B   5      12.707 -10.913   7.3710  0.00  0.00     0.000 O
ATOM     69  HD  BGC B   5      13.498 -10.562   7.4070  0.00  0.00     0.000 HD
ENDBRANCH 58 62
ENDBRANCH 45 58
ENDBRANCH 44 48
ENDBRANCH 31 44
ENDBRANCH 30 34
ENDBRANCH 17 30
ENDBRANCH 16 20
ENDBRANCH 1 16
TORSDOF 8
ENDMDL
MODEL 63
REMARK VINA RESULT:      -7.3      5.243     11.128
ROOT
ATOM      1  C1  BGC B   1      19.895  -5.673 -14.7350  0.00  0.00     0.000 C
ATOM      2  C2  BGC B   1      18.514  -5.058 -14.5130  0.00  0.00     0.000 C
ATOM      3  C3  BGC B   1      18.652  -3.645 -13.9810  0.00  0.00     0.000 C
ATOM      4  C4  BGC B   1      19.566  -3.615 -12.7620  0.00  0.00     0.000 C
ATOM      5  C5  BGC B   1      20.898  -4.242 -13.1420  0.00  0.00     0.000 C
ATOM      6  O5  BGC B   1      20.638  -5.605 -13.5260  0.00  0.00     0.000 O
ATOM      7   O  BGC B   1      17.803  -5.026 -15.7620  0.00  0.00     0.000 O
ATOM      9  HD  BGC B   1      17.204  -4.410 -15.8680  0.00  0.00     0.000 HD
ATOM      9   O  BGC B   1      17.352  -3.143 -13.6570  0.00  0.00     0.000 O
ATOM     11  HD  BGC B   1      16.753  -2.527 -13.7630  0.00  0.00     0.000 HD
ATOM     11   O  BGC B   1      19.763  -2.279 -12.3500  0.00  0.00     0.000 O
ATOM     13  HD  BGC B   1      19.163  -1.663 -12.4570  0.00  0.00     0.000 HD
ATOM     13   C  BGC B   1      21.943  -4.243 -12.0360  0.00  0.00     0.000 C
ATOM     14   O  BGC B   1      21.472  -4.867 -10.8450  0.00  0.00     0.000 O
ATOM     16  HD  BGC B   1      20.873  -4.251 -10.9520  0.00  0.00     0.000 HD
ENDROOT
BRANCH 1 16
ATOM     16  O4  BGC B   2      19.679  -7.064 -14.9620  0.00  0.00     0.000 O
BRANCH 16 20
ATOM     17  C1  BGC B   2      21.069 -10.206 -17.1380  0.00  0.00     0.000 C
ATOM     18  C2  BGC B   2      22.056  -9.699 -16.0970  0.00  0.00     0.000 C
ATOM     19  C3  BGC B   2      21.309  -8.793 -15.1210  0.00  0.00     0.000 C
ATOM     20  C4  BGC B   2      20.576  -7.699 -15.8700  0.00  0.00     0.000 C
ATOM     21  C5  BGC B   2      19.743  -8.244 -17.0310  0.00  0.00     0.000 C
ATOM     22  O5  BGC B   2      20.588  -9.055 -17.8570  0.00  0.00     0.000 O
ATOM     23   O  BGC B   2      22.621 -10.805 -15.3730  0.00  0.00     0.000 O
ATOM     25  HD  BGC B   2      22.009 -10.221 -15.1880  0.00  0.00     0.000 HD
ATOM     25   O  BGC B   2      22.223  -8.226 -14.1900  0.00  0.00     0.000 O
ATOM     27  HD  BGC B   2      21.611  -7.642 -14.0050  0.00  0.00     0.000 HD
ATOM     27   C  BGC B   2      19.154  -7.145 -17.9070  0.00  0.00     0.000 C
ATOM     28   O  BGC B   2      20.131  -6.261 -18.4330  0.00  0.00     0.000 O
ATOM     30  HD  BGC B   2      19.518  -5.678 -18.2480  0.00  0.00     0.000 HD
BRANCH 17 30
ATOM     30  O4  BGC B   3      21.816 -10.947 -18.0850  0.00  0.00     0.000 O
BRANCH 30 34
ATOM     31  C1  BGC B   3      20.891 -14.779 -19.2590  0.00  0.00     0.000 C
ATOM     32  C2  BGC B   3      21.349 -13.862 -20.3920  0.00  0.00     0.000 C
ATOM     33  C3  BGC B   3      22.027 -12.642 -19.7930  0.00  0.00     0.000 C
ATOM     34  C4  BGC B   3      21.092 -11.951 -18.8010  0.00  0.00     0.000 C
ATOM     35  C5  BGC B   3      20.561 -12.952 -17.7900  0.00  0.00     0.000 C
ATOM     36  O5  BGC B   3      19.956 -14.051 -18.4790  0.00  0.00     0.000 O
ATOM     37   O  BGC B   3      22.296 -14.549 -21.2080  0.00  0.00     0.000 O
ATOM     39  HD  BGC B   3      22.253 -13.898 -21.7770  0.00  0.00     0.000 HD
ATOM     39   O  BGC B   3      22.380 -11.760 -20.8470  0.00  0.00     0.000 O
ATOM     41  HD  BGC B   3      22.337 -11.109 -21.4170  0.00  0.00     0.000 HD
ATOM     41   C  BGC B   3      19.546 -12.367 -16.8140  0.00  0.00     0.000 C
ATOM     42   O  BGC B   3      18.455 -11.821 -17.5180  0.00  0.00     0.000 O
ATOM     44  HD  BGC B   3      18.412 -11.170 -18.0870  0.00  0.00     0.000 HD
BRANCH 31 44
ATOM     44  O4  BGC B   4      20.181 -15.840 -19.8450  0.00  0.00     0.000 O
BRANCH 44 48
ATOM     45  C1  BGC B   4      19.198 -19.766 -19.1900  0.00  0.00     0.000 C
ATOM     46  C2  BGC B   4      18.680 -18.794 -18.1390  0.00  0.00     0.000 C
ATOM     47  C3  BGC B   4      18.754 -17.386 -18.6750  0.00  0.00     0.000 C
ATOM     48  C4  BGC B   4      20.174 -17.075 -19.1580  0.00  0.00     0.000 C
ATOM     49  C5  BGC B   4      20.660 -18.153 -20.1350  0.00  0.00     0.000 C
ATOM     50  O5  BGC B   4      20.550 -19.447 -19.5220  0.00  0.00     0.000 O
ATOM     51   O  BGC B   4      17.311 -19.102 -17.8140  0.00  0.00     0.000 O
ATOM     53  HD  BGC B   4      17.179 -18.419 -18.3300  0.00  0.00     0.000 HD
ATOM     53   O  BGC B   4      18.388 -16.474 -17.6290  0.00  0.00     0.000 O
ATOM     55  HD  BGC B   4      18.257 -15.790 -18.1450  0.00  0.00     0.000 HD
ATOM     55   C  BGC B   4      22.102 -17.994 -20.5800  0.00  0.00     0.000 C
ATOM     56   O  BGC B   4      22.916 -17.939 -19.4070  0.00  0.00     0.000 O
ATOM     58  HD  BGC B   4      22.785 -17.256 -19.9230  0.00  0.00     0.000 HD
BRANCH 45 58
ATOM     58  O4  BGC B   5      19.338 -21.022 -18.5270  0.00  0.00     0.000 O
BRANCH 58 62
ATOM     59  C1  BGC B   5      19.610 -25.080 -19.3060  0.00  0.00     0.000 C
ATOM     60  C2  BGC B   5      20.887 -24.290 -19.5160  0.00  0.00     0.000 C
ATOM     61  C3  BGC B   5      20.801 -22.944 -18.8220  0.00  0.00     0.000 C
ATOM     62  C4  BGC B   5      19.557 -22.208 -19.2940  0.00  0.00     0.000 C
ATOM     63  C5  BGC B   5      18.311 -23.091 -19.1290  0.00  0.00     0.000 C
ATOM     64  O5  BGC B   5      18.518 -24.315 -19.8260  0.00  0.00     0.000 O
ATOM     65   O  BGC B   5      17.324 -22.176 -21.0480  0.00  0.00     0.000 O
ATOM     67  HD  BGC B   5      17.357 -21.477 -21.5590  0.00  0.00     0.000 HD
ATOM     67   O  BGC B   5      17.324 -22.176 -21.0480  0.00  0.00     0.000 O
ATOM     69  HD  BGC B   5      17.357 -21.477 -21.5590  0.00  0.00     0.000 HD
ENDBRANCH 58 62
ENDBRANCH 45 58
ENDBRANCH 44 48
ENDBRANCH 31 44
ENDBRANCH 30 34
ENDBRANCH 17 30
ENDBRANCH 16 20
ENDBRANCH 1 16
TORSDOF 8
ENDMDL
MODEL 64
REMARK VINA RESULT:      -7.3     10.936     23.760
ROOT
ATOM      1  C1  BGC B   1      19.193 -28.784 -21.3190  0.00  0.00     0.000 C
ATOM      2  C2  BGC B   1      17.970 -29.605 -21.7250  0.00  0.00     0.000 C
ATOM      3  C3  BGC B   1      18.119 -31.035 -21.2410  0.00  0.00     0.000 C
ATOM      4  C4  BGC B   1      19.453 -31.619 -21.6870  0.00  0.00     0.000 C
ATOM      5  C5  BGC B   1      20.567 -30.705 -21.1970  0.00  0.00     0.000 C
ATOM      6  O5  BGC B   1      20.366 -29.417 -21.8090  0.00  0.00     0.000 O
ATOM      7   O  BGC B   1      16.794 -29.026 -21.1360  0.00  0.00     0.000 O
ATOM      9  HD  BGC B   1      16.125 -29.551 -20.9730  0.00  0.00     0.000 HD
ATOM      9   O  BGC B   1      17.028 -31.810 -21.7480  0.00  0.00     0.000 O
ATOM     11  HD  BGC B   1      16.360 -32.335 -21.5850  0.00  0.00     0.000 HD
ATOM     11   O  BGC B   1      19.613 -32.908 -21.1370  0.00  0.00     0.000 O
ATOM     13  HD  BGC B   1      18.944 -33.434 -20.9730  0.00  0.00     0.000 HD
ATOM     13   C  BGC B   1      21.975 -31.181 -21.5240  0.00  0.00     0.000 C
ATOM     14   O  BGC B   1      22.159 -31.414 -22.9170  0.00  0.00     0.000 O
ATOM     16  HD  BGC B   1      21.490 -31.939 -22.7530  0.00  0.00     0.000 HD
ENDROOT
BRANCH 1 16
ATOM     16  O4  BGC B   2      19.105 -27.556 -22.0380  0.00  0.00     0.000 O
BRANCH 16 20
ATOM     17  C1  BGC B   2      19.646 -23.548 -21.6080  0.00  0.00     0.000 C
ATOM     18  C2  BGC B   2      20.937 -24.350 -21.5410  0.00  0.00     0.000 C
ATOM     19  C3  BGC B   2      20.663 -25.756 -22.0710  0.00  0.00     0.000 C
ATOM     20  C4  BGC B   2      19.500 -26.384 -21.3300  0.00  0.00     0.000 C
ATOM     21  C5  BGC B   2      18.285 -25.458 -21.2620  0.00  0.00     0.000 C
ATOM     22  O5  BGC B   2      18.704 -24.194 -20.7320  0.00  0.00     0.000 O
ATOM     23   O  BGC B   2      21.946 -23.730 -22.3540  0.00  0.00     0.000 O
ATOM     25  HD  BGC B   2      21.434 -24.419 -22.4630  0.00  0.00     0.000 HD
ATOM     25   O  BGC B   2      21.828 -26.561 -21.9330  0.00  0.00     0.000 O
ATOM     27  HD  BGC B   2      21.315 -27.250 -22.0410  0.00  0.00     0.000 HD
ATOM     27   C  BGC B   2      17.179 -25.995 -20.3620  0.00  0.00     0.000 C
ATOM     28   O  BGC B   2      17.612 -26.265 -19.0380  0.00  0.00     0.000 O
ATOM     30  HD  BGC B   2      17.099 -26.954 -19.1470  0.00  0.00     0.000 HD
BRANCH 17 30
ATOM     30  O4  BGC B   3      19.910 -22.295 -21.0070  0.00  0.00     0.000 O
BRANCH 30 34
ATOM     31  C1  BGC B   3      18.084 -18.657 -20.4110  0.00  0.00     0.000 C
ATOM     32  C2  BGC B   3      17.589 -19.774 -19.4930  0.00  0.00     0.000 C
ATOM     33  C3  BGC B   3      18.587 -20.917 -19.5280  0.00  0.00     0.000 C
ATOM     34  C4  BGC B   3      18.811 -21.379 -20.9670  0.00  0.00     0.000 C
ATOM     35  C5  BGC B   3      19.161 -20.196 -21.8530  0.00  0.00     0.000 C
ATOM     36  O5  BGC B   3      18.151 -19.190 -21.7250  0.00  0.00     0.000 O
ATOM     37   O  BGC B   3      17.505 -19.288 -18.1550  0.00  0.00     0.000 O
ATOM     39  HD  BGC B   3      17.099 -20.019 -17.9320  0.00  0.00     0.000 HD
ATOM     39   O  BGC B   3      18.081 -21.980 -18.7340  0.00  0.00     0.000 O
ATOM     41  HD  BGC B   3      17.675 -22.712 -18.5110  0.00  0.00     0.000 HD
ATOM     41   C  BGC B   3      19.313 -20.551 -23.3280  0.00  0.00     0.000 C
ATOM     42   O  BGC B   3      18.128 -21.137 -23.8120  0.00  0.00     0.000 O
ATOM     44  HD  BGC B   3      17.722 -21.869 -23.5890  0.00  0.00     0.000 HD
BRANCH 31 44
ATOM     44  O4  BGC B   4      17.090 -17.665 -20.4330  0.00  0.00     0.000 O
BRANCH 44 48
ATOM     45  C1  BGC B   4      16.760 -13.580 -20.5230  0.00  0.00     0.000 C
ATOM     46  C2  BGC B   4      16.860 -14.242 -21.8900  0.00  0.00     0.000 C
ATOM     47  C3  BGC B   4      16.581 -15.719 -21.7550  0.00  0.00     0.000 C
ATOM     48  C4  BGC B   4      17.501 -16.339 -20.6990  0.00  0.00     0.000 C
ATOM     49  C5  BGC B   4      17.418 -15.554 -19.3840  0.00  0.00     0.000 C
ATOM     50  O5  BGC B   4      17.704 -14.169 -19.6280  0.00  0.00     0.000 O
ATOM     51   O  BGC B   4      15.897 -13.662 -22.7910  0.00  0.00     0.000 O
ATOM     53  HD  BGC B   4      15.483 -14.399 -22.6030  0.00  0.00     0.000 HD
ATOM     53   O  BGC B   4      16.807 -16.350 -23.0240  0.00  0.00     0.000 O
ATOM     55  HD  BGC B   4      16.393 -17.086 -22.8360  0.00  0.00     0.000 HD
ATOM     55   C  BGC B   4      18.383 -16.024 -18.3100  0.00  0.00     0.000 C
ATOM     56   O  BGC B   4      19.700 -15.991 -18.8630  0.00  0.00     0.000 O
ATOM     58  HD  BGC B   4      19.285 -16.728 -18.6750  0.00  0.00     0.000 HD
BRANCH 45 58
ATOM     58  O4  BGC B   5      17.282 -12.262 -20.6880  0.00  0.00     0.000 O
BRANCH 58 62
ATOM     59  C1  BGC B   5      16.348  -8.306 -19.8970  0.00  0.00     0.000 C
ATOM     60  C2  BGC B   5      16.968  -9.070 -18.7450  0.00  0.00     0.000 C
ATOM     61  C3  BGC B   5      17.640 -10.335 -19.2450  0.00  0.00     0.000 C
ATOM     62  C4  BGC B   5      16.641 -11.159 -20.0430  0.00  0.00     0.000 C
ATOM     63  C5  BGC B   5      15.991 -10.305 -21.1420  0.00  0.00     0.000 C
ATOM     64  O5  BGC B   5      15.397  -9.158 -20.5430  0.00  0.00     0.000 O
ATOM     65   O  BGC B   5      13.960 -11.456 -20.9290  0.00  0.00     0.000 O
ATOM     67  HD  BGC B   5      13.633 -12.205 -20.6410  0.00  0.00     0.000 HD
ATOM     67   O  BGC B   5      13.960 -11.456 -20.9290  0.00  0.00     0.000 O
ATOM     69  HD  BGC B   5      13.633 -12.205 -20.6410  0.00  0.00     0.000 HD
ENDBRANCH 58 62
ENDBRANCH 45 58
ENDBRANCH 44 48
ENDBRANCH 31 44
ENDBRANCH 30 34
ENDBRANCH 17 30
ENDBRANCH 16 20
ENDBRANCH 1 16
TORSDOF 8
ENDMDL
MODEL 65
REMARK VINA RESULT:      -7.3      6.091     11.925
ROOT
ATOM      1  C1  BGC B   1      20.620  -6.488 -14.9360  0.00  0.00     0.000 C
ATOM      2  C2  BGC B   1      19.723  -5.905 -13.8450  0.00  0.00     0.000 C
ATOM      3  C3  BGC B   1      20.323  -4.620 -13.3100  0.00  0.00     0.000 C
ATOM      4  C4  BGC B   1      21.773  -4.833 -12.8930  0.00  0.00     0.000 C
ATOM      5  C5  BGC B   1      22.537  -5.399 -14.0810  0.00  0.00     0.000 C
ATOM      6  O5  BGC B   1      21.933  -6.661 -14.4200  0.00  0.00     0.000 O
ATOM      7   O  BGC B   1      18.426  -5.628 -14.3980  0.00  0.00     0.000 O
ATOM      9  HD  BGC B   1      17.961  -4.994 -14.0350  0.00  0.00     0.000 HD
ATOM      9   O  BGC B   1      19.536  -4.168 -12.2040  0.00  0.00     0.000 O
ATOM     11  HD  BGC B   1      19.071  -3.534 -11.8410  0.00  0.00     0.000 HD
ATOM     11   O  BGC B   1      22.339  -3.603 -12.4990  0.00  0.00     0.000 O
ATOM     13  HD  BGC B   1      21.874  -2.968 -12.1360  0.00  0.00     0.000 HD
ATOM     13   C  BGC B   1      24.022  -5.624 -13.8370  0.00  0.00     0.000 C
ATOM     14   O  BGC B   1      24.266  -6.453 -12.7050  0.00  0.00     0.000 O
ATOM     16  HD  BGC B   1      23.801  -5.819 -12.3420  0.00  0.00     0.000 HD
ENDROOT
BRANCH 1 16
ATOM     16  O4  BGC B   2      20.141  -7.809 -15.1820  0.00  0.00     0.000 O
BRANCH 16 20
ATOM     17  C1  BGC B   2      20.180 -10.677 -18.0640  0.00  0.00     0.000 C
ATOM     18  C2  BGC B   2      21.399 -10.708 -17.1550  0.00  0.00     0.000 C
ATOM     19  C3  BGC B   2      21.107  -9.856 -15.9230  0.00  0.00     0.000 C
ATOM     20  C4  BGC B   2      20.669  -8.464 -16.3320  0.00  0.00     0.000 C
ATOM     21  C5  BGC B   2      19.567  -8.488 -17.3920  0.00  0.00     0.000 C
ATOM     22  O5  BGC B   2      20.001  -9.311 -18.4820  0.00  0.00     0.000 O
ATOM     23   O  BGC B   2      21.673 -12.056 -16.7410  0.00  0.00     0.000 O
ATOM     25  HD  BGC B   2      21.305 -11.376 -16.3520  0.00  0.00     0.000 HD
ATOM     25   O  BGC B   2      22.263  -9.785 -15.0970  0.00  0.00     0.000 O
ATOM     27  HD  BGC B   2      21.895  -9.104 -14.7080  0.00  0.00     0.000 HD
ATOM     27   C  BGC B   2      19.250  -7.107 -17.9510  0.00  0.00     0.000 C
ATOM     28   O  BGC B   2      20.381  -6.448 -18.4960  0.00  0.00     0.000 O
ATOM     30  HD  BGC B   2      20.013  -5.767 -18.1070  0.00  0.00     0.000 HD
BRANCH 17 30
ATOM     30  O4  BGC B   3      20.529 -11.381 -19.2420  0.00  0.00     0.000 O
BRANCH 30 34
ATOM     31  C1  BGC B   3      18.847 -13.882 -22.0420  0.00  0.00     0.000 C
ATOM     32  C2  BGC B   3      18.188 -12.507 -21.9420  0.00  0.00     0.000 C
ATOM     33  C3  BGC B   3      19.119 -11.569 -21.1940  0.00  0.00     0.000 C
ATOM     34  C4  BGC B   3      19.484 -12.160 -19.8340  0.00  0.00     0.000 C
ATOM     35  C5  BGC B   3      19.999 -13.580 -19.9950  0.00  0.00     0.000 C
ATOM     36  O5  BGC B   3      19.038 -14.356 -20.7180  0.00  0.00     0.000 O
ATOM     37   O  BGC B   3      17.976 -11.985 -23.2510  0.00  0.00     0.000 O
ATOM     39  HD  BGC B   3      17.507 -11.345 -22.9030  0.00  0.00     0.000 HD
ATOM     39   O  BGC B   3      18.466 -10.318 -21.0380  0.00  0.00     0.000 O
ATOM     41  HD  BGC B   3      17.998  -9.679 -20.6890  0.00  0.00     0.000 HD
ATOM     41   C  BGC B   3      20.303 -14.282 -18.6770  0.00  0.00     0.000 C
ATOM     42   O  BGC B   3      19.152 -14.313 -17.8660  0.00  0.00     0.000 O
ATOM     44  HD  BGC B   3      18.683 -13.674 -17.5180  0.00  0.00     0.000 HD
BRANCH 31 44
ATOM     44  O4  BGC B   4      17.918 -14.746 -22.6450  0.00  0.00     0.000 O
BRANCH 44 48
ATOM     45  C1  BGC B   4      17.836 -18.034 -25.0920  0.00  0.00     0.000 C
ATOM     46  C2  BGC B   4      17.974 -18.346 -23.6090  0.00  0.00     0.000 C
ATOM     47  C3  BGC B   4      17.601 -17.127 -22.8010  0.00  0.00     0.000 C
ATOM     48  C4  BGC B   4      18.421 -15.916 -23.2570  0.00  0.00     0.000 C
ATOM     49  C5  BGC B   4      18.311 -15.731 -24.7760  0.00  0.00     0.000 C
ATOM     50  O5  BGC B   4      18.692 -16.944 -25.4410  0.00  0.00     0.000 O
ATOM     51   O  BGC B   4      17.100 -19.433 -23.2500  0.00  0.00     0.000 O
ATOM     53  HD  BGC B   4      16.632 -18.773 -22.9400  0.00  0.00     0.000 HD
ATOM     53   O  BGC B   4      17.860 -17.393 -21.4160  0.00  0.00     0.000 O
ATOM     55  HD  BGC B   4      17.393 -16.733 -21.1060  0.00  0.00     0.000 HD
ATOM     55   C  BGC B   4      19.184 -14.624 -25.3380  0.00  0.00     0.000 C
ATOM     56   O  BGC B   4      20.530 -14.882 -24.9340  0.00  0.00     0.000 O
ATOM     58  HD  BGC B   4      20.063 -14.222 -24.6240  0.00  0.00     0.000 HD
BRANCH 45 58
ATOM     58  O4  BGC B   5      18.444 -19.127 -25.7800  0.00  0.00     0.000 O
BRANCH 58 62
ATOM     59  C1  BGC B   5      17.647 -21.798 -28.8420  0.00  0.00     0.000 C
ATOM     60  C2  BGC B   5      18.317 -20.506 -29.2640  0.00  0.00     0.000 C
ATOM     61  C3  BGC B   5      18.930 -19.807 -28.0650  0.00  0.00     0.000 C
ATOM     62  C4  BGC B   5      17.868 -19.610 -26.9960  0.00  0.00     0.000 C
ATOM     63  C5  BGC B   5      17.173 -20.940 -26.6710  0.00  0.00     0.000 C
ATOM     64  O5  BGC B   5      16.641 -21.487 -27.8730  0.00  0.00     0.000 O
ATOM     65   O  BGC B   5      15.132 -19.856 -26.2740  0.00  0.00     0.000 O
ATOM     67  HD  BGC B   5      14.807 -19.079 -26.0740  0.00  0.00     0.000 HD
ATOM     67   O  BGC B   5      15.132 -19.856 -26.2740  0.00  0.00     0.000 O
ATOM     69  HD  BGC B   5      14.807 -19.079 -26.0740  0.00  0.00     0.000 HD
ENDBRANCH 58 62
ENDBRANCH 45 58
ENDBRANCH 44 48
ENDBRANCH 31 44
ENDBRANCH 30 34
ENDBRANCH 17 30
ENDBRANCH 16 20
ENDBRANCH 1 16
TORSDOF 8
ENDMDL
MODEL 66
REMARK VINA RESULT:      -7.3      2.746     15.211
ROOT
ATOM      1  C1  BGC B   1      18.591  -6.070 -16.5410  0.00  0.00     0.000 C
ATOM      2  C2  BGC B   1      17.568  -7.049 -15.9660  0.00  0.00     0.000 C
ATOM      3  C3  BGC B   1      17.716  -8.405 -16.6280  0.00  0.00     0.000 C
ATOM      4  C4  BGC B   1      17.685  -8.272 -18.1450  0.00  0.00     0.000 C
ATOM      5  C5  BGC B   1      18.763  -7.282 -18.5640  0.00  0.00     0.000 C
ATOM      6  O5  BGC B   1      18.446  -6.018 -17.9530  0.00  0.00     0.000 O
ATOM      7   O  BGC B   1      17.787  -7.185 -14.5520  0.00  0.00     0.000 O
ATOM      9  HD  BGC B   1      17.554  -7.932 -14.1790  0.00  0.00     0.000 HD
ATOM      9   O  BGC B   1      16.665  -9.261 -16.1700  0.00  0.00     0.000 O
ATOM     11  HD  BGC B   1      16.432 -10.007 -15.7970  0.00  0.00     0.000 HD
ATOM     11   O  BGC B   1      17.930  -9.529 -18.7370  0.00  0.00     0.000 O
ATOM     13  HD  BGC B   1      17.698 -10.275 -18.3640  0.00  0.00     0.000 HD
ATOM     13   C  BGC B   1      18.891  -7.076 -20.0660  0.00  0.00     0.000 C
ATOM     14   O  BGC B   1      17.660  -6.685 -20.6670  0.00  0.00     0.000 O
ATOM     16  HD  BGC B   1      17.427  -7.432 -20.2940  0.00  0.00     0.000 HD
ENDROOT
BRANCH 1 16
ATOM     16  O4  BGC B   2      18.206  -4.776 -16.0800  0.00  0.00     0.000 O
BRANCH 16 20
ATOM     17  C1  BGC B   2      19.774  -1.194 -14.9630  0.00  0.00     0.000 C
ATOM     18  C2  BGC B   2      19.815  -1.438 -16.4640  0.00  0.00     0.000 C
ATOM     19  C3  BGC B   2      18.892  -2.610 -16.7900  0.00  0.00     0.000 C
ATOM     20  C4  BGC B   2      19.254  -3.819 -15.9520  0.00  0.00     0.000 C
ATOM     21  C5  BGC B   2      19.387  -3.480 -14.4670  0.00  0.00     0.000 C
ATOM     22  O5  BGC B   2      20.294  -2.378 -14.3300  0.00  0.00     0.000 O
ATOM     23   O  BGC B   2      19.359  -0.270 -17.1670  0.00  0.00     0.000 O
ATOM     25  HD  BGC B   2      18.994  -1.032 -16.9750  0.00  0.00     0.000 HD
ATOM     25   O  BGC B   2      18.981  -2.925 -18.1750  0.00  0.00     0.000 O
ATOM     27  HD  BGC B   2      18.616  -3.687 -17.9830  0.00  0.00     0.000 HD
ATOM     27   C  BGC B   2      19.934  -4.637 -13.6400  0.00  0.00     0.000 C
ATOM     28   O  BGC B   2      21.185  -5.117 -14.1040  0.00  0.00     0.000 O
ATOM     30  HD  BGC B   2      20.821  -5.879 -13.9120  0.00  0.00     0.000 HD
BRANCH 17 30
ATOM     30  O4  BGC B   3      20.723  -0.181 -14.6860  0.00  0.00     0.000 O
BRANCH 30 34
ATOM     31  C1  BGC B   3      21.406   2.814 -11.9500  0.00  0.00     0.000 C
ATOM     32  C2  BGC B   3      21.709   1.407 -11.4390  0.00  0.00     0.000 C
ATOM     33  C3  BGC B   3      21.805   0.463 -12.6250  0.00  0.00     0.000 C
ATOM     34  C4  BGC B   3      20.529   0.536 -13.4630  0.00  0.00     0.000 C
ATOM     35  C5  BGC B   3      20.210   1.978 -13.8150  0.00  0.00     0.000 C
ATOM     36  O5  BGC B   3      20.155   2.760 -12.6180  0.00  0.00     0.000 O
ATOM     37   O  BGC B   3      22.963   1.407 -10.7590  0.00  0.00     0.000 O
ATOM     39  HD  BGC B   3      22.798   0.601 -10.4890  0.00  0.00     0.000 HD
ATOM     39   O  BGC B   3      22.010  -0.854 -12.1360  0.00  0.00     0.000 O
ATOM     41  HD  BGC B   3      21.845  -1.660 -11.8660  0.00  0.00     0.000 HD
ATOM     41   C  BGC B   3      18.900   2.154 -14.5750  0.00  0.00     0.000 C
ATOM     42   O  BGC B   3      17.829   1.628 -13.8260  0.00  0.00     0.000 O
ATOM     44  HD  BGC B   3      17.665   0.822 -13.5560  0.00  0.00     0.000 HD
BRANCH 31 44
ATOM     44  O4  BGC B   4      21.223   3.635 -10.8250  0.00  0.00     0.000 O
BRANCH 44 48
ATOM     45  C1  BGC B   4      22.040   7.431  -9.5120  0.00  0.00     0.000 C
ATOM     46  C2  BGC B   4      20.853   7.326 -10.4590  0.00  0.00     0.000 C
ATOM     47  C3  BGC B   4      20.413   5.886 -10.5550  0.00  0.00     0.000 C
ATOM     48  C4  BGC B   4      21.595   4.993 -10.9440  0.00  0.00     0.000 C
ATOM     49  C5  BGC B   4      22.784   5.233 -10.0040  0.00  0.00     0.000 C
ATOM     50  O5  BGC B   4      23.119   6.628  -9.9940  0.00  0.00     0.000 O
ATOM     51   O  BGC B   4      19.757   8.121  -9.9670  0.00  0.00     0.000 O
ATOM     53  HD  BGC B   4      19.476   7.337  -9.7280  0.00  0.00     0.000 HD
ATOM     53   O  BGC B   4      19.382   5.783 -11.5480  0.00  0.00     0.000 O
ATOM     55  HD  BGC B   4      19.101   4.999 -11.3090  0.00  0.00     0.000 HD
ATOM     55   C  BGC B   4      24.045   4.476 -10.3810  0.00  0.00     0.000 C
ATOM     56   O  BGC B   4      24.365   4.810 -11.7330  0.00  0.00     0.000 O
ATOM     58  HD  BGC B   4      24.084   4.026 -11.4940  0.00  0.00     0.000 HD
BRANCH 45 58
ATOM     58  O4  BGC B   5      22.553   8.753  -9.6730  0.00  0.00     0.000 O
BRANCH 58 62
ATOM     59  C1  BGC B   5      25.013  11.246  -7.4630  0.00  0.00     0.000 C
ATOM     60  C2  BGC B   5      25.574  10.794  -8.7960  0.00  0.00     0.000 C
ATOM     61  C3  BGC B   5      24.468  10.254  -9.6840  0.00  0.00     0.000 C
ATOM     62  C4  BGC B   5      23.716   9.157  -8.9470  0.00  0.00     0.000 C
ATOM     63  C5  BGC B   5      23.244   9.653  -7.5730  0.00  0.00     0.000 C
ATOM     64  O5  BGC B   5      24.371  10.127  -6.8430  0.00  0.00     0.000 O
ATOM     65   O  BGC B   5      23.538   7.528  -6.6280  0.00  0.00     0.000 O
ATOM     67  HD  BGC B   5      23.595   6.692  -6.8470  0.00  0.00     0.000 HD
ATOM     67   O  BGC B   5      23.538   7.528  -6.6280  0.00  0.00     0.000 O
ATOM     69  HD  BGC B   5      23.595   6.692  -6.8470  0.00  0.00     0.000 HD
ENDBRANCH 58 62
ENDBRANCH 45 58
ENDBRANCH 44 48
ENDBRANCH 31 44
ENDBRANCH 30 34
ENDBRANCH 17 30
ENDBRANCH 16 20
ENDBRANCH 1 16
TORSDOF 8
ENDMDL
MODEL 67
REMARK VINA RESULT:      -7.2      4.783      7.443
ROOT
ATOM      1  C1  BGC B   1      19.631   0.150 -18.7960  0.00  0.00     0.000 C
ATOM      2  C2  BGC B   1      20.773   0.917 -18.1320  0.00  0.00     0.000 C
ATOM      3  C3  BGC B   1      20.413   2.385 -18.0080  0.00  0.00     0.000 C
ATOM      4  C4  BGC B   1      19.969   2.946 -19.3530  0.00  0.00     0.000 C
ATOM      5  C5  BGC B   1      18.823   2.092 -19.8770  0.00  0.00     0.000 C
ATOM      6  O5  BGC B   1      19.326   0.754 -20.0450  0.00  0.00     0.000 O
ATOM      7   O  BGC B   1      21.007   0.375 -16.8210  0.00  0.00     0.000 O
ATOM      9  HD  BGC B   1      21.338   0.903 -16.2200  0.00  0.00     0.000 HD
ATOM      9   O  BGC B   1      21.548   3.098 -17.5080  0.00  0.00     0.000 O
ATOM     11  HD  BGC B   1      21.879   3.627 -16.9070  0.00  0.00     0.000 HD
ATOM     11   O  BGC B   1      19.540   4.280 -19.1910  0.00  0.00     0.000 O
ATOM     13  HD  BGC B   1      19.871   4.809 -18.5900  0.00  0.00     0.000 HD
ATOM     13   C  BGC B   1      18.233   2.558 -21.2000  0.00  0.00     0.000 C
ATOM     14   O  BGC B   1      19.217   2.671 -22.2230  0.00  0.00     0.000 O
ATOM     16  HD  BGC B   1      19.548   3.200 -21.6220  0.00  0.00     0.000 HD
ENDROOT
BRANCH 1 16
ATOM     16  O4  BGC B   2      20.151  -1.137 -19.1220  0.00  0.00     0.000 O
BRANCH 16 20
ATOM     17  C1  BGC B   2      18.996  -5.019 -19.4830  0.00  0.00     0.000 C
ATOM     18  C2  BGC B   2      18.659  -4.166 -20.6970  0.00  0.00     0.000 C
ATOM     19  C3  BGC B   2      19.446  -2.861 -20.6060  0.00  0.00     0.000 C
ATOM     20  C4  BGC B   2      19.193  -2.181 -19.2750  0.00  0.00     0.000 C
ATOM     21  C5  BGC B   2      19.362  -3.135 -18.0920  0.00  0.00     0.000 C
ATOM     22  O5  BGC B   2      18.551  -4.294 -18.3220  0.00  0.00     0.000 O
ATOM     23   O  BGC B   2      19.027  -4.854 -21.9030  0.00  0.00     0.000 O
ATOM     25  HD  BGC B   2      19.385  -4.208 -21.4520  0.00  0.00     0.000 HD
ATOM     25   O  BGC B   2      19.080  -1.998 -21.6770  0.00  0.00     0.000 O
ATOM     27  HD  BGC B   2      19.438  -1.352 -21.2260  0.00  0.00     0.000 HD
ATOM     27   C  BGC B   2      18.929  -2.521 -16.7670  0.00  0.00     0.000 C
ATOM     28   O  BGC B   2      17.591  -2.050 -16.7760  0.00  0.00     0.000 O
ATOM     30  HD  BGC B   2      17.949  -1.404 -16.3250  0.00  0.00     0.000 HD
BRANCH 17 30
ATOM     30  O4  BGC B   3      18.167  -6.164 -19.5450  0.00  0.00     0.000 O
BRANCH 30 34
ATOM     31  C1  BGC B   3      18.063 -10.059 -18.2230  0.00  0.00     0.000 C
ATOM     32  C2  BGC B   3      18.230  -9.018 -17.1170  0.00  0.00     0.000 C
ATOM     33  C3  BGC B   3      17.857  -7.652 -17.6670  0.00  0.00     0.000 C
ATOM     34  C4  BGC B   3      18.683  -7.341 -18.9140  0.00  0.00     0.000 C
ATOM     35  C5  BGC B   3      18.584  -8.482 -19.9120  0.00  0.00     0.000 C
ATOM     36  O5  BGC B   3      18.953  -9.708 -19.2700  0.00  0.00     0.000 O
ATOM     37   O  BGC B   3      17.352  -9.325 -16.0370  0.00  0.00     0.000 O
ATOM     39  HD  BGC B   3      17.746  -8.716 -15.5640  0.00  0.00     0.000 HD
ATOM     39   O  BGC B   3      18.089  -6.682 -16.6570  0.00  0.00     0.000 O
ATOM     41  HD  BGC B   3      18.484  -6.073 -16.1840  0.00  0.00     0.000 HD
ATOM     41   C  BGC B   3      19.452  -8.298 -21.1510  0.00  0.00     0.000 C
ATOM     42   O  BGC B   3      20.802  -8.142 -20.7810  0.00  0.00     0.000 O
ATOM     44  HD  BGC B   3      21.196  -7.533 -20.3080  0.00  0.00     0.000 HD
BRANCH 31 44
ATOM     44  O4  BGC B   4      18.513 -11.286 -17.7100  0.00  0.00     0.000 O
BRANCH 44 48
ATOM     45  C1  BGC B   4      18.678 -15.232 -18.8080  0.00  0.00     0.000 C
ATOM     46  C2  BGC B   4      19.902 -14.412 -19.1910  0.00  0.00     0.000 C
ATOM     47  C3  BGC B   4      19.906 -13.121 -18.4110  0.00  0.00     0.000 C
ATOM     48  C4  BGC B   4      18.579 -12.379 -18.6040  0.00  0.00     0.000 C
ATOM     49  C5  BGC B   4      17.395 -13.303 -18.2970  0.00  0.00     0.000 C
ATOM     50  O5  BGC B   4      17.489 -14.493 -19.0940  0.00  0.00     0.000 O
ATOM     51   O  BGC B   4      21.103 -15.148 -18.8880  0.00  0.00     0.000 O
ATOM     53  HD  BGC B   4      21.102 -14.603 -18.2150  0.00  0.00     0.000 HD
ATOM     53   O  BGC B   4      20.990 -12.303 -18.8760  0.00  0.00     0.000 O
ATOM     55  HD  BGC B   4      20.990 -11.758 -18.2030  0.00  0.00     0.000 HD
ATOM     55   C  BGC B   4      16.033 -12.691 -18.5720  0.00  0.00     0.000 C
ATOM     56   O  BGC B   4      16.021 -12.251 -19.9310  0.00  0.00     0.000 O
ATOM     58  HD  BGC B   4      16.020 -11.706 -19.2580  0.00  0.00     0.000 HD
BRANCH 45 58
ATOM     58  O4  BGC B   5      18.607 -16.296 -19.7580  0.00  0.00     0.000 O
BRANCH 58 62
ATOM     59  C1  BGC B   5      17.645 -20.321 -19.8930  0.00  0.00     0.000 C
ATOM     60  C2  BGC B   5      16.527 -19.372 -20.2760  0.00  0.00     0.000 C
ATOM     61  C3  BGC B   5      17.082 -17.997 -20.5950  0.00  0.00     0.000 C
ATOM     62  C4  BGC B   5      17.914 -17.501 -19.4240  0.00  0.00     0.000 C
ATOM     63  C5  BGC B   5      18.975 -18.541 -19.0350  0.00  0.00     0.000 C
ATOM     64  O5  BGC B   5      18.327 -19.778 -18.7580  0.00  0.00     0.000 O
ATOM     65   O  BGC B   5      18.811 -17.960 -16.7690  0.00  0.00     0.000 O
ATOM     67  HD  BGC B   5      18.557 -17.313 -16.2530  0.00  0.00     0.000 HD
ATOM     67   O  BGC B   5      18.811 -17.960 -16.7690  0.00  0.00     0.000 O
ATOM     69  HD  BGC B   5      18.557 -17.313 -16.2530  0.00  0.00     0.000 HD
ENDBRANCH 58 62
ENDBRANCH 45 58
ENDBRANCH 44 48
ENDBRANCH 31 44
ENDBRANCH 30 34
ENDBRANCH 17 30
ENDBRANCH 16 20
ENDBRANCH 1 16
TORSDOF 8
ENDMDL
MODEL 68
REMARK VINA RESULT:      -7.2      9.822     23.165
ROOT
ATOM      1  C1  BGC B   1      20.437 -28.224 -20.3210  0.00  0.00     0.000 C
ATOM      2  C2  BGC B   1      21.333 -29.049 -19.3990  0.00  0.00     0.000 C
ATOM      3  C3  BGC B   1      21.452 -30.468 -19.9200  0.00  0.00     0.000 C
ATOM      4  C4  BGC B   1      20.074 -31.067 -20.1700  0.00  0.00     0.000 C
ATOM      5  C5  BGC B   1      19.311 -30.147 -21.1110  0.00  0.00     0.000 C
ATOM      6  O5  BGC B   1      19.180 -28.873 -20.4550  0.00  0.00     0.000 O
ATOM      7   O  BGC B   1      22.639 -28.451 -19.3510  0.00  0.00     0.000 O
ATOM      9  HD  BGC B   1      23.314 -28.970 -19.1880  0.00  0.00     0.000 HD
ATOM      9   O  BGC B   1      22.184 -31.249 -18.9710  0.00  0.00     0.000 O
ATOM     11  HD  BGC B   1      22.858 -31.768 -18.8080  0.00  0.00     0.000 HD
ATOM     11   O  BGC B   1      20.211 -32.345 -20.7520  0.00  0.00     0.000 O
ATOM     13  HD  BGC B   1      20.885 -32.864 -20.5890  0.00  0.00     0.000 HD
ATOM     13   C  BGC B   1      17.923 -30.637 -21.4980  0.00  0.00     0.000 C
ATOM     14   O  BGC B   1      17.105 -30.901 -20.3630  0.00  0.00     0.000 O
ATOM     16  HD  BGC B   1      17.779 -31.420 -20.1990  0.00  0.00     0.000 HD
ENDROOT
BRANCH 1 16
ATOM     16  O4  BGC B   2      20.156 -27.012 -19.6230  0.00  0.00     0.000 O
BRANCH 16 20
ATOM     17  C1  BGC B   2      18.755 -23.254 -20.2970  0.00  0.00     0.000 C
ATOM     18  C2  BGC B   2      17.659 -24.281 -20.0530  0.00  0.00     0.000 C
ATOM     19  C3  BGC B   2      18.294 -25.537 -19.4620  0.00  0.00     0.000 C
ATOM     20  C4  BGC B   2      19.422 -26.027 -20.3460  0.00  0.00     0.000 C
ATOM     21  C5  BGC B   2      20.397 -24.910 -20.7200  0.00  0.00     0.000 C
ATOM     22  O5  BGC B   2      19.651 -23.819 -21.2720  0.00  0.00     0.000 O
ATOM     23   O  BGC B   2      16.692 -23.761 -19.1250  0.00  0.00     0.000 O
ATOM     25  HD  BGC B   2      17.344 -24.326 -19.0540  0.00  0.00     0.000 HD
ATOM     25   O  BGC B   2      17.309 -26.553 -19.3110  0.00  0.00     0.000 O
ATOM     27  HD  BGC B   2      17.961 -27.118 -19.2390  0.00  0.00     0.000 HD
ATOM     27   C  BGC B   2      21.426 -25.342 -21.7580  0.00  0.00     0.000 C
ATOM     28   O  BGC B   2      20.845 -25.845 -22.9490  0.00  0.00     0.000 O
ATOM     30  HD  BGC B   2      21.497 -26.411 -22.8780  0.00  0.00     0.000 HD
BRANCH 17 30
ATOM     30  O4  BGC B   3      18.148 -22.153 -20.9470  0.00  0.00     0.000 O
BRANCH 30 34
ATOM     31  C1  BGC B   3      18.488 -18.061 -20.6950  0.00  0.00     0.000 C
ATOM     32  C2  BGC B   3      19.143 -18.677 -21.9300  0.00  0.00     0.000 C
ATOM     33  C3  BGC B   3      18.617 -20.090 -22.1130  0.00  0.00     0.000 C
ATOM     34  C4  BGC B   3      18.844 -20.907 -20.8410  0.00  0.00     0.000 C
ATOM     35  C5  BGC B   3      18.294 -20.169 -19.6330  0.00  0.00     0.000 C
ATOM     36  O5  BGC B   3      18.860 -18.855 -19.5800  0.00  0.00     0.000 O
ATOM     37   O  BGC B   3      18.797 -17.914 -23.0830  0.00  0.00     0.000 O
ATOM     39  HD  BGC B   3      19.375 -18.371 -23.5390  0.00  0.00     0.000 HD
ATOM     39   O  BGC B   3      19.288 -20.681 -23.2150  0.00  0.00     0.000 O
ATOM     41  HD  BGC B   3      19.866 -21.138 -23.6700  0.00  0.00     0.000 HD
ATOM     41   C  BGC B   3      18.558 -20.871 -18.3060  0.00  0.00     0.000 C
ATOM     42   O  BGC B   3      19.941 -21.059 -18.1230  0.00  0.00     0.000 O
ATOM     44  HD  BGC B   3      20.519 -21.516 -18.5790  0.00  0.00     0.000 HD
BRANCH 31 44
ATOM     44  O4  BGC B   4      19.073 -16.799 -20.5000  0.00  0.00     0.000 O
BRANCH 44 48
ATOM     45  C1  BGC B   4      18.153 -13.029 -19.1800  0.00  0.00     0.000 C
ATOM     46  C2  BGC B   4      17.930 -14.134 -18.1580  0.00  0.00     0.000 C
ATOM     47  C3  BGC B   4      18.655 -15.382 -18.5990  0.00  0.00     0.000 C
ATOM     48  C4  BGC B   4      18.239 -15.763 -20.0240  0.00  0.00     0.000 C
ATOM     49  C5  BGC B   4      18.398 -14.566 -20.9700  0.00  0.00     0.000 C
ATOM     50  O5  BGC B   4      17.667 -13.443 -20.4570  0.00  0.00     0.000 O
ATOM     51   O  BGC B   4      18.435 -13.727 -16.8720  0.00  0.00     0.000 O
ATOM     53  HD  BGC B   4      19.081 -14.252 -17.1130  0.00  0.00     0.000 HD
ATOM     53   O  BGC B   4      18.329 -16.450 -17.6980  0.00  0.00     0.000 O
ATOM     55  HD  BGC B   4      18.975 -16.974 -17.9390  0.00  0.00     0.000 HD
ATOM     55   C  BGC B   4      17.900 -14.813 -22.3830  0.00  0.00     0.000 C
ATOM     56   O  BGC B   4      16.539 -15.241 -22.2960  0.00  0.00     0.000 O
ATOM     58  HD  BGC B   4      17.185 -15.765 -22.5370  0.00  0.00     0.000 HD
BRANCH 45 58
ATOM     58  O4  BGC B   5      17.243 -11.986 -18.8330  0.00  0.00     0.000 O
BRANCH 58 62
ATOM     59  C1  BGC B   5      16.844  -7.872 -19.0850  0.00  0.00     0.000 C
ATOM     60  C2  BGC B   5      17.552  -8.529 -20.2530  0.00  0.00     0.000 C
ATOM     61  C3  BGC B   5      17.280 -10.021 -20.2690  0.00  0.00     0.000 C
ATOM     62  C4  BGC B   5      17.658 -10.621 -18.9240  0.00  0.00     0.000 C
ATOM     63  C5  BGC B   5      16.971  -9.861 -17.7800  0.00  0.00     0.000 C
ATOM     64  O5  BGC B   5      17.309  -8.481 -17.8770  0.00  0.00     0.000 O
ATOM     65   O  BGC B   5      18.807 -10.201 -16.3610  0.00  0.00     0.000 O
ATOM     67  HD  BGC B   5      19.493 -10.718 -16.2540  0.00  0.00     0.000 HD
ATOM     67   O  BGC B   5      18.807 -10.201 -16.3610  0.00  0.00     0.000 O
ATOM     69  HD  BGC B   5      19.493 -10.718 -16.2540  0.00  0.00     0.000 HD
ENDBRANCH 58 62
ENDBRANCH 45 58
ENDBRANCH 44 48
ENDBRANCH 31 44
ENDBRANCH 30 34
ENDBRANCH 17 30
ENDBRANCH 16 20
ENDBRANCH 1 16
TORSDOF 8
ENDMDL
MODEL 69
REMARK VINA RESULT:      -7.2      5.652     17.721
ROOT
ATOM      1  C1  BGC B   1      18.341 -17.378 -26.1330  0.00  0.00     0.000 C
ATOM      2  C2  BGC B   1      18.721 -18.850 -25.9830  0.00  0.00     0.000 C
ATOM      3  C3  BGC B   1      18.923 -19.477 -27.3490  0.00  0.00     0.000 C
ATOM      4  C4  BGC B   1      17.718 -19.220 -28.2440  0.00  0.00     0.000 C
ATOM      5  C5  BGC B   1      17.475 -17.719 -28.3060  0.00  0.00     0.000 C
ATOM      6  O5  BGC B   1      17.196 -17.272 -26.9670  0.00  0.00     0.000 O
ATOM      7   O  BGC B   1      19.943 -18.949 -25.2310  0.00  0.00     0.000 O
ATOM      9  HD  BGC B   1      20.450 -19.636 -25.3760  0.00  0.00     0.000 HD
ATOM      9   O  BGC B   1      19.146 -20.881 -27.1850  0.00  0.00     0.000 O
ATOM     11  HD  BGC B   1      19.653 -21.568 -27.3300  0.00  0.00     0.000 HD
ATOM     11   O  BGC B   1      17.973 -19.720 -29.5380  0.00  0.00     0.000 O
ATOM     13  HD  BGC B   1      18.480 -20.407 -29.6830  0.00  0.00     0.000 HD
ATOM     13   C  BGC B   1      16.325 -17.295 -29.2080  0.00  0.00     0.000 C
ATOM     14   O  BGC B   1      15.101 -17.937 -28.8630  0.00  0.00     0.000 O
ATOM     16  HD  BGC B   1      15.608 -18.624 -29.0080  0.00  0.00     0.000 HD
ENDROOT
BRANCH 1 16
ATOM     16  O4  BGC B   2      17.905 -16.947 -24.8450  0.00  0.00     0.000 O
BRANCH 16 20
ATOM     17  C1  BGC B   2      17.865 -13.698 -22.4000  0.00  0.00     0.000 C
ATOM     18  C2  BGC B   2      17.014 -13.533 -23.6500  0.00  0.00     0.000 C
ATOM     19  C3  BGC B   2      16.813 -14.907 -24.2850  0.00  0.00     0.000 C
ATOM     20  C4  BGC B   2      18.149 -15.580 -24.5250  0.00  0.00     0.000 C
ATOM     21  C5  BGC B   2      19.046 -15.552 -23.2870  0.00  0.00     0.000 C
ATOM     22  O5  BGC B   2      19.146 -14.199 -22.8260  0.00  0.00     0.000 O
ATOM     23   O  BGC B   2      15.732 -12.982 -23.3050  0.00  0.00     0.000 O
ATOM     25  HD  BGC B   2      16.005 -13.779 -23.5030  0.00  0.00     0.000 HD
ATOM     25   O  BGC B   2      16.100 -14.775 -25.5090  0.00  0.00     0.000 O
ATOM     27  HD  BGC B   2      16.373 -15.572 -25.7070  0.00  0.00     0.000 HD
ATOM     27   C  BGC B   2      20.458 -16.053 -23.5650  0.00  0.00     0.000 C
ATOM     28   O  BGC B   2      21.110 -15.346 -24.6070  0.00  0.00     0.000 O
ATOM     30  HD  BGC B   2      21.383 -16.143 -24.8060  0.00  0.00     0.000 HD
BRANCH 17 30
ATOM     30  O4  BGC B   3      18.123 -12.397 -21.9050  0.00  0.00     0.000 O
BRANCH 30 34
ATOM     31  C1  BGC B   3      18.901 -10.531 -18.3220  0.00  0.00     0.000 C
ATOM     32  C2  BGC B   3      19.625 -11.862 -18.5150  0.00  0.00     0.000 C
ATOM     33  C3  BGC B   3      19.581 -12.238 -19.9850  0.00  0.00     0.000 C
ATOM     34  C4  BGC B   3      18.135 -12.264 -20.4800  0.00  0.00     0.000 C
ATOM     35  C5  BGC B   3      17.433 -10.965 -20.1290  0.00  0.00     0.000 C
ATOM     36  O5  BGC B   3      17.554 -10.722 -18.7240  0.00  0.00     0.000 O
ATOM     37   O  BGC B   3      20.990 -11.722 -18.1260  0.00  0.00     0.000 O
ATOM     39  HD  BGC B   3      21.082 -12.580 -18.1970  0.00  0.00     0.000 HD
ATOM     39   O  BGC B   3      20.187 -13.512 -20.1420  0.00  0.00     0.000 O
ATOM     41  HD  BGC B   3      20.279 -14.370 -20.2140  0.00  0.00     0.000 HD
ATOM     41   C  BGC B   3      15.956 -10.938 -20.5050  0.00  0.00     0.000 C
ATOM     42   O  BGC B   3      15.275 -11.998 -19.8770  0.00  0.00     0.000 O
ATOM     44  HD  BGC B   3      15.367 -12.856 -19.9480  0.00  0.00     0.000 HD
BRANCH 31 44
ATOM     44  O4  BGC B   4      18.873 -10.268 -16.9430  0.00  0.00     0.000 O
BRANCH 44 48
ATOM     45  C1  BGC B   4      19.527  -7.069 -14.4630  0.00  0.00     0.000 C
ATOM     46  C2  BGC B   4      18.061  -7.382 -14.7290  0.00  0.00     0.000 C
ATOM     47  C3  BGC B   4      17.939  -8.770 -15.3060  0.00  0.00     0.000 C
ATOM     48  C4  BGC B   4      18.835  -8.914 -16.5400  0.00  0.00     0.000 C
ATOM     49  C5  BGC B   4      20.271  -8.484 -16.2170  0.00  0.00     0.000 C
ATOM     50  O5  BGC B   4      20.269  -7.152 -15.6810  0.00  0.00     0.000 O
ATOM     51   O  BGC B   4      17.312  -7.316 -13.5000  0.00  0.00     0.000 O
ATOM     53  HD  BGC B   4      17.379  -8.176 -13.5740  0.00  0.00     0.000 HD
ATOM     53   O  BGC B   4      16.571  -9.000 -15.6720  0.00  0.00     0.000 O
ATOM     55  HD  BGC B   4      16.638  -9.860 -15.7460  0.00  0.00     0.000 HD
ATOM     55   C  BGC B   4      21.209  -8.481 -17.4100  0.00  0.00     0.000 C
ATOM     56   O  BGC B   4      20.626  -7.656 -18.4200  0.00  0.00     0.000 O
ATOM     58  HD  BGC B   4      20.694  -8.516 -18.4940  0.00  0.00     0.000 HD
BRANCH 45 58
ATOM     58  O4  BGC B   5      19.583  -5.674 -14.1700  0.00  0.00     0.000 O
BRANCH 58 62
ATOM     59  C1  BGC B   5      22.252  -2.686 -13.1240  0.00  0.00     0.000 C
ATOM     60  C2  BGC B   5      22.721  -3.623 -14.2180  0.00  0.00     0.000 C
ATOM     61  C3  BGC B   5      21.550  -4.388 -14.8030  0.00  0.00     0.000 C
ATOM     62  C4  BGC B   5      20.799  -5.098 -13.6880  0.00  0.00     0.000 C
ATOM     63  C5  BGC B   5      20.422  -4.109 -12.5750  0.00  0.00     0.000 C
ATOM     64  O5  BGC B   5      21.604  -3.464 -12.1120  0.00  0.00     0.000 O
ATOM     65   O  BGC B   5      20.688  -5.756 -10.9280  0.00  0.00     0.000 O
ATOM     67  HD  BGC B   5      20.701  -6.616 -10.8260  0.00  0.00     0.000 HD
ATOM     67   O  BGC B   5      20.688  -5.756 -10.9280  0.00  0.00     0.000 O
ATOM     69  HD  BGC B   5      20.701  -6.616 -10.8260  0.00  0.00     0.000 HD
ENDBRANCH 58 62
ENDBRANCH 45 58
ENDBRANCH 44 48
ENDBRANCH 31 44
ENDBRANCH 30 34
ENDBRANCH 17 30
ENDBRANCH 16 20
ENDBRANCH 1 16
TORSDOF 8
ENDMDL
MODEL 70
REMARK VINA RESULT:      -7.2      3.621      8.609
ROOT
ATOM      1  C1  BGC B   1      15.332  11.350  -9.2290  0.00  0.00     0.000 C
ATOM      2  C2  BGC B   1      14.959  11.652  -7.7790  0.00  0.00     0.000 C
ATOM      3  C3  BGC B   1      13.947  12.780  -7.7250  0.00  0.00     0.000 C
ATOM      4  C4  BGC B   1      14.440  13.984  -8.5190  0.00  0.00     0.000 C
ATOM      5  C5  BGC B   1      14.754  13.531  -9.9370  0.00  0.00     0.000 C
ATOM      6  O5  BGC B   1      15.795  12.541  -9.8510  0.00  0.00     0.000 O
ATOM      7   O  BGC B   1      14.388  10.475  -7.1830  0.00  0.00     0.000 O
ATOM      9  HD  BGC B   1      13.822  10.586  -6.5360  0.00  0.00     0.000 HD
ATOM      9   O  BGC B   1      13.717  13.130  -6.3580  0.00  0.00     0.000 O
ATOM     11  HD  BGC B   1      13.152  13.241  -5.7110  0.00  0.00     0.000 HD
ATOM     11   O  BGC B   1      13.438  14.978  -8.5420  0.00  0.00     0.000 O
ATOM     13  HD  BGC B   1      12.873  15.088  -7.8950  0.00  0.00     0.000 HD
ATOM     13   C  BGC B   1      15.215  14.638 -10.8740  0.00  0.00     0.000 C
ATOM     14   O  BGC B   1      16.342  15.345 -10.3640  0.00  0.00     0.000 O
ATOM     16  HD  BGC B   1      15.777  15.456  -9.7170  0.00  0.00     0.000 HD
ENDROOT
BRANCH 1 16
ATOM     16  O4  BGC B   2      16.470  10.491  -9.1770  0.00  0.00     0.000 O
BRANCH 16 20
ATOM     17  C1  BGC B   2      18.118   7.338 -11.1470  0.00  0.00     0.000 C
ATOM     18  C2  BGC B   2      18.486   8.690 -11.7400  0.00  0.00     0.000 C
ATOM     19  C3  BGC B   2      18.127   9.777 -10.7300  0.00  0.00     0.000 C
ATOM     20  C4  BGC B   2      16.677   9.654 -10.3120  0.00  0.00     0.000 C
ATOM     21  C5  BGC B   2      16.307   8.228  -9.9030  0.00  0.00     0.000 C
ATOM     22  O5  BGC B   2      16.691   7.336 -10.9570  0.00  0.00     0.000 O
ATOM     23   O  BGC B   2      19.897   8.744 -12.0090  0.00  0.00     0.000 O
ATOM     25  HD  BGC B   2      19.396   9.069 -11.3820  0.00  0.00     0.000 HD
ATOM     25   O  BGC B   2      18.371  11.061 -11.2930  0.00  0.00     0.000 O
ATOM     27  HD  BGC B   2      17.870  11.386 -10.6660  0.00  0.00     0.000 HD
ATOM     27   C  BGC B   2      14.813   8.047  -9.6630  0.00  0.00     0.000 C
ATOM     28   O  BGC B   2      14.016   8.414 -10.7770  0.00  0.00     0.000 O
ATOM     30  HD  BGC B   2      13.515   8.739 -10.1500  0.00  0.00     0.000 HD
BRANCH 17 30
ATOM     30  O4  BGC B   3      18.358   6.371 -12.1510  0.00  0.00     0.000 O
BRANCH 30 34
ATOM     31  C1  BGC B   3      18.279   2.281 -12.5940  0.00  0.00     0.000 C
ATOM     32  C2  BGC B   3      17.144   2.849 -11.7430  0.00  0.00     0.000 C
ATOM     33  C3  BGC B   3      17.051   4.346 -11.9840  0.00  0.00     0.000 C
ATOM     34  C4  BGC B   3      18.399   5.010 -11.7080  0.00  0.00     0.000 C
ATOM     35  C5  BGC B   3      19.503   4.305 -12.4760  0.00  0.00     0.000 C
ATOM     36  O5  BGC B   3      19.479   2.907 -12.1680  0.00  0.00     0.000 O
ATOM     37   O  BGC B   3      15.910   2.252 -12.1350  0.00  0.00     0.000 O
ATOM     39  HD  BGC B   3      15.532   2.622 -11.4500  0.00  0.00     0.000 HD
ATOM     39   O  BGC B   3      16.046   4.877 -11.1330  0.00  0.00     0.000 O
ATOM     41  HD  BGC B   3      15.668   5.247 -10.4470  0.00  0.00     0.000 HD
ATOM     41   C  BGC B   3      20.900   4.845 -12.1890  0.00  0.00     0.000 C
ATOM     42   O  BGC B   3      21.182   4.753 -10.8120  0.00  0.00     0.000 O
ATOM     44  HD  BGC B   3      20.804   5.123 -10.1270  0.00  0.00     0.000 HD
BRANCH 31 44
ATOM     44  O4  BGC B   4      18.401   0.920 -12.2690  0.00  0.00     0.000 O
BRANCH 44 48
ATOM     45  C1  BGC B   4      19.424  -2.627 -14.0510  0.00  0.00     0.000 C
ATOM     46  C2  BGC B   4      20.588  -1.862 -13.4390  0.00  0.00     0.000 C
ATOM     47  C3  BGC B   4      20.059  -0.810 -12.4950  0.00  0.00     0.000 C
ATOM     48  C4  BGC B   4      19.040   0.082 -13.2110  0.00  0.00     0.000 C
ATOM     49  C5  BGC B   4      17.958  -0.769 -13.8860  0.00  0.00     0.000 C
ATOM     50  O5  BGC B   4      18.571  -1.727 -14.7610  0.00  0.00     0.000 O
ATOM     51   O  BGC B   4      21.441  -2.763 -12.7080  0.00  0.00     0.000 O
ATOM     53  HD  BGC B   4      21.018  -2.404 -12.0420  0.00  0.00     0.000 HD
ATOM     53   O  BGC B   4      21.156  -0.013 -12.0270  0.00  0.00     0.000 O
ATOM     55  HD  BGC B   4      20.734   0.345 -11.3620  0.00  0.00     0.000 HD
ATOM     55   C  BGC B   4      16.966   0.022 -14.7190  0.00  0.00     0.000 C
ATOM     56   O  BGC B   4      17.709   0.785 -15.6720  0.00  0.00     0.000 O
ATOM     58  HD  BGC B   4      17.286   1.143 -15.0070  0.00  0.00     0.000 HD
BRANCH 45 58
ATOM     58  O4  BGC B   5      19.982  -3.410 -15.1060  0.00  0.00     0.000 O
BRANCH 58 62
ATOM     59  C1  BGC B   5      19.751  -7.153 -16.8610  0.00  0.00     0.000 C
ATOM     60  C2  BGC B   5      18.564  -6.244 -17.1100  0.00  0.00     0.000 C
ATOM     61  C3  BGC B   5      18.921  -4.804 -16.7950  0.00  0.00     0.000 C
ATOM     62  C4  BGC B   5      19.459  -4.713 -15.3760  0.00  0.00     0.000 C
ATOM     63  C5  BGC B   5      20.605  -5.713 -15.1670  0.00  0.00     0.000 C
ATOM     64  O5  BGC B   5      20.141  -7.019 -15.4910  0.00  0.00     0.000 O
ATOM     65   O  BGC B   5      19.986  -6.059 -12.9320  0.00  0.00     0.000 O
ATOM     67  HD  BGC B   5      19.546  -5.685 -12.2860  0.00  0.00     0.000 HD
ATOM     67   O  BGC B   5      19.986  -6.059 -12.9320  0.00  0.00     0.000 O
ATOM     69  HD  BGC B   5      19.546  -5.685 -12.2860  0.00  0.00     0.000 HD
ENDBRANCH 58 62
ENDBRANCH 45 58
ENDBRANCH 44 48
ENDBRANCH 31 44
ENDBRANCH 30 34
ENDBRANCH 17 30
ENDBRANCH 16 20
ENDBRANCH 1 16
TORSDOF 8
ENDMDL
MODEL 71
REMARK VINA RESULT:      -7.2      3.114     14.621
ROOT
ATOM      1  C1  BGC B   1      21.818 -11.095 -16.5520  0.00  0.00     0.000 C
ATOM      2  C2  BGC B   1      22.786 -11.961 -15.7480  0.00  0.00     0.000 C
ATOM      3  C3  BGC B   1      23.080 -13.247 -16.4950  0.00  0.00     0.000 C
ATOM      4  C4  BGC B   1      21.787 -13.945 -16.8960  0.00  0.00     0.000 C
ATOM      5  C5  BGC B   1      20.941 -12.968 -17.6990  0.00  0.00     0.000 C
ATOM      6  O5  BGC B   1      20.649 -11.848 -16.8440  0.00  0.00     0.000 O
ATOM      7   O  BGC B   1      24.013 -11.239 -15.5480  0.00  0.00     0.000 O
ATOM      9  HD  BGC B   1      24.740 -11.699 -15.4480  0.00  0.00     0.000 HD
ATOM      9   O  BGC B   1      23.879 -14.094 -15.6630  0.00  0.00     0.000 O
ATOM     11  HD  BGC B   1      24.606 -14.554 -15.5630  0.00  0.00     0.000 HD
ATOM     11   O  BGC B   1      22.084 -15.080 -17.6800  0.00  0.00     0.000 O
ATOM     13  HD  BGC B   1      22.810 -15.541 -17.5800  0.00  0.00     0.000 HD
ATOM     13   C  BGC B   1      19.627 -13.536 -18.2180  0.00  0.00     0.000 C
ATOM     14   O  BGC B   1      18.823 -14.081 -17.1760  0.00  0.00     0.000 O
ATOM     16  HD  BGC B   1      19.550 -14.541 -17.0760  0.00  0.00     0.000 HD
ENDROOT
BRANCH 1 16
ATOM     16  O4  BGC B   2      21.385 -10.060 -15.6730  0.00  0.00     0.000 O
BRANCH 16 20
ATOM     17  C1  BGC B   2      20.182  -6.175 -15.7070  0.00  0.00     0.000 C
ATOM     18  C2  BGC B   2      19.086  -7.158 -16.0940  0.00  0.00     0.000 C
ATOM     19  C3  BGC B   2      19.533  -8.563 -15.6970  0.00  0.00     0.000 C
ATOM     20  C4  BGC B   2      20.890  -8.876 -16.2930  0.00  0.00     0.000 C
ATOM     21  C5  BGC B   2      21.909  -7.764 -16.0370  0.00  0.00     0.000 C
ATOM     22  O5  BGC B   2      21.348  -6.521 -16.4770  0.00  0.00     0.000 O
ATOM     23   O  BGC B   2      17.869  -6.838 -15.4010  0.00  0.00     0.000 O
ATOM     25  HD  BGC B   2      18.478  -7.443 -15.2880  0.00  0.00     0.000 HD
ATOM     25   O  BGC B   2      18.572  -9.518 -16.1320  0.00  0.00     0.000 O
ATOM     27  HD  BGC B   2      19.182 -10.123 -16.0190  0.00  0.00     0.000 HD
ATOM     27   C  BGC B   2      23.218  -7.974 -16.7880  0.00  0.00     0.000 C
ATOM     28   O  BGC B   2      23.047  -8.111 -18.1900  0.00  0.00     0.000 O
ATOM     30  HD  BGC B   2      23.656  -8.716 -18.0770  0.00  0.00     0.000 HD
BRANCH 17 30
ATOM     30  O4  BGC B   3      19.783  -4.907 -16.1900  0.00  0.00     0.000 O
BRANCH 30 34
ATOM     31  C1  BGC B   3      20.193  -0.922 -15.2500  0.00  0.00     0.000 C
ATOM     32  C2  BGC B   3      21.431  -1.555 -15.8840  0.00  0.00     0.000 C
ATOM     33  C3  BGC B   3      21.032  -2.868 -16.5360  0.00  0.00     0.000 C
ATOM     34  C4  BGC B   3      20.348  -3.778 -15.5160  0.00  0.00     0.000 C
ATOM     35  C5  BGC B   3      19.219  -3.038 -14.8220  0.00  0.00     0.000 C
ATOM     36  O5  BGC B   3      19.721  -1.822 -14.2590  0.00  0.00     0.000 O
ATOM     37   O  BGC B   3      21.944  -0.688 -16.8930  0.00  0.00     0.000 O
ATOM     39  HD  BGC B   3      22.644  -1.195 -16.9500  0.00  0.00     0.000 HD
ATOM     39   O  BGC B   3      22.201  -3.485 -17.0550  0.00  0.00     0.000 O
ATOM     41  HD  BGC B   3      22.900  -3.993 -17.1110  0.00  0.00     0.000 HD
ATOM     41   C  BGC B   3      18.537  -3.842 -13.7200  0.00  0.00     0.000 C
ATOM     42   O  BGC B   3      19.479  -4.232 -12.7500  0.00  0.00     0.000 O
ATOM     44  HD  BGC B   3      20.179  -4.739 -12.8060  0.00  0.00     0.000 HD
BRANCH 31 44
ATOM     44  O4  BGC B   4      20.617   0.232 -14.5720  0.00  0.00     0.000 O
BRANCH 44 48
ATOM     45  C1  BGC B   4      19.288   3.948 -13.4620  0.00  0.00     0.000 C
ATOM     46  C2  BGC B   4      18.483   2.787 -12.8950  0.00  0.00     0.000 C
ATOM     47  C3  BGC B   4      19.274   1.510 -13.0360  0.00  0.00     0.000 C
ATOM     48  C4  BGC B   4      19.707   1.310 -14.4920  0.00  0.00     0.000 C
ATOM     49  C5  BGC B   4      20.421   2.561 -15.0190  0.00  0.00     0.000 C
ATOM     50  O5  BGC B   4      19.579   3.710 -14.8400  0.00  0.00     0.000 O
ATOM     51   O  BGC B   4      18.203   3.015 -11.5010  0.00  0.00     0.000 O
ATOM     53  HD  BGC B   4      18.848   2.443 -11.4200  0.00  0.00     0.000 HD
ATOM     53   O  BGC B   4      18.453   0.409 -12.6200  0.00  0.00     0.000 O
ATOM     55  HD  BGC B   4      19.099  -0.162 -12.5380  0.00  0.00     0.000 HD
ATOM     55   C  BGC B   4      20.785   2.503 -16.4910  0.00  0.00     0.000 C
ATOM     56   O  BGC B   4      19.590   2.228 -17.2250  0.00  0.00     0.000 O
ATOM     58  HD  BGC B   4      20.236   1.657 -17.1430  0.00  0.00     0.000 HD
BRANCH 45 58
ATOM     58  O4  BGC B   5      18.387   5.052 -13.5290  0.00  0.00     0.000 O
BRANCH 58 62
ATOM     59  C1  BGC B   5      18.179   9.146 -12.9400  0.00  0.00     0.000 C
ATOM     60  C2  BGC B   5      19.143   8.692 -14.0180  0.00  0.00     0.000 C
ATOM     61  C3  BGC B   5      18.844   7.265 -14.4340  0.00  0.00     0.000 C
ATOM     62  C4  BGC B   5      18.849   6.366 -13.2080  0.00  0.00     0.000 C
ATOM     63  C5  BGC B   5      17.915   6.924 -12.1240  0.00  0.00     0.000 C
ATOM     64  O5  BGC B   5      18.304   8.260 -11.8240  0.00  0.00     0.000 O
ATOM     65   O  BGC B   5      19.317   6.142 -10.4160  0.00  0.00     0.000 O
ATOM     67  HD  BGC B   5      19.939   5.558 -10.2650  0.00  0.00     0.000 HD
ATOM     67   O  BGC B   5      19.317   6.142 -10.4160  0.00  0.00     0.000 O
ATOM     69  HD  BGC B   5      19.939   5.558 -10.2650  0.00  0.00     0.000 HD
ENDBRANCH 58 62
ENDBRANCH 45 58
ENDBRANCH 44 48
ENDBRANCH 31 44
ENDBRANCH 30 34
ENDBRANCH 17 30
ENDBRANCH 16 20
ENDBRANCH 1 16
TORSDOF 8
ENDMDL
MODEL 72
REMARK VINA RESULT:      -7.1      7.385     14.722
ROOT
ATOM      1  C1  BGC B   1      19.277  -9.101 -16.1980  0.00  0.00     0.000 C
ATOM      2  C2  BGC B   1      18.160  -8.687 -15.2410  0.00  0.00     0.000 C
ATOM      3  C3  BGC B   1      18.341  -7.240 -14.8250  0.00  0.00     0.000 C
ATOM      4  C4  BGC B   1      19.750  -7.003 -14.2960  0.00  0.00     0.000 C
ATOM      5  C5  BGC B   1      20.744  -7.447 -15.3590  0.00  0.00     0.000 C
ATOM      6  O5  BGC B   1      20.534  -8.853 -15.5840  0.00  0.00     0.000 O
ATOM      7   O  BGC B   1      16.892  -8.833 -15.9030  0.00  0.00     0.000 O
ATOM      9  HD  BGC B   1      16.243  -8.320 -15.6470  0.00  0.00     0.000 HD
ATOM      9   O  BGC B   1      17.363  -6.919 -13.8310  0.00  0.00     0.000 O
ATOM     11  HD  BGC B   1      16.713  -6.406 -13.5750  0.00  0.00     0.000 HD
ATOM     11   O  BGC B   1      19.926  -5.632 -14.0140  0.00  0.00     0.000 O
ATOM     13  HD  BGC B   1      19.277  -5.119 -13.7590  0.00  0.00     0.000 HD
ATOM     13   C  BGC B   1      22.206  -7.228 -14.9970  0.00  0.00     0.000 C
ATOM     14   O  BGC B   1      22.558  -7.845 -13.7620  0.00  0.00     0.000 O
ATOM     16  HD  BGC B   1      21.908  -7.332 -13.5070  0.00  0.00     0.000 HD
ENDROOT
BRANCH 1 16
ATOM     16  O4  BGC B   2      19.194 -10.520 -16.3160  0.00  0.00     0.000 O
BRANCH 16 20
ATOM     17  C1  BGC B   2      19.379 -13.500 -19.0760  0.00  0.00     0.000 C
ATOM     18  C2  BGC B   2      20.737 -12.916 -18.7160  0.00  0.00     0.000 C
ATOM     19  C3  BGC B   2      20.586 -12.091 -17.4400  0.00  0.00     0.000 C
ATOM     20  C4  BGC B   2      19.487 -11.061 -17.6010  0.00  0.00     0.000 C
ATOM     21  C5  BGC B   2      18.195 -11.668 -18.1480  0.00  0.00     0.000 C
ATOM     22  O5  BGC B   2      18.502 -12.391 -19.3470  0.00  0.00     0.000 O
ATOM     23   O  BGC B   2      21.683 -13.972 -18.4840  0.00  0.00     0.000 O
ATOM     25  HD  BGC B   2      21.233 -13.449 -17.9610  0.00  0.00     0.000 HD
ATOM     25   O  BGC B   2      21.818 -11.452 -17.1280  0.00  0.00     0.000 O
ATOM     27  HD  BGC B   2      21.368 -10.928 -16.6050  0.00  0.00     0.000 HD
ATOM     27   C  BGC B   2      17.145 -10.620 -18.4950  0.00  0.00     0.000 C
ATOM     28   O  BGC B   2      17.607  -9.645 -19.4160  0.00  0.00     0.000 O
ATOM     30  HD  BGC B   2      17.157  -9.122 -18.8930  0.00  0.00     0.000 HD
BRANCH 17 30
ATOM     30  O4  BGC B   3      19.534 -14.160 -20.3180  0.00  0.00     0.000 O
BRANCH 30 34
ATOM     31  C1  BGC B   3      18.233 -17.546 -22.2600  0.00  0.00     0.000 C
ATOM     32  C2  BGC B   3      17.190 -16.434 -22.1560  0.00  0.00     0.000 C
ATOM     33  C3  BGC B   3      17.891 -15.135 -21.7970  0.00  0.00     0.000 C
ATOM     34  C4  BGC B   3      18.709 -15.312 -20.5180  0.00  0.00     0.000 C
ATOM     35  C5  BGC B   3      19.621 -16.521 -20.6380  0.00  0.00     0.000 C
ATOM     36  O5  BGC B   3      18.843 -17.671 -20.9850  0.00  0.00     0.000 O
ATOM     37   O  BGC B   3      16.547 -16.265 -23.4170  0.00  0.00     0.000 O
ATOM     39  HD  BGC B   3      15.976 -15.736 -23.0370  0.00  0.00     0.000 HD
ATOM     39   O  BGC B   3      16.908 -14.126 -21.6260  0.00  0.00     0.000 O
ATOM     41  HD  BGC B   3      16.337 -13.596 -21.2460  0.00  0.00     0.000 HD
ATOM     41   C  BGC B   3      20.411 -16.829 -19.3700  0.00  0.00     0.000 C
ATOM     42   O  BGC B   3      19.532 -17.035 -18.2890  0.00  0.00     0.000 O
ATOM     44  HD  BGC B   3      18.962 -16.506 -17.9090  0.00  0.00     0.000 HD
BRANCH 31 44
ATOM     44  O4  BGC B   4      17.540 -18.745 -22.4910  0.00  0.00     0.000 O
BRANCH 44 48
ATOM     45  C1  BGC B   4      17.974 -22.286 -24.5100  0.00  0.00     0.000 C
ATOM     46  C2  BGC B   4      18.635 -22.248 -23.1400  0.00  0.00     0.000 C
ATOM     47  C3  BGC B   4      18.089 -21.085 -22.3490  0.00  0.00     0.000 C
ATOM     48  C4  BGC B   4      18.239 -19.784 -23.1450  0.00  0.00     0.000 C
ATOM     49  C5  BGC B   4      17.639 -19.938 -24.5480  0.00  0.00     0.000 C
ATOM     50  O5  BGC B   4      18.231 -21.067 -25.2080  0.00  0.00     0.000 O
ATOM     51   O  BGC B   4      18.363 -23.470 -22.4270  0.00  0.00     0.000 O
ATOM     53  HD  BGC B   4      17.796 -22.950 -22.0290  0.00  0.00     0.000 HD
ATOM     53   O  BGC B   4      18.813 -20.984 -21.1150  0.00  0.00     0.000 O
ATOM     55  HD  BGC B   4      18.246 -20.464 -20.7170  0.00  0.00     0.000 HD
ATOM     55   C  BGC B   4      17.844 -18.737 -25.4530  0.00  0.00     0.000 C
ATOM     56   O  BGC B   4      19.245 -18.465 -25.5060  0.00  0.00     0.000 O
ATOM     58  HD  BGC B   4      18.678 -17.945 -25.1080  0.00  0.00     0.000 HD
BRANCH 45 58
ATOM     58  O4  BGC B   5      18.716 -23.235 -25.2760  0.00  0.00     0.000 O
BRANCH 58 62
ATOM     59  C1  BGC B   5      18.255 -26.146 -28.1850  0.00  0.00     0.000 C
ATOM     60  C2  BGC B   5      17.587 -24.819 -28.4820  0.00  0.00     0.000 C
ATOM     61  C3  BGC B   5      18.151 -23.728 -27.5910  0.00  0.00     0.000 C
ATOM     62  C4  BGC B   5      18.028 -24.147 -26.1350  0.00  0.00     0.000 C
ATOM     63  C5  BGC B   5      18.652 -25.533 -25.9170  0.00  0.00     0.000 C
ATOM     64  O5  BGC B   5      18.036 -26.460 -26.8050  0.00  0.00     0.000 O
ATOM     65   O  BGC B   5      17.063 -26.066 -24.2770  0.00  0.00     0.000 O
ATOM     67  HD  BGC B   5      16.508 -25.693 -23.7270  0.00  0.00     0.000 HD
ATOM     67   O  BGC B   5      17.063 -26.066 -24.2770  0.00  0.00     0.000 O
ATOM     69  HD  BGC B   5      16.508 -25.693 -23.7270  0.00  0.00     0.000 HD
ENDBRANCH 58 62
ENDBRANCH 45 58
ENDBRANCH 44 48
ENDBRANCH 31 44
ENDBRANCH 30 34
ENDBRANCH 17 30
ENDBRANCH 16 20
ENDBRANCH 1 16
TORSDOF 8
ENDMDL
MODEL 73
REMARK VINA RESULT:      -7.1      9.355     23.023
ROOT
ATOM      1  C1  BGC B   1      17.716 -27.150 -23.8520  0.00  0.00     0.000 C
ATOM      2  C2  BGC B   1      16.507 -28.077 -23.7340  0.00  0.00     0.000 C
ATOM      3  C3  BGC B   1      16.876 -29.474 -24.1940  0.00  0.00     0.000 C
ATOM      4  C4  BGC B   1      17.515 -29.436 -25.5770  0.00  0.00     0.000 C
ATOM      5  C5  BGC B   1      18.705 -28.489 -25.5320  0.00  0.00     0.000 C
ATOM      6  O5  BGC B   1      18.204 -27.184 -25.1860  0.00  0.00     0.000 O
ATOM      7   O  BGC B   1      16.082 -28.127 -22.3620  0.00  0.00     0.000 O
ATOM      9  HD  BGC B   1      15.682 -28.846 -22.0910  0.00  0.00     0.000 HD
ATOM      9   O  BGC B   1      15.698 -30.286 -24.1990  0.00  0.00     0.000 O
ATOM     11  HD  BGC B   1      15.297 -31.004 -23.9280  0.00  0.00     0.000 HD
ATOM     11   O  BGC B   1      17.944 -30.731 -25.9360  0.00  0.00     0.000 O
ATOM     13  HD  BGC B   1      17.543 -31.449 -25.6650  0.00  0.00     0.000 HD
ATOM     13   C  BGC B   1      19.483 -28.379 -26.8350  0.00  0.00     0.000 C
ATOM     14   O  BGC B   1      18.653 -28.011 -27.9330  0.00  0.00     0.000 O
ATOM     16  HD  BGC B   1      18.253 -28.729 -27.6610  0.00  0.00     0.000 HD
ENDROOT
BRANCH 1 16
ATOM     16  O4  BGC B   2      17.220 -25.825 -23.6720  0.00  0.00     0.000 O
BRANCH 16 20
ATOM     17  C1  BGC B   2      18.230 -22.216 -22.0930  0.00  0.00     0.000 C
ATOM     18  C2  BGC B   2      19.063 -22.608 -23.3050  0.00  0.00     0.000 C
ATOM     19  C3  BGC B   2      18.370 -23.768 -24.0150  0.00  0.00     0.000 C
ATOM     20  C4  BGC B   2      18.107 -24.902 -23.0450  0.00  0.00     0.000 C
ATOM     21  C5  BGC B   2      17.436 -24.424 -21.7570  0.00  0.00     0.000 C
ATOM     22  O5  BGC B   2      18.213 -23.352 -21.2090  0.00  0.00     0.000 O
ATOM     23   O  BGC B   2      19.170 -21.498 -24.2110  0.00  0.00     0.000 O
ATOM     25  HD  BGC B   2      18.695 -22.222 -24.2080  0.00  0.00     0.000 HD
ATOM     25   O  BGC B   2      19.173 -24.222 -25.0980  0.00  0.00     0.000 O
ATOM     27  HD  BGC B   2      18.697 -24.946 -25.0950  0.00  0.00     0.000 HD
ATOM     27   C  BGC B   2      17.337 -25.515 -20.6980  0.00  0.00     0.000 C
ATOM     28   O  BGC B   2      18.591 -26.088 -20.3640  0.00  0.00     0.000 O
ATOM     30  HD  BGC B   2      18.115 -26.812 -20.3600  0.00  0.00     0.000 HD
BRANCH 17 30
ATOM     30  O4  BGC B   3      18.958 -21.219 -21.4010  0.00  0.00     0.000 O
BRANCH 30 34
ATOM     31  C1  BGC B   3      18.327 -17.800 -19.2020  0.00  0.00     0.000 C
ATOM     32  C2  BGC B   3      17.707 -19.062 -18.6040  0.00  0.00     0.000 C
ATOM     33  C3  BGC B   3      18.333 -20.278 -19.2660  0.00  0.00     0.000 C
ATOM     34  C4  BGC B   3      18.175 -20.192 -20.7830  0.00  0.00     0.000 C
ATOM     35  C5  BGC B   3      18.681 -18.854 -21.2930  0.00  0.00     0.000 C
ATOM     36  O5  BGC B   3      18.023 -17.797 -20.5880  0.00  0.00     0.000 O
ATOM     37   O  BGC B   3      17.988 -19.114 -17.2070  0.00  0.00     0.000 O
ATOM     39  HD  BGC B   3      17.441 -19.782 -17.1390  0.00  0.00     0.000 HD
ATOM     39   O  BGC B   3      17.697 -21.442 -18.7600  0.00  0.00     0.000 O
ATOM     41  HD  BGC B   3      17.149 -22.110 -18.6920  0.00  0.00     0.000 HD
ATOM     41   C  BGC B   3      18.479 -18.645 -22.7890  0.00  0.00     0.000 C
ATOM     42   O  BGC B   3      17.114 -18.761 -23.1160  0.00  0.00     0.000 O
ATOM     44  HD  BGC B   3      16.567 -19.429 -23.0480  0.00  0.00     0.000 HD
BRANCH 31 44
ATOM     44  O4  BGC B   4      17.655 -16.701 -18.6420  0.00  0.00     0.000 O
BRANCH 44 48
ATOM     45  C1  BGC B   4      18.685 -12.781 -18.0280  0.00  0.00     0.000 C
ATOM     46  C2  BGC B   4      17.500 -12.991 -18.9610  0.00  0.00     0.000 C
ATOM     47  C3  BGC B   4      16.977 -14.397 -18.8010  0.00  0.00     0.000 C
ATOM     48  C4  BGC B   4      18.107 -15.411 -19.0000  0.00  0.00     0.000 C
ATOM     49  C5  BGC B   4      19.301 -15.071 -18.0990  0.00  0.00     0.000 C
ATOM     50  O5  BGC B   4      19.718 -13.719 -18.3370  0.00  0.00     0.000 O
ATOM     51   O  BGC B   4      16.450 -12.059 -18.6410  0.00  0.00     0.000 O
ATOM     53  HD  BGC B   4      16.122 -12.768 -18.2680  0.00  0.00     0.000 HD
ATOM     53   O  BGC B   4      15.948 -14.621 -19.7760  0.00  0.00     0.000 O
ATOM     55  HD  BGC B   4      15.620 -15.330 -19.4030  0.00  0.00     0.000 HD
ATOM     55   C  BGC B   4      20.518 -15.954 -18.3110  0.00  0.00     0.000 C
ATOM     56   O  BGC B   4      20.866 -15.892 -19.6950  0.00  0.00     0.000 O
ATOM     58  HD  BGC B   4      20.538 -16.602 -19.3220  0.00  0.00     0.000 HD
BRANCH 45 58
ATOM     58  O4  BGC B   5      19.276 -11.542 -18.4190  0.00  0.00     0.000 O
BRANCH 58 62
ATOM     59  C1  BGC B   5      21.354  -8.302 -16.8930  0.00  0.00     0.000 C
ATOM     60  C2  BGC B   5      21.893  -9.662 -16.5010  0.00  0.00     0.000 C
ATOM     61  C3  BGC B   5      21.344 -10.738 -17.4190  0.00  0.00     0.000 C
ATOM     62  C4  BGC B   5      19.825 -10.673 -17.4250  0.00  0.00     0.000 C
ATOM     63  C5  BGC B   5      19.345  -9.251 -17.7510  0.00  0.00     0.000 C
ATOM     64  O5  BGC B   5      19.926  -8.345 -16.8190  0.00  0.00     0.000 O
ATOM     65   O  BGC B   5      17.482  -9.485 -16.3470  0.00  0.00     0.000 O
ATOM     67  HD  BGC B   5      16.985 -10.090 -15.9770  0.00  0.00     0.000 HD
ATOM     67   O  BGC B   5      17.482  -9.485 -16.3470  0.00  0.00     0.000 O
ATOM     69  HD  BGC B   5      16.985 -10.090 -15.9770  0.00  0.00     0.000 HD
ENDBRANCH 58 62
ENDBRANCH 45 58
ENDBRANCH 44 48
ENDBRANCH 31 44
ENDBRANCH 30 34
ENDBRANCH 17 30
ENDBRANCH 16 20
ENDBRANCH 1 16
TORSDOF 8
ENDMDL
MODEL 74
REMARK VINA RESULT:      -7.1      3.061     14.999
ROOT
ATOM      1  C1  BGC B   1      19.047 -10.277 -17.5180  0.00  0.00     0.000 C
ATOM      2  C2  BGC B   1      18.395 -10.218 -18.8990  0.00  0.00     0.000 C
ATOM      3  C3  BGC B   1      17.743 -11.548 -19.2240  0.00  0.00     0.000 C
ATOM      4  C4  BGC B   1      18.729 -12.693 -19.0360  0.00  0.00     0.000 C
ATOM      5  C5  BGC B   1      19.278 -12.629 -17.6180  0.00  0.00     0.000 C
ATOM      6  O5  BGC B   1      19.957 -11.367 -17.4770  0.00  0.00     0.000 O
ATOM      7   O  BGC B   1      17.395  -9.186 -18.9060  0.00  0.00     0.000 O
ATOM      9  HD  BGC B   1      16.728  -9.275 -19.4520  0.00  0.00     0.000 HD
ATOM      9   O  BGC B   1      17.258 -11.508 -20.5700  0.00  0.00     0.000 O
ATOM     11  HD  BGC B   1      16.592 -11.597 -21.1160  0.00  0.00     0.000 HD
ATOM     11   O  BGC B   1      18.071 -13.924 -19.2420  0.00  0.00     0.000 O
ATOM     13  HD  BGC B   1      17.405 -14.013 -19.7880  0.00  0.00     0.000 HD
ATOM     13   C  BGC B   1      20.248 -13.744 -17.2570  0.00  0.00     0.000 C
ATOM     14   O  BGC B   1      21.344 -13.824 -18.1640  0.00  0.00     0.000 O
ATOM     16  HD  BGC B   1      20.678 -13.913 -18.7090  0.00  0.00     0.000 HD
ENDROOT
BRANCH 1 16
ATOM     16  O4  BGC B   2      19.859  -9.110 -17.4110  0.00  0.00     0.000 O
BRANCH 16 20
ATOM     17  C1  BGC B   2      20.862  -6.137 -14.8240  0.00  0.00     0.000 C
ATOM     18  C2  BGC B   2      21.393  -7.504 -14.4200  0.00  0.00     0.000 C
ATOM     19  C3  BGC B   2      21.277  -8.443 -15.6180  0.00  0.00     0.000 C
ATOM     20  C4  BGC B   2      19.856  -8.457 -16.1440  0.00  0.00     0.000 C
ATOM     21  C5  BGC B   2      19.299  -7.049 -16.3560  0.00  0.00     0.000 C
ATOM     22  O5  BGC B   2      19.468  -6.305 -15.1430  0.00  0.00     0.000 O
ATOM     23   O  BGC B   2      22.774  -7.403 -14.0340  0.00  0.00     0.000 O
ATOM     25  HD  BGC B   2      22.373  -7.685 -14.7480  0.00  0.00     0.000 HD
ATOM     25   O  BGC B   2      21.677  -9.757 -15.2450  0.00  0.00     0.000 O
ATOM     27  HD  BGC B   2      21.276 -10.038 -15.9590  0.00  0.00     0.000 HD
ATOM     27   C  BGC B   2      17.816  -7.042 -16.7020  0.00  0.00     0.000 C
ATOM     28   O  BGC B   2      17.011  -7.702 -15.7390  0.00  0.00     0.000 O
ATOM     30  HD  BGC B   2      16.610  -7.984 -16.4530  0.00  0.00     0.000 HD
BRANCH 17 30
ATOM     30  O4  BGC B   3      20.880  -5.330 -13.6620  0.00  0.00     0.000 O
BRANCH 30 34
ATOM     31  C1  BGC B   3      21.452  -1.398 -12.5960  0.00  0.00     0.000 C
ATOM     32  C2  BGC B   3      20.065  -1.708 -13.1590  0.00  0.00     0.000 C
ATOM     33  C3  BGC B   3      19.849  -3.210 -13.1330  0.00  0.00     0.000 C
ATOM     34  C4  BGC B   3      20.975  -3.919 -13.8850  0.00  0.00     0.000 C
ATOM     35  C5  BGC B   3      22.327  -3.458 -13.3700  0.00  0.00     0.000 C
ATOM     36  O5  BGC B   3      22.400  -2.030 -13.4400  0.00  0.00     0.000 O
ATOM     37   O  BGC B   3      19.071  -1.094 -12.3410  0.00  0.00     0.000 O
ATOM     39  HD  BGC B   3      18.477  -1.301 -12.9360  0.00  0.00     0.000 HD
ATOM     39   O  BGC B   3      18.592  -3.494 -13.7290  0.00  0.00     0.000 O
ATOM     41  HD  BGC B   3      17.998  -3.701 -14.3240  0.00  0.00     0.000 HD
ATOM     41   C  BGC B   3      23.512  -4.046 -14.1280  0.00  0.00     0.000 C
ATOM     42   O  BGC B   3      23.421  -3.727 -15.4960  0.00  0.00     0.000 O
ATOM     44  HD  BGC B   3      22.827  -3.934 -16.0910  0.00  0.00     0.000 HD
BRANCH 31 44
ATOM     44  O4  BGC B   4      21.655  -0.015 -12.7300  0.00  0.00     0.000 O
BRANCH 44 48
ATOM     45  C1  BGC B   4      23.417   3.142 -10.7980  0.00  0.00     0.000 C
ATOM     46  C2  BGC B   4      24.337   1.957 -11.0540  0.00  0.00     0.000 C
ATOM     47  C3  BGC B   4      23.716   1.051 -12.0890  0.00  0.00     0.000 C
ATOM     48  C4  BGC B   4      22.298   0.654 -11.6640  0.00  0.00     0.000 C
ATOM     49  C5  BGC B   4      21.468   1.898 -11.3270  0.00  0.00     0.000 C
ATOM     50  O5  BGC B   4      22.148   2.680 -10.3340  0.00  0.00     0.000 O
ATOM     51   O  BGC B   4      25.613   2.418 -11.5380  0.00  0.00     0.000 O
ATOM     53  HD  BGC B   4      25.269   2.153 -12.2880  0.00  0.00     0.000 HD
ATOM     53   O  BGC B   4      24.528  -0.123 -12.2230  0.00  0.00     0.000 O
ATOM     55  HD  BGC B   4      24.185  -0.388 -12.9720  0.00  0.00     0.000 HD
ATOM     55   C  BGC B   4      20.082   1.599 -10.7840  0.00  0.00     0.000 C
ATOM     56   O  BGC B   4      20.234   0.743  -9.6510  0.00  0.00     0.000 O
ATOM     58  HD  BGC B   4      19.890   0.478 -10.4000  0.00  0.00     0.000 HD
BRANCH 45 58
ATOM     58  O4  BGC B   5      23.939   3.801  -9.6440  0.00  0.00     0.000 O
BRANCH 58 62
ATOM     59  C1  BGC B   5      25.295   7.571  -8.5990  0.00  0.00     0.000 C
ATOM     60  C2  BGC B   5      23.897   7.229  -8.1260  0.00  0.00     0.000 C
ATOM     61  C3  BGC B   5      23.665   5.731  -8.1880  0.00  0.00     0.000 C
ATOM     62  C4  BGC B   5      23.963   5.229  -9.5920  0.00  0.00     0.000 C
ATOM     63  C5  BGC B   5      25.361   5.676 -10.0420  0.00  0.00     0.000 C
ATOM     64  O5  BGC B   5      25.446   7.094  -9.9400  0.00  0.00     0.000 O
ATOM     65   O  BGC B   5      24.653   5.889 -12.2660  0.00  0.00     0.000 O
ATOM     67  HD  BGC B   5      24.034   5.617 -12.8080  0.00  0.00     0.000 HD
ATOM     67   O  BGC B   5      24.653   5.889 -12.2660  0.00  0.00     0.000 O
ATOM     69  HD  BGC B   5      24.034   5.617 -12.8080  0.00  0.00     0.000 HD
ENDBRANCH 58 62
ENDBRANCH 45 58
ENDBRANCH 44 48
ENDBRANCH 31 44
ENDBRANCH 30 34
ENDBRANCH 17 30
ENDBRANCH 16 20
ENDBRANCH 1 16
TORSDOF 8
ENDMDL
MODEL 75
REMARK VINA RESULT:      -7.1      6.686     19.941
ROOT
ATOM      1  C1  BGC B   1      17.866 -23.790 -20.0660  0.00  0.00     0.000 C
ATOM      2  C2  BGC B   1      16.688 -24.761 -20.0140  0.00  0.00     0.000 C
ATOM      3  C3  BGC B   1      17.186 -26.190 -20.1070  0.00  0.00     0.000 C
ATOM      4  C4  BGC B   1      18.100 -26.365 -21.3130  0.00  0.00     0.000 C
ATOM      5  C5  BGC B   1      19.226 -25.346 -21.2160  0.00  0.00     0.000 C
ATOM      6  O5  BGC B   1      18.626 -24.038 -21.2410  0.00  0.00     0.000 O
ATOM      7   O  BGC B   1      15.984 -24.585 -18.7730  0.00  0.00     0.000 O
ATOM      9  HD  BGC B   1      15.556 -25.266 -18.4530  0.00  0.00     0.000 HD
ATOM      9   O  BGC B   1      16.059 -27.068 -20.1900  0.00  0.00     0.000 O
ATOM     11  HD  BGC B   1      15.631 -27.749 -19.8700  0.00  0.00     0.000 HD
ATOM     11   O  BGC B   1      18.633 -27.672 -21.3180  0.00  0.00     0.000 O
ATOM     13  HD  BGC B   1      18.205 -28.353 -20.9970  0.00  0.00     0.000 HD
ATOM     13   C  BGC B   1      20.258 -25.426 -22.3310  0.00  0.00     0.000 C
ATOM     14   O  BGC B   1      19.669 -25.328 -23.6240  0.00  0.00     0.000 O
ATOM     16  HD  BGC B   1      19.241 -26.009 -23.3040  0.00  0.00     0.000 HD
ENDROOT
BRANCH 1 16
ATOM     16  O4  BGC B   2      17.305 -22.492 -20.2530  0.00  0.00     0.000 O
BRANCH 16 20
ATOM     17  C1  BGC B   2      18.503 -18.606 -20.2290  0.00  0.00     0.000 C
ATOM     18  C2  BGC B   2      18.447 -19.220 -21.6200  0.00  0.00     0.000 C
ATOM     19  C3  BGC B   2      17.653 -20.522 -21.5440  0.00  0.00     0.000 C
ATOM     20  C4  BGC B   2      18.233 -21.435 -20.4830  0.00  0.00     0.000 C
ATOM     21  C5  BGC B   2      18.447 -20.716 -19.1500  0.00  0.00     0.000 C
ATOM     22  O5  BGC B   2      19.218 -19.532 -19.3890  0.00  0.00     0.000 O
ATOM     23   O  BGC B   2      17.791 -18.321 -22.5300  0.00  0.00     0.000 O
ATOM     25  HD  BGC B   2      17.541 -19.041 -22.1190  0.00  0.00     0.000 HD
ATOM     25   O  BGC B   2      17.663 -21.170 -22.8110  0.00  0.00     0.000 O
ATOM     27  HD  BGC B   2      17.413 -21.890 -22.3990  0.00  0.00     0.000 HD
ATOM     27   C  BGC B   2      19.202 -21.563 -18.1330  0.00  0.00     0.000 C
ATOM     28   O  BGC B   2      20.460 -22.019 -18.6040  0.00  0.00     0.000 O
ATOM     30  HD  BGC B   2      20.210 -22.739 -18.1930  0.00  0.00     0.000 HD
BRANCH 17 30
ATOM     30  O4  BGC B   3      19.338 -17.467 -20.3170  0.00  0.00     0.000 O
BRANCH 30 34
ATOM     31  C1  BGC B   3      20.144 -13.979 -18.2910  0.00  0.00     0.000 C
ATOM     32  C2  BGC B   3      20.528 -15.253 -17.5390  0.00  0.00     0.000 C
ATOM     33  C3  BGC B   3      20.559 -16.411 -18.5200  0.00  0.00     0.000 C
ATOM     34  C4  BGC B   3      19.220 -16.524 -19.2470  0.00  0.00     0.000 C
ATOM     35  C5  BGC B   3      18.831 -15.185 -19.8490  0.00  0.00     0.000 C
ATOM     36  O5  BGC B   3      18.847 -14.182 -18.8280  0.00  0.00     0.000 O
ATOM     37   O  BGC B   3      21.830 -15.100 -16.9790  0.00  0.00     0.000 O
ATOM     39  HD  BGC B   3      21.711 -15.839 -16.5420  0.00  0.00     0.000 HD
ATOM     39   O  BGC B   3      20.840 -17.602 -17.8000  0.00  0.00     0.000 O
ATOM     41  HD  BGC B   3      20.721 -18.341 -17.3640  0.00  0.00     0.000 HD
ATOM     41   C  BGC B   3      17.461 -15.181 -20.5180  0.00  0.00     0.000 C
ATOM     42   O  BGC B   3      16.469 -15.562 -19.5950  0.00  0.00     0.000 O
ATOM     44  HD  BGC B   3      16.349 -16.300 -19.1580  0.00  0.00     0.000 HD
BRANCH 31 44
ATOM     44  O4  BGC B   4      20.025 -12.954 -17.3380  0.00  0.00     0.000 O
BRANCH 44 48
ATOM     45  C1  BGC B   4      19.501  -8.897 -17.0690  0.00  0.00     0.000 C
ATOM     46  C2  BGC B   4      18.302  -9.660 -17.6130  0.00  0.00     0.000 C
ATOM     47  C3  BGC B   4      18.456 -11.128 -17.3000  0.00  0.00     0.000 C
ATOM     48  C4  BGC B   4      19.803 -11.643 -17.8180  0.00  0.00     0.000 C
ATOM     49  C5  BGC B   4      20.949 -10.761 -17.3080  0.00  0.00     0.000 C
ATOM     50  O5  BGC B   4      20.702  -9.392 -17.6640  0.00  0.00     0.000 O
ATOM     51   O  BGC B   4      17.091  -9.175 -17.0030  0.00  0.00     0.000 O
ATOM     53  HD  BGC B   4      17.191  -9.905 -16.5470  0.00  0.00     0.000 HD
ATOM     53   O  BGC B   4      17.388 -11.850 -17.9300  0.00  0.00     0.000 O
ATOM     55  HD  BGC B   4      17.488 -12.580 -17.4740  0.00  0.00     0.000 HD
ATOM     55   C  BGC B   4      22.315 -11.123 -17.8630  0.00  0.00     0.000 C
ATOM     56   O  BGC B   4      22.226 -11.102 -19.2890  0.00  0.00     0.000 O
ATOM     58  HD  BGC B   4      22.326 -11.831 -18.8330  0.00  0.00     0.000 HD
BRANCH 45 58
ATOM     58  O4  BGC B   5      19.411  -7.583 -17.6210  0.00  0.00     0.000 O
BRANCH 58 62
ATOM     59  C1  BGC B   5      19.624  -3.595 -16.5270  0.00  0.00     0.000 C
ATOM     60  C2  BGC B   5      20.958  -4.293 -16.7040  0.00  0.00     0.000 C
ATOM     61  C3  BGC B   5      20.786  -5.580 -17.4880  0.00  0.00     0.000 C
ATOM     62  C4  BGC B   5      19.738  -6.450 -16.8130  0.00  0.00     0.000 C
ATOM     63  C5  BGC B   5      18.440  -5.661 -16.5910  0.00  0.00     0.000 C
ATOM     64  O5  BGC B   5      18.737  -4.486 -15.8440  0.00  0.00     0.000 O
ATOM     65   O  BGC B   5      18.003  -6.809 -14.5940  0.00  0.00     0.000 O
ATOM     67  HD  BGC B   5      18.200  -7.543 -14.1780  0.00  0.00     0.000 HD
ATOM     67   O  BGC B   5      18.003  -6.809 -14.5940  0.00  0.00     0.000 O
ATOM     69  HD  BGC B   5      18.200  -7.543 -14.1780  0.00  0.00     0.000 HD
ENDBRANCH 58 62
ENDBRANCH 45 58
ENDBRANCH 44 48
ENDBRANCH 31 44
ENDBRANCH 30 34
ENDBRANCH 17 30
ENDBRANCH 16 20
ENDBRANCH 1 16
TORSDOF 8
ENDMDL
MODEL 76
REMARK VINA RESULT:      -7.1      7.680     21.274
ROOT
ATOM      1  C1  BGC B   1      18.077 -24.113 -24.7790  0.00  0.00     0.000 C
ATOM      2  C2  BGC B   1      19.052 -24.416 -25.9160  0.00  0.00     0.000 C
ATOM      3  C3  BGC B   1      18.590 -25.638 -26.6860  0.00  0.00     0.000 C
ATOM      4  C4  BGC B   1      18.332 -26.805 -25.7420  0.00  0.00     0.000 C
ATOM      5  C5  BGC B   1      17.337 -26.357 -24.6820  0.00  0.00     0.000 C
ATOM      6  O5  BGC B   1      17.939 -25.266 -23.9610  0.00  0.00     0.000 O
ATOM      7   O  BGC B   1      19.107 -23.289 -26.8060  0.00  0.00     0.000 O
ATOM      9  HD  BGC B   1      19.306 -23.440 -27.6350  0.00  0.00     0.000 HD
ATOM      9   O  BGC B   1      19.586 -25.977 -27.6560  0.00  0.00     0.000 O
ATOM     11  HD  BGC B   1      19.785 -26.128 -28.4850  0.00  0.00     0.000 HD
ATOM     11   O  BGC B   1      17.804 -27.894 -26.4670  0.00  0.00     0.000 O
ATOM     13  HD  BGC B   1      18.003 -28.045 -27.2970  0.00  0.00     0.000 HD
ATOM     13   C  BGC B   1      16.937 -27.434 -23.6840  0.00  0.00     0.000 C
ATOM     14   O  BGC B   1      18.063 -28.014 -23.0320  0.00  0.00     0.000 O
ATOM     16  HD  BGC B   1      18.262 -28.165 -23.8610  0.00  0.00     0.000 HD
ENDROOT
BRANCH 1 16
ATOM     16  O4  BGC B   2      18.719 -23.144 -23.9520  0.00  0.00     0.000 O
BRANCH 16 20
ATOM     17  C1  BGC B   2      17.947 -19.885 -21.6460  0.00  0.00     0.000 C
ATOM     18  C2  BGC B   2      17.312 -21.166 -21.1260  0.00  0.00     0.000 C
ATOM     19  C3  BGC B   2      17.957 -22.351 -21.8410  0.00  0.00     0.000 C
ATOM     20  C4  BGC B   2      17.868 -22.177 -23.3430  0.00  0.00     0.000 C
ATOM     21  C5  BGC B   2      18.343 -20.797 -23.7980  0.00  0.00     0.000 C
ATOM     22  O5  BGC B   2      17.635 -19.801 -23.0500  0.00  0.00     0.000 O
ATOM     23   O  BGC B   2      17.537 -21.290 -19.7120  0.00  0.00     0.000 O
ATOM     25  HD  BGC B   2      17.896 -21.660 -20.4080  0.00  0.00     0.000 HD
ATOM     25   O  BGC B   2      17.318 -23.560 -21.4460  0.00  0.00     0.000 O
ATOM     27  HD  BGC B   2      17.677 -23.930 -22.1420  0.00  0.00     0.000 HD
ATOM     27   C  BGC B   2      18.083 -20.537 -25.2770  0.00  0.00     0.000 C
ATOM     28   O  BGC B   2      16.721 -20.686 -25.6430  0.00  0.00     0.000 O
ATOM     30  HD  BGC B   2      17.080 -21.055 -26.3390  0.00  0.00     0.000 HD
BRANCH 17 30
ATOM     30  O4  BGC B   3      17.248 -18.810 -21.0480  0.00  0.00     0.000 O
BRANCH 30 34
ATOM     31  C1  BGC B   3      17.744 -14.809 -20.2260  0.00  0.00     0.000 C
ATOM     32  C2  BGC B   3      17.491 -15.128 -21.6990  0.00  0.00     0.000 C
ATOM     33  C3  BGC B   3      16.938 -16.538 -21.8090  0.00  0.00     0.000 C
ATOM     34  C4  BGC B   3      17.884 -17.530 -21.1340  0.00  0.00     0.000 C
ATOM     35  C5  BGC B   3      18.206 -17.076 -19.7210  0.00  0.00     0.000 C
ATOM     36  O5  BGC B   3      18.708 -15.736 -19.7540  0.00  0.00     0.000 O
ATOM     37   O  BGC B   3      16.522 -14.221 -22.2220  0.00  0.00     0.000 O
ATOM     39  HD  BGC B   3      16.690 -14.526 -23.0150  0.00  0.00     0.000 HD
ATOM     39   O  BGC B   3      16.779 -16.853 -23.1840  0.00  0.00     0.000 O
ATOM     41  HD  BGC B   3      16.947 -17.157 -23.9770  0.00  0.00     0.000 HD
ATOM     41   C  BGC B   3      19.218 -17.961 -19.0010  0.00  0.00     0.000 C
ATOM     42   O  BGC B   3      20.417 -18.022 -19.7360  0.00  0.00     0.000 O
ATOM     44  HD  BGC B   3      20.585 -18.327 -20.5290  0.00  0.00     0.000 HD
BRANCH 31 44
ATOM     44  O4  BGC B   4      18.347 -13.542 -20.1720  0.00  0.00     0.000 O
BRANCH 44 48
ATOM     45  C1  BGC B   4      19.195 -10.573 -17.4760  0.00  0.00     0.000 C
ATOM     46  C2  BGC B   4      20.204 -11.712 -17.5090  0.00  0.00     0.000 C
ATOM     47  C3  BGC B   4      20.014 -12.516 -18.7710  0.00  0.00     0.000 C
ATOM     48  C4  BGC B   4      18.558 -12.976 -18.8950  0.00  0.00     0.000 C
ATOM     49  C5  BGC B   4      17.603 -11.786 -18.7500  0.00  0.00     0.000 C
ATOM     50  O5  BGC B   4      17.867 -11.099 -17.5180  0.00  0.00     0.000 O
ATOM     51   O  BGC B   4      21.544 -11.184 -17.4840  0.00  0.00     0.000 O
ATOM     53  HD  BGC B   4      21.488 -11.376 -18.3260  0.00  0.00     0.000 HD
ATOM     53   O  BGC B   4      20.881 -13.659 -18.7260  0.00  0.00     0.000 O
ATOM     55  HD  BGC B   4      20.825 -13.851 -19.5680  0.00  0.00     0.000 HD
ATOM     55   C  BGC B   4      16.131 -12.159 -18.7430  0.00  0.00     0.000 C
ATOM     56   O  BGC B   4      15.932 -13.125 -17.7090  0.00  0.00     0.000 O
ATOM     58  HD  BGC B   4      15.876 -13.317 -18.5510  0.00  0.00     0.000 HD
BRANCH 45 58
ATOM     58  O4  BGC B   5      19.262 -10.028 -16.1580  0.00  0.00     0.000 O
BRANCH 58 62
ATOM     59  C1  BGC B   5      19.522  -6.412 -14.1580  0.00  0.00     0.000 C
ATOM     60  C2  BGC B   5      18.142  -6.774 -14.6690  0.00  0.00     0.000 C
ATOM     61  C3  BGC B   5      18.068  -8.253 -14.9980  0.00  0.00     0.000 C
ATOM     62  C4  BGC B   5      19.180  -8.614 -15.9700  0.00  0.00     0.000 C
ATOM     63  C5  BGC B   5      20.541  -8.149 -15.4310  0.00  0.00     0.000 C
ATOM     64  O5  BGC B   5      20.479  -6.751 -15.1680  0.00  0.00     0.000 O
ATOM     65   O  BGC B   5      21.320  -7.695 -17.5950  0.00  0.00     0.000 O
ATOM     67  HD  BGC B   5      21.172  -7.898 -18.4240  0.00  0.00     0.000 HD
ATOM     67   O  BGC B   5      21.320  -7.695 -17.5950  0.00  0.00     0.000 O
ATOM     69  HD  BGC B   5      21.172  -7.898 -18.4240  0.00  0.00     0.000 HD
ENDBRANCH 58 62
ENDBRANCH 45 58
ENDBRANCH 44 48
ENDBRANCH 31 44
ENDBRANCH 30 34
ENDBRANCH 17 30
ENDBRANCH 16 20
ENDBRANCH 1 16
TORSDOF 8
ENDMDL
MODEL 77
REMARK VINA RESULT:      -7.1      9.143     21.771
ROOT
ATOM      1  C1  BGC B   1      17.812 -26.180 -20.9570  0.00  0.00     0.000 C
ATOM      2  C2  BGC B   1      16.809 -27.008 -20.1550  0.00  0.00     0.000 C
ATOM      3  C3  BGC B   1      17.115 -28.486 -20.3060  0.00  0.00     0.000 C
ATOM      4  C4  BGC B   1      17.222 -28.867 -21.7770  0.00  0.00     0.000 C
ATOM      5  C5  BGC B   1      18.264 -27.972 -22.4320  0.00  0.00     0.000 C
ATOM      6  O5  BGC B   1      17.803 -26.614 -22.3100  0.00  0.00     0.000 O
ATOM      7   O  BGC B   1      16.897 -26.645 -18.7680  0.00  0.00     0.000 O
ATOM      9  HD  BGC B   1      16.682 -27.244 -18.1800  0.00  0.00     0.000 HD
ATOM      9   O  BGC B   1      16.086 -29.239 -19.6580  0.00  0.00     0.000 O
ATOM     11  HD  BGC B   1      15.871 -29.839 -19.0710  0.00  0.00     0.000 HD
ATOM     11   O  BGC B   1      17.611 -30.219 -21.8890  0.00  0.00     0.000 O
ATOM     13  HD  BGC B   1      17.396 -30.818 -21.3020  0.00  0.00     0.000 HD
ATOM     13   C  BGC B   1      18.524 -28.264 -23.9030  0.00  0.00     0.000 C
ATOM     14   O  BGC B   1      17.333 -28.219 -24.6830  0.00  0.00     0.000 O
ATOM     16  HD  BGC B   1      17.118 -28.818 -24.0960  0.00  0.00     0.000 HD
ENDROOT
BRANCH 1 16
ATOM     16  O4  BGC B   2      17.295 -24.851 -20.9890  0.00  0.00     0.000 O
BRANCH 16 20
ATOM     17  C1  BGC B   2      18.618 -21.015 -20.7180  0.00  0.00     0.000 C
ATOM     18  C2  BGC B   2      18.522 -21.529 -22.1470  0.00  0.00     0.000 C
ATOM     19  C3  BGC B   2      17.688 -22.808 -22.1470  0.00  0.00     0.000 C
ATOM     20  C4  BGC B   2      18.253 -23.809 -21.1610  0.00  0.00     0.000 C
ATOM     21  C5  BGC B   2      18.510 -23.192 -19.7850  0.00  0.00     0.000 C
ATOM     22  O5  BGC B   2      19.315 -22.019 -19.9560  0.00  0.00     0.000 O
ATOM     23   O  BGC B   2      17.883 -20.550 -22.9820  0.00  0.00     0.000 O
ATOM     25  HD  BGC B   2      17.616 -21.288 -22.6170  0.00  0.00     0.000 HD
ATOM     25   O  BGC B   2      17.659 -23.367 -23.4550  0.00  0.00     0.000 O
ATOM     27  HD  BGC B   2      17.392 -24.105 -23.0900  0.00  0.00     0.000 HD
ATOM     27   C  BGC B   2      19.251 -24.131 -18.8420  0.00  0.00     0.000 C
ATOM     28   O  BGC B   2      20.487 -24.592 -19.3640  0.00  0.00     0.000 O
ATOM     30  HD  BGC B   2      20.220 -25.331 -18.9990  0.00  0.00     0.000 HD
BRANCH 17 30
ATOM     30  O4  BGC B   3      19.488 -19.899 -20.7420  0.00  0.00     0.000 O
BRANCH 30 34
ATOM     31  C1  BGC B   3      20.106 -16.351 -18.7520  0.00  0.00     0.000 C
ATOM     32  C2  BGC B   3      20.520 -17.597 -17.9710  0.00  0.00     0.000 C
ATOM     33  C3  BGC B   3      20.621 -18.769 -18.9310  0.00  0.00     0.000 C
ATOM     34  C4  BGC B   3      19.306 -18.946 -19.6900  0.00  0.00     0.000 C
ATOM     35  C5  BGC B   3      18.881 -17.633 -20.3230  0.00  0.00     0.000 C
ATOM     36  O5  BGC B   3      18.831 -16.614 -19.3190  0.00  0.00     0.000 O
ATOM     37   O  BGC B   3      21.801 -17.385 -17.3810  0.00  0.00     0.000 O
ATOM     39  HD  BGC B   3      21.699 -18.121 -16.9360  0.00  0.00     0.000 HD
ATOM     39   O  BGC B   3      20.930 -19.937 -18.1860  0.00  0.00     0.000 O
ATOM     41  HD  BGC B   3      20.829 -20.673 -17.7400  0.00  0.00     0.000 HD
ATOM     41   C  BGC B   3      17.529 -17.693 -21.0260  0.00  0.00     0.000 C
ATOM     42   O  BGC B   3      16.529 -18.098 -20.1210  0.00  0.00     0.000 O
ATOM     44  HD  BGC B   3      16.428 -18.834 -19.6760  0.00  0.00     0.000 HD
BRANCH 31 44
ATOM     44  O4  BGC B   4      19.923 -15.317 -17.8200  0.00  0.00     0.000 O
BRANCH 44 48
ATOM     45  C1  BGC B   4      20.221 -11.237 -17.5630  0.00  0.00     0.000 C
ATOM     46  C2  BGC B   4      18.894 -11.747 -18.1070  0.00  0.00     0.000 C
ATOM     47  C3  BGC B   4      18.751 -13.215 -17.7910  0.00  0.00     0.000 C
ATOM     48  C4  BGC B   4      19.969 -13.990 -18.3030  0.00  0.00     0.000 C
ATOM     49  C5  BGC B   4      21.267 -13.354 -17.7930  0.00  0.00     0.000 C
ATOM     50  O5  BGC B   4      21.300 -11.965 -18.1530  0.00  0.00     0.000 O
ATOM     51   O  BGC B   4      17.803 -11.027 -17.5020  0.00  0.00     0.000 O
ATOM     53  HD  BGC B   4      17.754 -11.760 -17.0440  0.00  0.00     0.000 HD
ATOM     53   O  BGC B   4      17.561 -13.710 -18.4210  0.00  0.00     0.000 O
ATOM     55  HD  BGC B   4      17.512 -14.443 -17.9640  0.00  0.00     0.000 HD
ATOM     55   C  BGC B   4      22.534 -13.984 -18.3440  0.00  0.00     0.000 C
ATOM     56   O  BGC B   4      22.453 -13.949 -19.7700  0.00  0.00     0.000 O
ATOM     58  HD  BGC B   4      22.404 -14.683 -19.3120  0.00  0.00     0.000 HD
BRANCH 45 58
ATOM     58  O4  BGC B   5      20.397  -9.934 -18.1180  0.00  0.00     0.000 O
BRANCH 58 62
ATOM     59  C1  BGC B   5      22.958  -6.697 -17.7820  0.00  0.00     0.000 C
ATOM     60  C2  BGC B   5      23.274  -7.662 -18.9070  0.00  0.00     0.000 C
ATOM     61  C3  BGC B   5      22.077  -8.546 -19.2020  0.00  0.00     0.000 C
ATOM     62  C4  BGC B   5      21.632  -9.241 -17.9240  0.00  0.00     0.000 C
ATOM     63  C5  BGC B   5      21.407  -8.217 -16.8030  0.00  0.00     0.000 C
ATOM     64  O5  BGC B   5      22.599  -7.459 -16.6250  0.00  0.00     0.000 O
ATOM     65   O  BGC B   5      22.142  -9.736 -15.1750  0.00  0.00     0.000 O
ATOM     67  HD  BGC B   5      22.248 -10.585 -15.0410  0.00  0.00     0.000 HD
ATOM     67   O  BGC B   5      22.142  -9.736 -15.1750  0.00  0.00     0.000 O
ATOM     69  HD  BGC B   5      22.248 -10.585 -15.0410  0.00  0.00     0.000 HD
ENDBRANCH 58 62
ENDBRANCH 45 58
ENDBRANCH 44 48
ENDBRANCH 31 44
ENDBRANCH 30 34
ENDBRANCH 17 30
ENDBRANCH 16 20
ENDBRANCH 1 16
TORSDOF 8
ENDMDL
MODEL 78
REMARK VINA RESULT:      -7.1     21.987     27.487
ROOT
ATOM      1  C1  BGC B   1       8.324 -23.239   2.5280  0.00  0.00     0.000 C
ATOM      2  C2  BGC B   1       7.660 -23.533   1.1840  0.00  0.00     0.000 C
ATOM      3  C3  BGC B   1       6.266 -24.089   1.4020  0.00  0.00     0.000 C
ATOM      4  C4  BGC B   1       6.300 -25.268   2.3660  0.00  0.00     0.000 C
ATOM      5  C5  BGC B   1       6.972 -24.818   3.6550  0.00  0.00     0.000 C
ATOM      6  O5  BGC B   1       8.314 -24.416   3.3230  0.00  0.00     0.000 O
ATOM      7   O  BGC B   1       7.571 -22.317   0.4240  0.00  0.00     0.000 O
ATOM      9  HD  BGC B   1       6.930 -22.249  -0.1540  0.00  0.00     0.000 HD
ATOM      9   O  BGC B   1       5.721 -24.479   0.1390  0.00  0.00     0.000 O
ATOM     11  HD  BGC B   1       5.079 -24.411  -0.4390  0.00  0.00     0.000 HD
ATOM     11   O  BGC B   1       4.984 -25.699   2.6350  0.00  0.00     0.000 O
ATOM     13  HD  BGC B   1       4.342 -25.631   2.0570  0.00  0.00     0.000 HD
ATOM     13   C  BGC B   1       7.040 -25.878   4.7450  0.00  0.00     0.000 C
ATOM     14   O  BGC B   1       7.672 -27.074   4.2990  0.00  0.00     0.000 O
ATOM     16  HD  BGC B   1       7.030 -27.006   3.7210  0.00  0.00     0.000 HD
ENDROOT
BRANCH 1 16
ATOM     16  O4  BGC B   2       9.701 -22.992   2.2460  0.00  0.00     0.000 O
BRANCH 16 20
ATOM     17  C1  BGC B   2      12.793 -20.567   3.2910  0.00  0.00     0.000 C
ATOM     18  C2  BGC B   2      12.390 -21.548   4.3820  0.00  0.00     0.000 C
ATOM     19  C3  BGC B   2      11.498 -22.622   3.7640  0.00  0.00     0.000 C
ATOM     20  C4  BGC B   2      10.332 -21.986   3.0340  0.00  0.00     0.000 C
ATOM     21  C5  BGC B   2      10.776 -20.872   2.0850  0.00  0.00     0.000 C
ATOM     22  O5  BGC B   2      11.585 -19.944   2.8180  0.00  0.00     0.000 O
ATOM     23   O  BGC B   2      13.557 -22.171   4.9420  0.00  0.00     0.000 O
ATOM     25  HD  BGC B   2      12.954 -22.432   4.3780  0.00  0.00     0.000 HD
ATOM     25   O  BGC B   2      11.025 -23.501   4.7770  0.00  0.00     0.000 O
ATOM     27  HD  BGC B   2      10.422 -23.762   4.2130  0.00  0.00     0.000 HD
ATOM     27   C  BGC B   2       9.606 -20.099   1.4890  0.00  0.00     0.000 C
ATOM     28   O  BGC B   2       8.746 -19.538   2.4670  0.00  0.00     0.000 O
ATOM     30  HD  BGC B   2       8.143 -19.799   1.9030  0.00  0.00     0.000 HD
BRANCH 17 30
ATOM     30  O4  BGC B   3      13.521 -19.530   3.9210  0.00  0.00     0.000 O
BRANCH 30 34
ATOM     31  C1  BGC B   3      16.574 -16.887   3.1360  0.00  0.00     0.000 C
ATOM     32  C2  BGC B   3      15.319 -16.675   2.2910  0.00  0.00     0.000 C
ATOM     33  C3  BGC B   3      14.162 -17.420   2.9340  0.00  0.00     0.000 C
ATOM     34  C4  BGC B   3      14.521 -18.894   3.1180  0.00  0.00     0.000 C
ATOM     35  C5  BGC B   3      15.850 -19.029   3.8390  0.00  0.00     0.000 C
ATOM     36  O5  BGC B   3      16.849 -18.279   3.1400  0.00  0.00     0.000 O
ATOM     37   O  BGC B   3      14.997 -15.286   2.2570  0.00  0.00     0.000 O
ATOM     39  HD  BGC B   3      14.403 -15.456   1.6510  0.00  0.00     0.000 HD
ATOM     39   O  BGC B   3      13.020 -17.282   2.1030  0.00  0.00     0.000 O
ATOM     41  HD  BGC B   3      12.426 -17.451   1.4960  0.00  0.00     0.000 HD
ATOM     41   C  BGC B   3      16.333 -20.468   3.9850  0.00  0.00     0.000 C
ATOM     42   O  BGC B   3      16.447 -21.073   2.7190  0.00  0.00     0.000 O
ATOM     44  HD  BGC B   3      15.852 -21.243   2.1130  0.00  0.00     0.000 HD
BRANCH 31 44
ATOM     44  O4  BGC B   4      17.640 -16.271   2.4590  0.00  0.00     0.000 O
BRANCH 44 48
ATOM     45  C1  BGC B   4      21.513 -15.084   3.0870  0.00  0.00     0.000 C
ATOM     46  C2  BGC B   4      21.341 -16.565   2.7820  0.00  0.00     0.000 C
ATOM     47  C3  BGC B   4      19.973 -16.802   2.1930  0.00  0.00     0.000 C
ATOM     48  C4  BGC B   4      18.891 -16.232   3.1150  0.00  0.00     0.000 C
ATOM     49  C5  BGC B   4      19.191 -14.767   3.4560  0.00  0.00     0.000 C
ATOM     50  O5  BGC B   4      20.510 -14.659   4.0110  0.00  0.00     0.000 O
ATOM     51   O  BGC B   4      22.340 -16.993   1.8360  0.00  0.00     0.000 O
ATOM     53  HD  BGC B   4      21.662 -16.932   1.3010  0.00  0.00     0.000 HD
ATOM     53   O  BGC B   4      19.777 -18.215   2.0330  0.00  0.00     0.000 O
ATOM     55  HD  BGC B   4      19.099 -18.154   1.4970  0.00  0.00     0.000 HD
ATOM     55   C  BGC B   4      18.235 -14.148   4.4600  0.00  0.00     0.000 C
ATOM     56   O  BGC B   4      18.234 -14.972   5.6270  0.00  0.00     0.000 O
ATOM     58  HD  BGC B   4      17.556 -14.911   5.0910  0.00  0.00     0.000 HD
BRANCH 45 58
ATOM     58  O4  BGC B   5      22.704 -14.980   3.8660  0.00  0.00     0.000 O
BRANCH 58 62
ATOM     59  C1  BGC B   5      25.641 -12.180   4.6900  0.00  0.00     0.000 C
ATOM     60  C2  BGC B   5      24.564 -12.321   5.7460  0.00  0.00     0.000 C
ATOM     61  C3  BGC B   5      23.802 -13.620   5.5590  0.00  0.00     0.000 C
ATOM     62  C4  BGC B   5      23.264 -13.693   4.1390  0.00  0.00     0.000 C
ATOM     63  C5  BGC B   5      24.390 -13.463   3.1210  0.00  0.00     0.000 C
ATOM     64  O5  BGC B   5      25.018 -12.216   3.4030  0.00  0.00     0.000 O
ATOM     65   O  BGC B   5      22.926 -12.380   1.6440  0.00  0.00     0.000 O
ATOM     67  HD  BGC B   5      22.084 -12.309   1.4570  0.00  0.00     0.000 HD
ATOM     67   O  BGC B   5      22.926 -12.380   1.6440  0.00  0.00     0.000 O
ATOM     69  HD  BGC B   5      22.084 -12.309   1.4570  0.00  0.00     0.000 HD
ENDBRANCH 58 62
ENDBRANCH 45 58
ENDBRANCH 44 48
ENDBRANCH 31 44
ENDBRANCH 30 34
ENDBRANCH 17 30
ENDBRANCH 16 20
ENDBRANCH 1 16
TORSDOF 8
ENDMDL
MODEL 79
REMARK VINA RESULT:      -7.1     11.446     20.042
ROOT
ATOM      1  C1  BGC B   1      18.456 -14.093 -19.4470  0.00  0.00     0.000 C
ATOM      2  C2  BGC B   1      19.726 -13.333 -19.0650  0.00  0.00     0.000 C
ATOM      3  C3  BGC B   1      19.367 -12.055 -18.3320  0.00  0.00     0.000 C
ATOM      4  C4  BGC B   1      18.355 -11.242 -19.1300  0.00  0.00     0.000 C
ATOM      5  C5  BGC B   1      17.149 -12.123 -19.4190  0.00  0.00     0.000 C
ATOM      6  O5  BGC B   1      17.609 -13.239 -20.2030  0.00  0.00     0.000 O
ATOM      7   O  BGC B   1      20.532 -14.159 -18.2080  0.00  0.00     0.000 O
ATOM      9  HD  BGC B   1      21.056 -13.763 -17.6450  0.00  0.00     0.000 HD
ATOM      9   O  BGC B   1      20.561 -11.301 -18.1050  0.00  0.00     0.000 O
ATOM     11  HD  BGC B   1      21.086 -10.905 -17.5420  0.00  0.00     0.000 HD
ATOM     11   O  BGC B   1      17.959 -10.113 -18.3820  0.00  0.00     0.000 O
ATOM     13  HD  BGC B   1      18.483  -9.717 -17.8190  0.00  0.00     0.000 HD
ATOM     13   C  BGC B   1      16.021 -11.434 -20.1730  0.00  0.00     0.000 C
ATOM     14   O  BGC B   1      16.461 -10.855 -21.3980  0.00  0.00     0.000 O
ATOM     16  HD  BGC B   1      16.986 -10.459 -20.8340  0.00  0.00     0.000 HD
ENDROOT
BRANCH 1 16
ATOM     16  O4  BGC B   2      18.862 -15.114 -20.3570  0.00  0.00     0.000 O
BRANCH 16 20
ATOM     17  C1  BGC B   2      17.920 -18.883 -21.5580  0.00  0.00     0.000 C
ATOM     18  C2  BGC B   2      16.907 -17.833 -21.9890  0.00  0.00     0.000 C
ATOM     19  C3  BGC B   2      17.534 -16.452 -21.8110  0.00  0.00     0.000 C
ATOM     20  C4  BGC B   2      18.045 -16.281 -20.3950  0.00  0.00     0.000 C
ATOM     21  C5  BGC B   2      18.907 -17.459 -19.9400  0.00  0.00     0.000 C
ATOM     22  O5  BGC B   2      18.174 -18.671 -20.1570  0.00  0.00     0.000 O
ATOM     23   O  BGC B   2      16.562 -18.018 -23.3720  0.00  0.00     0.000 O
ATOM     25  HD  BGC B   2      17.078 -17.460 -22.9550  0.00  0.00     0.000 HD
ATOM     25   O  BGC B   2      16.579 -15.443 -22.1160  0.00  0.00     0.000 O
ATOM     27  HD  BGC B   2      17.094 -14.886 -21.6990  0.00  0.00     0.000 HD
ATOM     27   C  BGC B   2      19.270 -17.394 -18.4620  0.00  0.00     0.000 C
ATOM     28   O  BGC B   2      18.140 -17.310 -17.6090  0.00  0.00     0.000 O
ATOM     30  HD  BGC B   2      18.655 -16.753 -17.1920  0.00  0.00     0.000 HD
BRANCH 17 30
ATOM     30  O4  BGC B   3      17.266 -20.136 -21.6290  0.00  0.00     0.000 O
BRANCH 30 34
ATOM     31  C1  BGC B   3      18.043 -24.140 -21.0920  0.00  0.00     0.000 C
ATOM     32  C2  BGC B   3      18.181 -23.291 -19.8280  0.00  0.00     0.000 C
ATOM     33  C3  BGC B   3      17.497 -21.955 -20.0560  0.00  0.00     0.000 C
ATOM     34  C4  BGC B   3      18.067 -21.276 -21.3010  0.00  0.00     0.000 C
ATOM     35  C5  BGC B   3      18.029 -22.225 -22.4860  0.00  0.00     0.000 C
ATOM     36  O5  BGC B   3      18.697 -23.444 -22.1400  0.00  0.00     0.000 O
ATOM     37   O  BGC B   3      17.535 -23.949 -18.7400  0.00  0.00     0.000 O
ATOM     39  HD  BGC B   3      17.880 -23.364 -18.2030  0.00  0.00     0.000 HD
ATOM     39   O  BGC B   3      17.697 -21.145 -18.9080  0.00  0.00     0.000 O
ATOM     41  HD  BGC B   3      18.042 -20.560 -18.3710  0.00  0.00     0.000 HD
ATOM     41   C  BGC B   3      18.664 -21.662 -23.7520  0.00  0.00     0.000 C
ATOM     42   O  BGC B   3      20.003 -21.305 -23.5070  0.00  0.00     0.000 O
ATOM     44  HD  BGC B   3      20.348 -20.719 -22.9700  0.00  0.00     0.000 HD
BRANCH 31 44
ATOM     44  O4  BGC B   4      18.772 -25.321 -20.8800  0.00  0.00     0.000 O
BRANCH 44 48
ATOM     45  C1  BGC B   4      18.500 -29.365 -21.4980  0.00  0.00     0.000 C
ATOM     46  C2  BGC B   4      18.857 -28.553 -22.7360  0.00  0.00     0.000 C
ATOM     47  C3  BGC B   4      19.309 -27.175 -22.3200  0.00  0.00     0.000 C
ATOM     48  C4  BGC B   4      18.251 -26.514 -21.4300  0.00  0.00     0.000 C
ATOM     49  C5  BGC B   4      17.873 -27.437 -20.2650  0.00  0.00     0.000 C
ATOM     50  O5  BGC B   4      17.456 -28.713 -20.7740  0.00  0.00     0.000 O
ATOM     51   O  BGC B   4      19.921 -29.198 -23.4590  0.00  0.00     0.000 O
ATOM     53  HD  BGC B   4      20.379 -28.574 -23.0710  0.00  0.00     0.000 HD
ATOM     53   O  BGC B   4      19.515 -26.381 -23.4980  0.00  0.00     0.000 O
ATOM     55  HD  BGC B   4      19.972 -25.757 -23.1090  0.00  0.00     0.000 HD
ATOM     55   C  BGC B   4      16.745 -26.917 -19.3920  0.00  0.00     0.000 C
ATOM     56   O  BGC B   4      15.626 -26.651 -20.2390  0.00  0.00     0.000 O
ATOM     58  HD  BGC B   4      16.083 -26.026 -19.8510  0.00  0.00     0.000 HD
BRANCH 45 58
ATOM     58  O4  BGC B   5      17.848 -30.540 -21.9760  0.00  0.00     0.000 O
BRANCH 58 62
ATOM     59  C1  BGC B   5      18.336 -34.382 -20.5080  0.00  0.00     0.000 C
ATOM     60  C2  BGC B   5      16.923 -34.016 -20.9140  0.00  0.00     0.000 C
ATOM     61  C3  BGC B   5      16.925 -32.786 -21.8010  0.00  0.00     0.000 C
ATOM     62  C4  BGC B   5      17.660 -31.654 -21.1000  0.00  0.00     0.000 C
ATOM     63  C5  BGC B   5      19.052 -32.114 -20.6450  0.00  0.00     0.000 C
ATOM     64  O5  BGC B   5      18.910 -33.266 -19.8200  0.00  0.00     0.000 O
ATOM     65   O  BGC B   5      18.954 -30.751 -18.7400  0.00  0.00     0.000 O
ATOM     67  HD  BGC B   5      18.550 -30.051 -18.4290  0.00  0.00     0.000 HD
ATOM     67   O  BGC B   5      18.954 -30.751 -18.7400  0.00  0.00     0.000 O
ATOM     69  HD  BGC B   5      18.550 -30.051 -18.4290  0.00  0.00     0.000 HD
ENDBRANCH 58 62
ENDBRANCH 45 58
ENDBRANCH 44 48
ENDBRANCH 31 44
ENDBRANCH 30 34
ENDBRANCH 17 30
ENDBRANCH 16 20
ENDBRANCH 1 16
TORSDOF 8
ENDMDL
MODEL 80
REMARK VINA RESULT:      -7.0      9.296     21.068
ROOT
ATOM      1  C1  BGC B   1      17.806 -25.029 -20.2270  0.00  0.00     0.000 C
ATOM      2  C2  BGC B   1      16.501 -25.820 -20.1540  0.00  0.00     0.000 C
ATOM      3  C3  BGC B   1      16.741 -27.260 -20.5640  0.00  0.00     0.000 C
ATOM      4  C4  BGC B   1      17.451 -27.327 -21.9100  0.00  0.00     0.000 C
ATOM      5  C5  BGC B   1      18.731 -26.510 -21.8210  0.00  0.00     0.000 C
ATOM      6  O5  BGC B   1      18.356 -25.151 -21.5310  0.00  0.00     0.000 O
ATOM      7   O  BGC B   1      16.003 -25.787 -18.8070  0.00  0.00     0.000 O
ATOM      9  HD  BGC B   1      15.514 -26.452 -18.5420  0.00  0.00     0.000 HD
ATOM      9   O  BGC B   1      15.485 -27.942 -20.6150  0.00  0.00     0.000 O
ATOM     11  HD  BGC B   1      14.996 -28.606 -20.3510  0.00  0.00     0.000 HD
ATOM     11   O  BGC B   1      17.757 -28.669 -22.2180  0.00  0.00     0.000 O
ATOM     13  HD  BGC B   1      17.268 -29.333 -21.9540  0.00  0.00     0.000 HD
ATOM     13   C  BGC B   1      19.583 -26.518 -23.0820  0.00  0.00     0.000 C
ATOM     14   O  BGC B   1      18.855 -26.095 -24.2310  0.00  0.00     0.000 O
ATOM     16  HD  BGC B   1      18.367 -26.759 -23.9670  0.00  0.00     0.000 HD
ENDROOT
BRANCH 1 16
ATOM     16  O4  BGC B   2      17.446 -23.654 -20.1020  0.00  0.00     0.000 O
BRANCH 16 20
ATOM     17  C1  BGC B   2      19.228 -20.018 -19.7250  0.00  0.00     0.000 C
ATOM     18  C2  BGC B   2      18.905 -20.395 -21.1640  0.00  0.00     0.000 C
ATOM     19  C3  BGC B   2      17.934 -21.573 -21.1510  0.00  0.00     0.000 C
ATOM     20  C4  BGC B   2      18.491 -22.709 -20.3180  0.00  0.00     0.000 C
ATOM     21  C5  BGC B   2      18.978 -22.243 -18.9460  0.00  0.00     0.000 C
ATOM     22  O5  BGC B   2      19.888 -21.152 -19.1320  0.00  0.00     0.000 O
ATOM     23   O  BGC B   2      18.290 -19.285 -21.8390  0.00  0.00     0.000 O
ATOM     25  HD  BGC B   2      17.984 -20.020 -21.4970  0.00  0.00     0.000 HD
ATOM     25   O  BGC B   2      17.686 -22.011 -22.4810  0.00  0.00     0.000 O
ATOM     27  HD  BGC B   2      17.381 -22.746 -22.1390  0.00  0.00     0.000 HD
ATOM     27   C  BGC B   2      19.711 -23.332 -18.1740  0.00  0.00     0.000 C
ATOM     28   O  BGC B   2      20.815 -23.876 -18.8790  0.00  0.00     0.000 O
ATOM     30  HD  BGC B   2      20.509 -24.611 -18.5370  0.00  0.00     0.000 HD
BRANCH 17 30
ATOM     30  O4  BGC B   3      20.212 -19.003 -19.7790  0.00  0.00     0.000 O
BRANCH 30 34
ATOM     31  C1  BGC B   3      21.504 -15.739 -17.6330  0.00  0.00     0.000 C
ATOM     32  C2  BGC B   3      21.625 -17.072 -16.8950  0.00  0.00     0.000 C
ATOM     33  C3  BGC B   3      21.505 -18.203 -17.9010  0.00  0.00     0.000 C
ATOM     34  C4  BGC B   3      20.205 -18.071 -18.6930  0.00  0.00     0.000 C
ATOM     35  C5  BGC B   3      20.082 -16.676 -19.2790  0.00  0.00     0.000 C
ATOM     36  O5  BGC B   3      20.219 -15.706 -18.2350  0.00  0.00     0.000 O
ATOM     37   O  BGC B   3      22.905 -17.156 -16.2720  0.00  0.00     0.000 O
ATOM     39  HD  BGC B   3      22.639 -17.869 -15.8600  0.00  0.00     0.000 HD
ATOM     39   O  BGC B   3      21.542 -19.436 -17.1980  0.00  0.00     0.000 O
ATOM     41  HD  BGC B   3      21.276 -20.149 -16.7860  0.00  0.00     0.000 HD
ATOM     41   C  BGC B   3      18.768 -16.425 -20.0110  0.00  0.00     0.000 C
ATOM     42   O  BGC B   3      17.680 -16.643 -19.1430  0.00  0.00     0.000 O
ATOM     44  HD  BGC B   3      17.414 -17.356 -18.7310  0.00  0.00     0.000 HD
BRANCH 31 44
ATOM     44  O4  BGC B   4      21.516 -14.724 -16.6620  0.00  0.00     0.000 O
BRANCH 44 48
ATOM     45  C1  BGC B   4      22.699 -10.835 -16.1320  0.00  0.00     0.000 C
ATOM     46  C2  BGC B   4      21.541 -11.023 -17.1020  0.00  0.00     0.000 C
ATOM     47  C3  BGC B   4      20.949 -12.399 -16.9180  0.00  0.00     0.000 C
ATOM     48  C4  BGC B   4      22.039 -13.468 -17.0430  0.00  0.00     0.000 C
ATOM     49  C5  BGC B   4      23.214 -13.151 -16.1090  0.00  0.00     0.000 C
ATOM     50  O5  BGC B   4      23.699 -11.827 -16.3730  0.00  0.00     0.000 O
ATOM     51   O  BGC B   4      20.523 -10.036 -16.8510  0.00  0.00     0.000 O
ATOM     53  HD  BGC B   4      20.150 -10.717 -16.4690  0.00  0.00     0.000 HD
ATOM     53   O  BGC B   4      19.947 -12.609 -17.9240  0.00  0.00     0.000 O
ATOM     55  HD  BGC B   4      19.574 -13.291 -17.5410  0.00  0.00     0.000 HD
ATOM     55   C  BGC B   4      24.396 -14.093 -16.2460  0.00  0.00     0.000 C
ATOM     56   O  BGC B   4      24.797 -14.092 -17.6180  0.00  0.00     0.000 O
ATOM     58  HD  BGC B   4      24.424 -14.774 -17.2350  0.00  0.00     0.000 HD
BRANCH 45 58
ATOM     58  O4  BGC B   5      23.359  -9.637 -16.5390  0.00  0.00     0.000 O
BRANCH 58 62
ATOM     59  C1  BGC B   5      26.092  -6.807 -15.2450  0.00  0.00     0.000 C
ATOM     60  C2  BGC B   5      26.604  -8.233 -15.2910  0.00  0.00     0.000 C
ATOM     61  C3  BGC B   5      25.700  -9.097 -16.1490  0.00  0.00     0.000 C
ATOM     62  C4  BGC B   5      24.269  -8.990 -15.6460  0.00  0.00     0.000 C
ATOM     63  C5  BGC B   5      23.839  -7.519 -15.5470  0.00  0.00     0.000 C
ATOM     64  O5  BGC B   5      24.763  -6.824 -14.7160  0.00  0.00     0.000 O
ATOM     65   O  BGC B   5      22.503  -7.964 -13.6730  0.00  0.00     0.000 O
ATOM     67  HD  BGC B   5      22.097  -8.615 -13.2700  0.00  0.00     0.000 HD
ATOM     67   O  BGC B   5      22.503  -7.964 -13.6730  0.00  0.00     0.000 O
ATOM     69  HD  BGC B   5      22.097  -8.615 -13.2700  0.00  0.00     0.000 HD
ENDBRANCH 58 62
ENDBRANCH 45 58
ENDBRANCH 44 48
ENDBRANCH 31 44
ENDBRANCH 30 34
ENDBRANCH 17 30
ENDBRANCH 16 20
ENDBRANCH 1 16
TORSDOF 8
ENDMDL
MODEL 81
REMARK VINA RESULT:      -7.0      6.733     19.968
ROOT
ATOM      1  C1  BGC B   1      18.279 -22.226 -24.7290  0.00  0.00     0.000 C
ATOM      2  C2  BGC B   1      18.158 -23.632 -24.1430  0.00  0.00     0.000 C
ATOM      3  C3  BGC B   1      18.275 -24.668 -25.2450  0.00  0.00     0.000 C
ATOM      4  C4  BGC B   1      17.299 -24.364 -26.3750  0.00  0.00     0.000 C
ATOM      5  C5  BGC B   1      17.551 -22.944 -26.8610  0.00  0.00     0.000 C
ATOM      6  O5  BGC B   1      17.307 -22.060 -25.7520  0.00  0.00     0.000 O
ATOM      7   O  BGC B   1      19.212 -23.839 -23.1870  0.00  0.00     0.000 O
ATOM      9  HD  BGC B   1      19.486 -24.650 -23.0600  0.00  0.00     0.000 HD
ATOM      9   O  BGC B   1      18.026 -25.963 -24.6910  0.00  0.00     0.000 O
ATOM     11  HD  BGC B   1      18.300 -26.774 -24.5630  0.00  0.00     0.000 HD
ATOM     11   O  BGC B   1      17.499 -25.277 -27.4320  0.00  0.00     0.000 O
ATOM     13  HD  BGC B   1      17.774 -26.088 -27.3050  0.00  0.00     0.000 HD
ATOM     13   C  BGC B   1      16.681 -22.505 -28.0300  0.00  0.00     0.000 C
ATOM     14   O  BGC B   1      15.291 -22.650 -27.7560  0.00  0.00     0.000 O
ATOM     16  HD  BGC B   1      15.565 -23.461 -27.6280  0.00  0.00     0.000 HD
ENDROOT
BRANCH 1 16
ATOM     16  O4  BGC B   2      17.887 -21.328 -23.6930  0.00  0.00     0.000 O
BRANCH 16 20
ATOM     17  C1  BGC B   2      18.640 -17.602 -22.2490  0.00  0.00     0.000 C
ATOM     18  C2  BGC B   2      17.830 -17.606 -23.5370  0.00  0.00     0.000 C
ATOM     19  C3  BGC B   2      17.306 -19.021 -23.7760  0.00  0.00     0.000 C
ATOM     20  C4  BGC B   2      18.446 -20.019 -23.7520  0.00  0.00     0.000 C
ATOM     21  C5  BGC B   2      19.345 -19.848 -22.5270  0.00  0.00     0.000 C
ATOM     22  O5  BGC B   2      19.763 -18.479 -22.4550  0.00  0.00     0.000 O
ATOM     23   O  BGC B   2      16.716 -16.705 -23.4230  0.00  0.00     0.000 O
ATOM     25  HD  BGC B   2      16.794 -17.567 -23.3790  0.00  0.00     0.000 HD
ATOM     25   O  BGC B   2      16.624 -19.080 -25.0230  0.00  0.00     0.000 O
ATOM     27  HD  BGC B   2      16.702 -19.942 -24.9790  0.00  0.00     0.000 HD
ATOM     27   C  BGC B   2      20.597 -20.714 -22.5840  0.00  0.00     0.000 C
ATOM     28   O  BGC B   2      21.379 -20.495 -23.7480  0.00  0.00     0.000 O
ATOM     30  HD  BGC B   2      21.457 -21.356 -23.7030  0.00  0.00     0.000 HD
BRANCH 17 30
ATOM     30  O4  BGC B   3      19.200 -16.309 -22.1220  0.00  0.00     0.000 O
BRANCH 30 34
ATOM     31  C1  BGC B   3      20.019 -13.508 -19.2220  0.00  0.00     0.000 C
ATOM     32  C2  BGC B   3      20.940 -14.727 -19.2050  0.00  0.00     0.000 C
ATOM     33  C3  BGC B   3      20.805 -15.464 -20.5260  0.00  0.00     0.000 C
ATOM     34  C4  BGC B   3      19.341 -15.821 -20.7840  0.00  0.00     0.000 C
ATOM     35  C5  BGC B   3      18.464 -14.589 -20.6440  0.00  0.00     0.000 C
ATOM     36  O5  BGC B   3      18.691 -13.986 -19.3660  0.00  0.00     0.000 O
ATOM     37   O  BGC B   3      22.293 -14.298 -19.0640  0.00  0.00     0.000 O
ATOM     39  HD  BGC B   3      22.525 -15.125 -18.9480  0.00  0.00     0.000 HD
ATOM     39   O  BGC B   3      21.604 -16.635 -20.4720  0.00  0.00     0.000 O
ATOM     41  HD  BGC B   3      21.837 -17.461 -20.3560  0.00  0.00     0.000 HD
ATOM     41   C  BGC B   3      16.973 -14.870 -20.7950  0.00  0.00     0.000 C
ATOM     42   O  BGC B   3      16.560 -15.824 -19.8450  0.00  0.00     0.000 O
ATOM     44  HD  BGC B   3      16.792 -16.650 -19.7290  0.00  0.00     0.000 HD
BRANCH 31 44
ATOM     44  O4  BGC B   4      20.094 -12.912 -17.9520  0.00  0.00     0.000 O
BRANCH 44 48
ATOM     45  C1  BGC B   4      19.744  -9.235 -16.1750  0.00  0.00     0.000 C
ATOM     46  C2  BGC B   4      18.673  -9.547 -17.2100  0.00  0.00     0.000 C
ATOM     47  C3  BGC B   4      18.666 -11.029 -17.4960  0.00  0.00     0.000 C
ATOM     48  C4  BGC B   4      20.068 -11.501 -17.8940  0.00  0.00     0.000 C
ATOM     49  C5  BGC B   4      21.102 -11.059 -16.8510  0.00  0.00     0.000 C
ATOM     50  O5  BGC B   4      21.025  -9.639 -16.6630  0.00  0.00     0.000 O
ATOM     51   O  BGC B   4      17.379  -9.158 -16.7140  0.00  0.00     0.000 O
ATOM     53  HD  BGC B   4      17.324 -10.012 -16.5830  0.00  0.00     0.000 HD
ATOM     53   O  BGC B   4      17.746 -11.289 -18.5650  0.00  0.00     0.000 O
ATOM     55  HD  BGC B   4      17.691 -12.144 -18.4340  0.00  0.00     0.000 HD
ATOM     55   C  BGC B   4      22.540 -11.381 -17.2170  0.00  0.00     0.000 C
ATOM     56   O  BGC B   4      22.802 -10.804 -18.4980  0.00  0.00     0.000 O
ATOM     58  HD  BGC B   4      22.748 -11.659 -18.3670  0.00  0.00     0.000 HD
BRANCH 45 58
ATOM     58  O4  BGC B   5      19.864  -7.813 -16.1520  0.00  0.00     0.000 O
BRANCH 58 62
ATOM     59  C1  BGC B   5      20.394  -4.616 -13.5750  0.00  0.00     0.000 C
ATOM     60  C2  BGC B   5      21.476  -5.676 -13.5260  0.00  0.00     0.000 C
ATOM     61  C3  BGC B   5      21.415  -6.556 -14.7600  0.00  0.00     0.000 C
ATOM     62  C4  BGC B   5      20.016  -7.133 -14.9040  0.00  0.00     0.000 C
ATOM     63  C5  BGC B   5      18.963  -6.015 -14.8660  0.00  0.00     0.000 C
ATOM     64  O5  BGC B   5      19.125  -5.271 -13.6630  0.00  0.00     0.000 O
ATOM     65   O  BGC B   5      17.422  -7.410 -13.7830  0.00  0.00     0.000 O
ATOM     67  HD  BGC B   5      17.243  -8.247 -13.6500  0.00  0.00     0.000 HD
ATOM     67   O  BGC B   5      17.422  -7.410 -13.7830  0.00  0.00     0.000 O
ATOM     69  HD  BGC B   5      17.243  -8.247 -13.6500  0.00  0.00     0.000 HD
ENDBRANCH 58 62
ENDBRANCH 45 58
ENDBRANCH 44 48
ENDBRANCH 31 44
ENDBRANCH 30 34
ENDBRANCH 17 30
ENDBRANCH 16 20
ENDBRANCH 1 16
TORSDOF 8
ENDMDL
MODEL 82
REMARK VINA RESULT:      -7.0     22.467     25.909
ROOT
ATOM      1  C1  BGC B   1      18.130 -16.767   3.5500  0.00  0.00     0.000 C
ATOM      2  C2  BGC B   1      19.393 -17.133   2.7710  0.00  0.00     0.000 C
ATOM      3  C3  BGC B   1      20.625 -16.813   3.5970  0.00  0.00     0.000 C
ATOM      4  C4  BGC B   1      20.580 -15.375   4.0970  0.00  0.00     0.000 C
ATOM      5  C5  BGC B   1      19.280 -15.170   4.8610  0.00  0.00     0.000 C
ATOM      6  O5  BGC B   1      18.199 -15.403   3.9400  0.00  0.00     0.000 O
ATOM      7   O  BGC B   1      19.375 -18.538   2.4730  0.00  0.00     0.000 O
ATOM      9  HD  BGC B   1      20.137 -18.940   2.3770  0.00  0.00     0.000 HD
ATOM      9   O  BGC B   1      21.789 -17.039   2.7970  0.00  0.00     0.000 O
ATOM     11  HD  BGC B   1      22.551 -17.440   2.7010  0.00  0.00     0.000 HD
ATOM     11   O  BGC B   1      21.680 -15.135   4.9470  0.00  0.00     0.000 O
ATOM     13  HD  BGC B   1      22.442 -15.536   4.8520  0.00  0.00     0.000 HD
ATOM     13   C  BGC B   1      19.108 -13.786   5.4700  0.00  0.00     0.000 C
ATOM     14   O  BGC B   1      19.232 -12.749   4.5020  0.00  0.00     0.000 O
ATOM     16  HD  BGC B   1      19.994 -13.150   4.4060  0.00  0.00     0.000 HD
ENDROOT
BRANCH 1 16
ATOM     16  O4  BGC B   2      17.054 -16.834   2.6160  0.00  0.00     0.000 O
BRANCH 16 20
ATOM     17  C1  BGC B   2      13.258 -18.280   2.7990  0.00  0.00     0.000 C
ATOM     18  C2  BGC B   2      13.329 -16.780   2.5560  0.00  0.00     0.000 C
ATOM     19  C3  BGC B   2      14.756 -16.422   2.1470  0.00  0.00     0.000 C
ATOM     20  C4  BGC B   2      15.746 -16.936   3.1730  0.00  0.00     0.000 C
ATOM     21  C5  BGC B   2      15.511 -18.406   3.5240  0.00  0.00     0.000 C
ATOM     22  O5  BGC B   2      14.138 -18.571   3.9000  0.00  0.00     0.000 O
ATOM     23   O  BGC B   2      12.430 -16.406   1.5000  0.00  0.00     0.000 O
ATOM     25  HD  BGC B   2      13.287 -16.518   1.5410  0.00  0.00     0.000 HD
ATOM     25   O  BGC B   2      14.881 -15.012   2.0060  0.00  0.00     0.000 O
ATOM     27  HD  BGC B   2      15.739 -15.124   2.0470  0.00  0.00     0.000 HD
ATOM     27   C  BGC B   2      16.371 -18.883   4.6870  0.00  0.00     0.000 C
ATOM     28   O  BGC B   2      16.206 -18.109   5.8640  0.00  0.00     0.000 O
ATOM     30  HD  BGC B   2      17.064 -18.221   5.9060  0.00  0.00     0.000 HD
BRANCH 17 30
ATOM     30  O4  BGC B   3      11.957 -18.555   3.2830  0.00  0.00     0.000 O
BRANCH 30 34
ATOM     31  C1  BGC B   3       9.372 -21.726   2.8540  0.00  0.00     0.000 C
ATOM     32  C2  BGC B   3       9.943 -21.559   4.2610  0.00  0.00     0.000 C
ATOM     33  C3  BGC B   3      10.538 -20.168   4.3880  0.00  0.00     0.000 C
ATOM     34  C4  BGC B   3      11.573 -19.933   3.2890  0.00  0.00     0.000 C
ATOM     35  C5  BGC B   3      10.981 -20.256   1.9280  0.00  0.00     0.000 C
ATOM     36  O5  BGC B   3      10.450 -21.585   1.9420  0.00  0.00     0.000 O
ATOM     37   O  BGC B   3       8.894 -21.691   5.2190  0.00  0.00     0.000 O
ATOM     39  HD  BGC B   3       9.491 -21.699   5.8460  0.00  0.00     0.000 HD
ATOM     39   O  BGC B   3      11.134 -20.049   5.6710  0.00  0.00     0.000 O
ATOM     41  HD  BGC B   3      11.730 -20.056   6.2990  0.00  0.00     0.000 HD
ATOM     41   C  BGC B   3      11.973 -20.137   0.7770  0.00  0.00     0.000 C
ATOM     42   O  BGC B   3      13.076 -20.985   0.9970  0.00  0.00     0.000 O
ATOM     44  HD  BGC B   3      13.672 -20.993   1.6250  0.00  0.00     0.000 HD
BRANCH 31 44
ATOM     44  O4  BGC B   4       8.925 -23.053   2.7410  0.00  0.00     0.000 O
BRANCH 44 48
ATOM     45  C1  BGC B   4       7.091 -25.559   0.0650  0.00  0.00     0.000 C
ATOM     46  C2  BGC B   4       8.573 -25.326  -0.1920  0.00  0.00     0.000 C
ATOM     47  C3  BGC B   4       9.210 -24.733   1.0410  0.00  0.00     0.000 C
ATOM     48  C4  BGC B   4       8.453 -23.475   1.4780  0.00  0.00     0.000 C
ATOM     49  C5  BGC B   4       6.954 -23.768   1.6150  0.00  0.00     0.000 C
ATOM     50  O5  BGC B   4       6.454 -24.321   0.3890  0.00  0.00     0.000 O
ATOM     51   O  BGC B   4       9.221 -26.574  -0.5020  0.00  0.00     0.000 O
ATOM     53  HD  BGC B   4       9.478 -26.487   0.3210  0.00  0.00     0.000 HD
ATOM     53   O  BGC B   4      10.573 -24.399   0.7420  0.00  0.00     0.000 O
ATOM     55  HD  BGC B   4      10.830 -24.312   1.5640  0.00  0.00     0.000 HD
ATOM     55   C  BGC B   4       6.104 -22.551   1.9330  0.00  0.00     0.000 C
ATOM     56   O  BGC B   4       6.359 -21.567   0.9290  0.00  0.00     0.000 O
ATOM     58  HD  BGC B   4       6.616 -21.480   1.7510  0.00  0.00     0.000 HD
BRANCH 45 58
ATOM     58  O4  BGC B   5       6.518 -25.869  -1.2050  0.00  0.00     0.000 O
BRANCH 58 62
ATOM     59  C1  BGC B   5       3.193 -27.837  -2.6950  0.00  0.00     0.000 C
ATOM     60  C2  BGC B   5       3.089 -27.385  -1.2530  0.00  0.00     0.000 C
ATOM     61  C3  BGC B   5       4.145 -26.341  -0.9430  0.00  0.00     0.000 C
ATOM     62  C4  BGC B   5       5.518 -26.886  -1.3030  0.00  0.00     0.000 C
ATOM     63  C5  BGC B   5       5.534 -27.400  -2.7500  0.00  0.00     0.000 C
ATOM     64  O5  BGC B   5       4.505 -28.371  -2.9060  0.00  0.00     0.000 O
ATOM     65   O  BGC B   5       7.045 -29.106  -2.2000  0.00  0.00     0.000 O
ATOM     67  HD  BGC B   5       7.636 -29.320  -1.6040  0.00  0.00     0.000 HD
ATOM     67   O  BGC B   5       7.045 -29.106  -2.2000  0.00  0.00     0.000 O
ATOM     69  HD  BGC B   5       7.636 -29.320  -1.6040  0.00  0.00     0.000 HD
ENDBRANCH 58 62
ENDBRANCH 45 58
ENDBRANCH 44 48
ENDBRANCH 31 44
ENDBRANCH 30 34
ENDBRANCH 17 30
ENDBRANCH 16 20
ENDBRANCH 1 16
TORSDOF 8
ENDMDL
MODEL 83
REMARK VINA RESULT:      -7.0     14.687     22.514
ROOT
ATOM      1  C1  BGC B   1      17.709 -26.011 -20.8250  0.00  0.00     0.000 C
ATOM      2  C2  BGC B   1      16.538 -26.879 -20.3680  0.00  0.00     0.000 C
ATOM      3  C3  BGC B   1      17.049 -28.195 -19.8140  0.00  0.00     0.000 C
ATOM      4  C4  BGC B   1      17.990 -28.868 -20.8060  0.00  0.00     0.000 C
ATOM      5  C5  BGC B   1      19.105 -27.892 -21.1520  0.00  0.00     0.000 C
ATOM      6  O5  BGC B   1      18.495 -26.739 -21.7600  0.00  0.00     0.000 O
ATOM      7   O  BGC B   1      15.808 -26.185 -19.3420  0.00  0.00     0.000 O
ATOM      9  HD  BGC B   1      15.379 -26.663 -18.7610  0.00  0.00     0.000 HD
ATOM      9   O  BGC B   1      15.932 -29.038 -19.5190  0.00  0.00     0.000 O
ATOM     11  HD  BGC B   1      15.503 -29.515 -18.9370  0.00  0.00     0.000 HD
ATOM     11   O  BGC B   1      18.533 -30.034 -20.2270  0.00  0.00     0.000 O
ATOM     13  HD  BGC B   1      18.104 -30.512 -19.6450  0.00  0.00     0.000 HD
ATOM     13   C  BGC B   1      20.160 -28.439 -22.1020  0.00  0.00     0.000 C
ATOM     14   O  BGC B   1      19.596 -28.929 -23.3150  0.00  0.00     0.000 O
ATOM     16  HD  BGC B   1      19.167 -29.407 -22.7330  0.00  0.00     0.000 HD
ENDROOT
BRANCH 1 16
ATOM     16  O4  BGC B   2      17.142 -24.938 -21.5730  0.00  0.00     0.000 O
BRANCH 16 20
ATOM     17  C1  BGC B   2      17.891 -21.108 -22.7180  0.00  0.00     0.000 C
ATOM     18  C2  BGC B   2      18.694 -22.145 -23.4900  0.00  0.00     0.000 C
ATOM     19  C3  BGC B   2      18.076 -23.519 -23.2420  0.00  0.00     0.000 C
ATOM     20  C4  BGC B   2      17.970 -23.792 -21.7560  0.00  0.00     0.000 C
ATOM     21  C5  BGC B   2      17.325 -22.634 -20.9950  0.00  0.00     0.000 C
ATOM     22  O5  BGC B   2      18.026 -21.427 -21.3210  0.00  0.00     0.000 O
ATOM     23   O  BGC B   2      18.650 -21.857 -24.8970  0.00  0.00     0.000 O
ATOM     25  HD  BGC B   2      18.245 -22.433 -24.3930  0.00  0.00     0.000 HD
ATOM     25   O  BGC B   2      18.861 -24.524 -23.8730  0.00  0.00     0.000 O
ATOM     27  HD  BGC B   2      18.455 -25.101 -23.3690  0.00  0.00     0.000 HD
ATOM     27   C  BGC B   2      17.383 -22.811 -19.4830  0.00  0.00     0.000 C
ATOM     28   O  BGC B   2      18.700 -22.993 -18.9880  0.00  0.00     0.000 O
ATOM     30  HD  BGC B   2      18.294 -23.569 -18.4840  0.00  0.00     0.000 HD
BRANCH 17 30
ATOM     30  O4  BGC B   3      18.558 -19.871 -22.8800  0.00  0.00     0.000 O
BRANCH 30 34
ATOM     31  C1  BGC B   3      17.711 -15.919 -23.6500  0.00  0.00     0.000 C
ATOM     32  C2  BGC B   3      17.337 -16.386 -22.2440  0.00  0.00     0.000 C
ATOM     33  C3  BGC B   3      18.046 -17.698 -21.9570  0.00  0.00     0.000 C
ATOM     34  C4  BGC B   3      17.715 -18.725 -23.0380  0.00  0.00     0.000 C
ATOM     35  C5  BGC B   3      17.975 -18.144 -24.4170  0.00  0.00     0.000 C
ATOM     36  O5  BGC B   3      17.260 -16.912 -24.5570  0.00  0.00     0.000 O
ATOM     37   O  BGC B   3      17.772 -15.419 -21.2900  0.00  0.00     0.000 O
ATOM     39  HD  BGC B   3      17.331 -15.847 -20.6800  0.00  0.00     0.000 HD
ATOM     39   O  BGC B   3      17.633 -18.163 -20.6810  0.00  0.00     0.000 O
ATOM     41  HD  BGC B   3      17.192 -18.591 -20.0700  0.00  0.00     0.000 HD
ATOM     41   C  BGC B   3      17.585 -19.070 -25.5640  0.00  0.00     0.000 C
ATOM     42   O  BGC B   3      16.222 -19.409 -25.4710  0.00  0.00     0.000 O
ATOM     44  HD  BGC B   3      15.781 -19.837 -24.8610  0.00  0.00     0.000 HD
BRANCH 31 44
ATOM     44  O4  BGC B   4      16.960 -14.763 -23.9170  0.00  0.00     0.000 O
BRANCH 44 48
ATOM     45  C1  BGC B   4      16.956 -11.498 -26.3960  0.00  0.00     0.000 C
ATOM     46  C2  BGC B   4      16.439 -12.781 -27.0310  0.00  0.00     0.000 C
ATOM     47  C3  BGC B   4      16.120 -13.784 -25.9500  0.00  0.00     0.000 C
ATOM     48  C4  BGC B   4      17.334 -13.990 -25.0390  0.00  0.00     0.000 C
ATOM     49  C5  BGC B   4      17.855 -12.643 -24.5230  0.00  0.00     0.000 C
ATOM     50  O5  BGC B   4      18.130 -11.773 -25.6310  0.00  0.00     0.000 O
ATOM     51   O  BGC B   4      15.245 -12.510 -27.7890  0.00  0.00     0.000 O
ATOM     53  HD  BGC B   4      14.884 -12.861 -27.0850  0.00  0.00     0.000 HD
ATOM     53   O  BGC B   4      15.760 -15.029 -26.5660  0.00  0.00     0.000 O
ATOM     55  HD  BGC B   4      15.399 -15.380 -25.8620  0.00  0.00     0.000 HD
ATOM     55   C  BGC B   4      19.130 -12.736 -23.7040  0.00  0.00     0.000 C
ATOM     56   O  BGC B   4      20.108 -13.411 -24.4960  0.00  0.00     0.000 O
ATOM     58  HD  BGC B   4      19.747 -13.762 -23.7910  0.00  0.00     0.000 HD
BRANCH 45 58
ATOM     58  O4  BGC B   5      17.472 -10.711 -27.4690  0.00  0.00     0.000 O
BRANCH 58 62
ATOM     59  C1  BGC B   5      18.849  -6.908 -28.3590  0.00  0.00     0.000 C
ATOM     60  C2  BGC B   5      19.503  -7.573 -27.1650  0.00  0.00     0.000 C
ATOM     61  C3  BGC B   5      19.244  -9.068 -27.1800  0.00  0.00     0.000 C
ATOM     62  C4  BGC B   5      17.748  -9.323 -27.2630  0.00  0.00     0.000 C
ATOM     63  C5  BGC B   5      17.133  -8.558 -28.4440  0.00  0.00     0.000 C
ATOM     64  O5  BGC B   5      17.444  -7.175 -28.3080  0.00  0.00     0.000 O
ATOM     65   O  BGC B   5      15.134  -8.213 -27.2680  0.00  0.00     0.000 O
ATOM     67  HD  BGC B   5      14.675  -8.531 -26.6060  0.00  0.00     0.000 HD
ATOM     67   O  BGC B   5      15.134  -8.213 -27.2680  0.00  0.00     0.000 O
ATOM     69  HD  BGC B   5      14.675  -8.531 -26.6060  0.00  0.00     0.000 HD
ENDBRANCH 58 62
ENDBRANCH 45 58
ENDBRANCH 44 48
ENDBRANCH 31 44
ENDBRANCH 30 34
ENDBRANCH 17 30
ENDBRANCH 16 20
ENDBRANCH 1 16
TORSDOF 8
ENDMDL
MODEL 84
REMARK VINA RESULT:      -6.9      2.758     15.089
ROOT
ATOM      1  C1  BGC B   1      19.378  -5.289 -18.5660  0.00  0.00     0.000 C
ATOM      2  C2  BGC B   1      18.435  -6.483 -18.4330  0.00  0.00     0.000 C
ATOM      3  C3  BGC B   1      18.789  -7.544 -19.4570  0.00  0.00     0.000 C
ATOM      4  C4  BGC B   1      18.857  -6.942 -20.8550  0.00  0.00     0.000 C
ATOM      5  C5  BGC B   1      19.842  -5.782 -20.8320  0.00  0.00     0.000 C
ATOM      6  O5  BGC B   1      19.336  -4.806 -19.9020  0.00  0.00     0.000 O
ATOM      7   O  BGC B   1      18.560  -7.039 -17.1130  0.00  0.00     0.000 O
ATOM      9  HD  BGC B   1      18.388  -7.882 -17.0130  0.00  0.00     0.000 HD
ATOM      9   O  BGC B   1      17.812  -8.587 -19.3990  0.00  0.00     0.000 O
ATOM     11  HD  BGC B   1      17.640  -9.430 -19.2990  0.00  0.00     0.000 HD
ATOM     11   O  BGC B   1      19.290  -7.922 -21.7720  0.00  0.00     0.000 O
ATOM     13  HD  BGC B   1      19.118  -8.765 -21.6730  0.00  0.00     0.000 HD
ATOM     13   C  BGC B   1      20.059  -5.102 -22.1760  0.00  0.00     0.000 C
ATOM     14   O  BGC B   1      18.840  -4.650 -22.7580  0.00  0.00     0.000 O
ATOM     16  HD  BGC B   1      18.668  -5.493 -22.6590  0.00  0.00     0.000 HD
ENDROOT
BRANCH 1 16
ATOM     16  O4  BGC B   2      18.813  -4.245 -17.7760  0.00  0.00     0.000 O
BRANCH 16 20
ATOM     17  C1  BGC B   2      19.868  -0.972 -15.6050  0.00  0.00     0.000 C
ATOM     18  C2  BGC B   2      20.512  -1.025 -16.9830  0.00  0.00     0.000 C
ATOM     19  C3  BGC B   2      19.776  -2.068 -17.8210  0.00  0.00     0.000 C
ATOM     20  C4  BGC B   2      19.739  -3.399 -17.0990  0.00  0.00     0.000 C
ATOM     21  C5  BGC B   2      19.262  -3.263 -15.6520  0.00  0.00     0.000 C
ATOM     22  O5  BGC B   2      20.059  -2.265 -15.0010  0.00  0.00     0.000 O
ATOM     23   O  BGC B   2      20.408   0.255 -17.6260  0.00  0.00     0.000 O
ATOM     25  HD  BGC B   2      19.980  -0.493 -17.7130  0.00  0.00     0.000 HD
ATOM     25   O  BGC B   2      20.415  -2.211 -19.0850  0.00  0.00     0.000 O
ATOM     27  HD  BGC B   2      19.987  -2.959 -19.1710  0.00  0.00     0.000 HD
ATOM     27   C  BGC B   2      19.399  -4.556 -14.8580  0.00  0.00     0.000 C
ATOM     28   O  BGC B   2      20.720  -5.073 -14.8480  0.00  0.00     0.000 O
ATOM     30  HD  BGC B   2      20.292  -5.821 -14.9350  0.00  0.00     0.000 HD
BRANCH 17 30
ATOM     30  O4  BGC B   3      20.644  -0.082 -14.8250  0.00  0.00     0.000 O
BRANCH 30 34
ATOM     31  C1  BGC B   3      19.824   2.977 -12.1990  0.00  0.00     0.000 C
ATOM     32  C2  BGC B   3      20.291   1.681 -11.5370  0.00  0.00     0.000 C
ATOM     33  C3  BGC B   3      20.930   0.794 -12.5910  0.00  0.00     0.000 C
ATOM     34  C4  BGC B   3      19.957   0.561 -13.7470  0.00  0.00     0.000 C
ATOM     35  C5  BGC B   3      19.422   1.886 -14.2620  0.00  0.00     0.000 C
ATOM     36  O5  BGC B   3      18.856   2.626 -13.1750  0.00  0.00     0.000 O
ATOM     37   O  BGC B   3      21.271   1.980 -10.5450  0.00  0.00     0.000 O
ATOM     39  HD  BGC B   3      21.229   1.157 -10.2800  0.00  0.00     0.000 HD
ATOM     39   O  BGC B   3      21.291  -0.437 -11.9840  0.00  0.00     0.000 O
ATOM     41  HD  BGC B   3      21.250  -1.261 -11.7190  0.00  0.00     0.000 HD
ATOM     41   C  BGC B   3      18.371   1.745 -15.3580  0.00  0.00     0.000 C
ATOM     42   O  BGC B   3      17.288   0.974 -14.8960  0.00  0.00     0.000 O
ATOM     44  HD  BGC B   3      17.246   0.150 -14.6300  0.00  0.00     0.000 HD
BRANCH 31 44
ATOM     44  O4  BGC B   4      19.150   3.724 -11.2190  0.00  0.00     0.000 O
BRANCH 44 48
ATOM     45  C1  BGC B   4      18.281   7.633 -10.3410  0.00  0.00     0.000 C
ATOM     46  C2  BGC B   4      17.248   6.929 -11.2100  0.00  0.00     0.000 C
ATOM     47  C3  BGC B   4      17.461   5.437 -11.1370  0.00  0.00     0.000 C
ATOM     48  C4  BGC B   4      18.909   5.089 -11.4940  0.00  0.00     0.000 C
ATOM     49  C5  BGC B   4      19.887   5.913 -10.6470  0.00  0.00     0.000 C
ATOM     50  O5  BGC B   4      19.597   7.311 -10.7950  0.00  0.00     0.000 O
ATOM     51   O  BGC B   4      15.920   7.238 -10.7450  0.00  0.00     0.000 O
ATOM     53  HD  BGC B   4      16.000   6.442 -10.4130  0.00  0.00     0.000 HD
ATOM     53   O  BGC B   4      16.567   4.797 -12.0590  0.00  0.00     0.000 O
ATOM     55  HD  BGC B   4      16.647   4.001 -11.7270  0.00  0.00     0.000 HD
ATOM     55   C  BGC B   4      21.348   5.722 -11.0100  0.00  0.00     0.000 C
ATOM     56   O  BGC B   4      21.491   6.003 -12.4040  0.00  0.00     0.000 O
ATOM     58  HD  BGC B   4      21.570   5.207 -12.0720  0.00  0.00     0.000 HD
BRANCH 45 58
ATOM     58  O4  BGC B   5      18.183   9.020 -10.6620  0.00  0.00     0.000 O
BRANCH 58 62
ATOM     59  C1  BGC B   5      19.999  12.676  -9.9660  0.00  0.00     0.000 C
ATOM     60  C2  BGC B   5      20.879  11.625 -10.6120  0.00  0.00     0.000 C
ATOM     61  C3  BGC B   5      20.035  10.507 -11.1930  0.00  0.00     0.000 C
ATOM     62  C4  BGC B   5      19.125   9.945 -10.1130  0.00  0.00     0.000 C
ATOM     63  C5  BGC B   5      18.320  11.069  -9.4440  0.00  0.00     0.000 C
ATOM     64  O5  BGC B   5      19.225  12.046  -8.9410  0.00  0.00     0.000 O
ATOM     65   O  BGC B   5      18.372   9.969  -7.3750  0.00  0.00     0.000 O
ATOM     67  HD  BGC B   5      18.484   9.183  -7.0290  0.00  0.00     0.000 HD
ATOM     67   O  BGC B   5      18.372   9.969  -7.3750  0.00  0.00     0.000 O
ATOM     69  HD  BGC B   5      18.484   9.183  -7.0290  0.00  0.00     0.000 HD
ENDBRANCH 58 62
ENDBRANCH 45 58
ENDBRANCH 44 48
ENDBRANCH 31 44
ENDBRANCH 30 34
ENDBRANCH 17 30
ENDBRANCH 16 20
ENDBRANCH 1 16
TORSDOF 8
ENDMDL
MODEL 85
REMARK VINA RESULT:      -6.9      5.727     17.787
ROOT
ATOM      1  C1  BGC B   1      22.572 -20.406 -19.1830  0.00  0.00     0.000 C
ATOM      2  C2  BGC B   1      22.724 -21.490 -18.1170  0.00  0.00     0.000 C
ATOM      3  C3  BGC B   1      23.489 -22.672 -18.6810  0.00  0.00     0.000 C
ATOM      4  C4  BGC B   1      22.862 -23.147 -19.9860  0.00  0.00     0.000 C
ATOM      5  C5  BGC B   1      22.793 -21.967 -20.9450  0.00  0.00     0.000 C
ATOM      6  O5  BGC B   1      21.958 -20.965 -20.3360  0.00  0.00     0.000 O
ATOM      7   O  BGC B   1      23.444 -20.953 -16.9950  0.00  0.00     0.000 O
ATOM      9  HD  BGC B   1      23.905 -21.503 -16.5120  0.00  0.00     0.000 HD
ATOM      9   O  BGC B   1      23.501 -23.722 -17.7090  0.00  0.00     0.000 O
ATOM     11  HD  BGC B   1      23.962 -24.272 -17.2260  0.00  0.00     0.000 HD
ATOM     11   O  BGC B   1      23.650 -24.175 -20.5440  0.00  0.00     0.000 O
ATOM     13  HD  BGC B   1      24.112 -24.726 -20.0600  0.00  0.00     0.000 HD
ATOM     13   C  BGC B   1      22.230 -22.295 -22.3210  0.00  0.00     0.000 C
ATOM     14   O  BGC B   1      20.941 -22.897 -22.2500  0.00  0.00     0.000 O
ATOM     16  HD  BGC B   1      21.403 -23.448 -21.7670  0.00  0.00     0.000 HD
ENDROOT
BRANCH 1 16
ATOM     16  O4  BGC B   2      21.621 -19.474 -18.6700  0.00  0.00     0.000 O
BRANCH 16 20
ATOM     17  C1  BGC B   2      20.752 -15.502 -18.7150  0.00  0.00     0.000 C
ATOM     18  C2  BGC B   2      20.247 -16.252 -19.9390  0.00  0.00     0.000 C
ATOM     19  C3  BGC B   2      20.301 -17.750 -19.6470  0.00  0.00     0.000 C
ATOM     20  C4  BGC B   2      21.691 -18.152 -19.1980  0.00  0.00     0.000 C
ATOM     21  C5  BGC B   2      22.231 -17.246 -18.0910  0.00  0.00     0.000 C
ATOM     22  O5  BGC B   2      22.127 -15.884 -18.5250  0.00  0.00     0.000 O
ATOM     23   O  BGC B   2      18.890 -15.877 -20.2240  0.00  0.00     0.000 O
ATOM     25  HD  BGC B   2      19.252 -16.571 -19.8530  0.00  0.00     0.000 HD
ATOM     25   O  BGC B   2      19.926 -18.484 -20.8060  0.00  0.00     0.000 O
ATOM     27  HD  BGC B   2      20.289 -19.177 -20.4350  0.00  0.00     0.000 HD
ATOM     27   C  BGC B   2      23.694 -17.517 -17.7620  0.00  0.00     0.000 C
ATOM     28   O  BGC B   2      24.552 -17.411 -18.8860  0.00  0.00     0.000 O
ATOM     30  HD  BGC B   2      24.914 -18.105 -18.5150  0.00  0.00     0.000 HD
BRANCH 17 30
ATOM     30  O4  BGC B   3      20.794 -14.131 -19.0640  0.00  0.00     0.000 O
BRANCH 30 34
ATOM     31  C1  BGC B   3      20.776 -10.420 -17.2880  0.00  0.00     0.000 C
ATOM     32  C2  BGC B   3      22.018 -11.260 -16.9910  0.00  0.00     0.000 C
ATOM     33  C3  BGC B   3      22.093 -12.398 -17.9930  0.00  0.00     0.000 C
ATOM     34  C4  BGC B   3      20.798 -13.211 -17.9680  0.00  0.00     0.000 C
ATOM     35  C5  BGC B   3      19.597 -12.295 -18.1260  0.00  0.00     0.000 C
ATOM     36  O5  BGC B   3      19.648 -11.267 -17.1320  0.00  0.00     0.000 O
ATOM     37   O  BGC B   3      23.184 -10.453 -17.1370  0.00  0.00     0.000 O
ATOM     39  HD  BGC B   3      23.652 -11.096 -16.7940  0.00  0.00     0.000 HD
ATOM     39   O  BGC B   3      23.204 -13.217 -17.6630  0.00  0.00     0.000 O
ATOM     41  HD  BGC B   3      23.672 -13.860 -17.3210  0.00  0.00     0.000 HD
ATOM     41   C  BGC B   3      18.255 -13.011 -18.0200  0.00  0.00     0.000 C
ATOM     42   O  BGC B   3      18.154 -13.673 -16.7820  0.00  0.00     0.000 O
ATOM     44  HD  BGC B   3      18.622 -14.317 -16.4400  0.00  0.00     0.000 HD
BRANCH 31 44
ATOM     44  O4  BGC B   4      20.685  -9.444 -16.2830  0.00  0.00     0.000 O
BRANCH 44 48
ATOM     45  C1  BGC B   4      18.968  -5.778 -15.6320  0.00  0.00     0.000 C
ATOM     46  C2  BGC B   4      18.077  -6.968 -15.3030  0.00  0.00     0.000 C
ATOM     47  C3  BGC B   4      18.920  -8.215 -15.2010  0.00  0.00     0.000 C
ATOM     48  C4  BGC B   4      19.752  -8.400 -16.4740  0.00  0.00     0.000 C
ATOM     49  C5  BGC B   4      20.541  -7.124 -16.7920  0.00  0.00     0.000 C
ATOM     50  O5  BGC B   4      19.644  -6.006 -16.8700  0.00  0.00     0.000 O
ATOM     51   O  BGC B   4      17.408  -6.749 -14.0460  0.00  0.00     0.000 O
ATOM     53  HD  BGC B   4      18.024  -7.296 -13.7800  0.00  0.00     0.000 HD
ATOM     53   O  BGC B   4      18.054  -9.345 -15.0200  0.00  0.00     0.000 O
ATOM     55  HD  BGC B   4      18.670  -9.892 -14.7540  0.00  0.00     0.000 HD
ATOM     55   C  BGC B   4      21.307  -7.170 -18.1020  0.00  0.00     0.000 C
ATOM     56   O  BGC B   4      20.378  -7.489 -19.1390  0.00  0.00     0.000 O
ATOM     58  HD  BGC B   4      20.994  -8.036 -18.8730  0.00  0.00     0.000 HD
BRANCH 45 58
ATOM     58  O4  BGC B   5      18.085  -4.708 -15.9630  0.00  0.00     0.000 O
BRANCH 58 62
ATOM     59  C1  BGC B   5      17.290  -0.828 -14.7530  0.00  0.00     0.000 C
ATOM     60  C2  BGC B   5      18.181  -0.959 -15.9730  0.00  0.00     0.000 C
ATOM     61  C3  BGC B   5      18.068  -2.350 -16.5670  0.00  0.00     0.000 C
ATOM     62  C4  BGC B   5      18.364  -3.386 -15.4940  0.00  0.00     0.000 C
ATOM     63  C5  BGC B   5      17.486  -3.149 -14.2570  0.00  0.00     0.000 C
ATOM     64  O5  BGC B   5      17.687  -1.817 -13.7980  0.00  0.00     0.000 O
ATOM     65   O  BGC B   5      19.188  -3.888 -12.8240  0.00  0.00     0.000 O
ATOM     67  HD  BGC B   5      19.909  -4.368 -12.8210  0.00  0.00     0.000 HD
ATOM     67   O  BGC B   5      19.188  -3.888 -12.8240  0.00  0.00     0.000 O
ATOM     69  HD  BGC B   5      19.909  -4.368 -12.8210  0.00  0.00     0.000 HD
ENDBRANCH 58 62
ENDBRANCH 45 58
ENDBRANCH 44 48
ENDBRANCH 31 44
ENDBRANCH 30 34
ENDBRANCH 17 30
ENDBRANCH 16 20
ENDBRANCH 1 16
TORSDOF 8
ENDMDL
MODEL 86
REMARK VINA RESULT:      -6.9      5.785     10.265
ROOT
ATOM      1  C1  BGC B   1      21.542  -5.585 -14.6390  0.00  0.00     0.000 C
ATOM      2  C2  BGC B   1      22.186  -4.298 -15.1530  0.00  0.00     0.000 C
ATOM      3  C3  BGC B   1      22.988  -3.640 -14.0470  0.00  0.00     0.000 C
ATOM      4  C4  BGC B   1      22.138  -3.469 -12.7930  0.00  0.00     0.000 C
ATOM      5  C5  BGC B   1      21.583  -4.830 -12.3990  0.00  0.00     0.000 C
ATOM      6  O5  BGC B   1      20.763  -5.292 -13.4870  0.00  0.00     0.000 O
ATOM      7   O  BGC B   1      23.061  -4.612 -16.2490  0.00  0.00     0.000 O
ATOM      9  HD  BGC B   1      23.734  -4.086 -16.3890  0.00  0.00     0.000 HD
ATOM      9   O  BGC B   1      23.467  -2.375 -14.5140  0.00  0.00     0.000 O
ATOM     11  HD  BGC B   1      24.141  -1.849 -14.6540  0.00  0.00     0.000 HD
ATOM     11   O  BGC B   1      22.934  -2.953 -11.7490  0.00  0.00     0.000 O
ATOM     13  HD  BGC B   1      23.608  -2.427 -11.8890  0.00  0.00     0.000 HD
ATOM     13   C  BGC B   1      20.747  -4.834 -11.1270  0.00  0.00     0.000 C
ATOM     14   O  BGC B   1      19.669  -3.904 -11.1840  0.00  0.00     0.000 O
ATOM     16  HD  BGC B   1      20.343  -3.378 -11.3250  0.00  0.00     0.000 HD
ENDROOT
BRANCH 1 16
ATOM     16  O4  BGC B   2      20.601  -5.984 -15.6330  0.00  0.00     0.000 O
BRANCH 16 20
ATOM     17  C1  BGC B   2      18.843  -9.325 -17.1450  0.00  0.00     0.000 C
ATOM     18  C2  BGC B   2      18.153  -8.780 -15.9030  0.00  0.00     0.000 C
ATOM     19  C3  BGC B   2      18.659  -7.361 -15.6510  0.00  0.00     0.000 C
ATOM     20  C4  BGC B   2      20.172  -7.342 -15.5830  0.00  0.00     0.000 C
ATOM     21  C5  BGC B   2      20.817  -8.071 -16.7620  0.00  0.00     0.000 C
ATOM     22  O5  BGC B   2      20.251  -9.384 -16.8520  0.00  0.00     0.000 O
ATOM     23   O  BGC B   2      16.731  -8.744 -16.1030  0.00  0.00     0.000 O
ATOM     25  HD  BGC B   2      17.351  -8.139 -16.1180  0.00  0.00     0.000 HD
ATOM     25   O  BGC B   2      18.105  -6.858 -14.4410  0.00  0.00     0.000 O
ATOM     27  HD  BGC B   2      18.725  -6.254 -14.4550  0.00  0.00     0.000 HD
ATOM     27   C  BGC B   2      22.326  -8.225 -16.6120  0.00  0.00     0.000 C
ATOM     28   O  BGC B   2      22.707  -8.884 -15.4160  0.00  0.00     0.000 O
ATOM     30  HD  BGC B   2      23.327  -8.280 -15.4300  0.00  0.00     0.000 HD
BRANCH 17 30
ATOM     30  O4  BGC B   3      18.436 -10.674 -17.2800  0.00  0.00     0.000 O
BRANCH 30 34
ATOM     31  C1  BGC B   3      18.954 -13.872 -19.8160  0.00  0.00     0.000 C
ATOM     32  C2  BGC B   3      20.164 -13.556 -18.9370  0.00  0.00     0.000 C
ATOM     33  C3  BGC B   3      19.723 -12.651 -17.8000  0.00  0.00     0.000 C
ATOM     34  C4  BGC B   3      19.041 -11.401 -18.3540  0.00  0.00     0.000 C
ATOM     35  C5  BGC B   3      17.943 -11.786 -19.3300  0.00  0.00     0.000 C
ATOM     36  O5  BGC B   3      18.484 -12.641 -20.3420  0.00  0.00     0.000 O
ATOM     37   O  BGC B   3      20.675 -14.765 -18.3790  0.00  0.00     0.000 O
ATOM     39  HD  BGC B   3      21.362 -14.323 -18.0920  0.00  0.00     0.000 HD
ATOM     39   O  BGC B   3      20.866 -12.301 -17.0350  0.00  0.00     0.000 O
ATOM     41  HD  BGC B   3      21.553 -11.859 -16.7470  0.00  0.00     0.000 HD
ATOM     41   C  BGC B   3      17.267 -10.597 -20.0030  0.00  0.00     0.000 C
ATOM     42   O  BGC B   3      18.221  -9.820 -20.6870  0.00  0.00     0.000 O
ATOM     44  HD  BGC B   3      18.908  -9.377 -20.4000  0.00  0.00     0.000 HD
BRANCH 31 44
ATOM     44  O4  BGC B   4      19.418 -14.622 -20.9080  0.00  0.00     0.000 O
BRANCH 44 48
ATOM     45  C1  BGC B   4      18.186 -17.503 -23.5520  0.00  0.00     0.000 C
ATOM     46  C2  BGC B   4      17.387 -16.208 -23.6010  0.00  0.00     0.000 C
ATOM     47  C3  BGC B   4      18.153 -15.117 -22.8960  0.00  0.00     0.000 C
ATOM     48  C4  BGC B   4      18.527 -15.560 -21.4780  0.00  0.00     0.000 C
ATOM     49  C5  BGC B   4      19.238 -16.918 -21.5080  0.00  0.00     0.000 C
ATOM     50  O5  BGC B   4      18.421 -17.878 -22.1940  0.00  0.00     0.000 O
ATOM     51   O  BGC B   4      17.163 -15.818 -24.9690  0.00  0.00     0.000 O
ATOM     53  HD  BGC B   4      17.803 -15.268 -24.7720  0.00  0.00     0.000 HD
ATOM     53   O  BGC B   4      17.333 -13.941 -22.8350  0.00  0.00     0.000 O
ATOM     55  HD  BGC B   4      17.973 -13.392 -22.6380  0.00  0.00     0.000 HD
ATOM     55   C  BGC B   4      19.546 -17.496 -20.1380  0.00  0.00     0.000 C
ATOM     56   O  BGC B   4      18.320 -17.558 -19.4060  0.00  0.00     0.000 O
ATOM     58  HD  BGC B   4      18.960 -17.008 -19.2100  0.00  0.00     0.000 HD
BRANCH 45 58
ATOM     58  O4  BGC B   5      17.299 -18.527 -23.9990  0.00  0.00     0.000 O
BRANCH 58 62
ATOM     59  C1  BGC B   5      17.225 -22.063 -26.1540  0.00  0.00     0.000 C
ATOM     60  C2  BGC B   5      18.281 -21.984 -25.0700  0.00  0.00     0.000 C
ATOM     61  C3  BGC B   5      17.961 -20.867 -24.0950  0.00  0.00     0.000 C
ATOM     62  C4  BGC B   5      17.786 -19.563 -24.8560  0.00  0.00     0.000 C
ATOM     63  C5  BGC B   5      16.763 -19.732 -25.9900  0.00  0.00     0.000 C
ATOM     64  O5  BGC B   5      17.180 -20.803 -26.8300  0.00  0.00     0.000 O
ATOM     65   O  BGC B   5      17.925 -18.221 -27.3550  0.00  0.00     0.000 O
ATOM     67  HD  BGC B   5      18.497 -17.572 -27.3120  0.00  0.00     0.000 HD
ATOM     67   O  BGC B   5      17.925 -18.221 -27.3550  0.00  0.00     0.000 O
ATOM     69  HD  BGC B   5      18.497 -17.572 -27.3120  0.00  0.00     0.000 HD
ENDBRANCH 58 62
ENDBRANCH 45 58
ENDBRANCH 44 48
ENDBRANCH 31 44
ENDBRANCH 30 34
ENDBRANCH 17 30
ENDBRANCH 16 20
ENDBRANCH 1 16
TORSDOF 8
ENDMDL
MODEL 87
REMARK VINA RESULT:      -6.9     22.570     24.919
ROOT
ATOM      1  C1  BGC B   1      22.342 -14.256   5.5930  0.00  0.00     0.000 C
ATOM      2  C2  BGC B   1      22.549 -13.658   6.9840  0.00  0.00     0.000 C
ATOM      3  C3  BGC B   1      23.710 -12.683   6.9650  0.00  0.00     0.000 C
ATOM      4  C4  BGC B   1      24.950 -13.333   6.3620  0.00  0.00     0.000 C
ATOM      5  C5  BGC B   1      24.592 -13.863   4.9810  0.00  0.00     0.000 C
ATOM      6  O5  BGC B   1      23.557 -14.848   5.1530  0.00  0.00     0.000 O
ATOM      7   O  BGC B   1      21.355 -12.964   7.3830  0.00  0.00     0.000 O
ATOM      9  HD  BGC B   1      21.439 -12.304   7.9370  0.00  0.00     0.000 HD
ATOM      9   O  BGC B   1      23.965 -12.242   8.3020  0.00  0.00     0.000 O
ATOM     11  HD  BGC B   1      24.049 -11.581   8.8560  0.00  0.00     0.000 HD
ATOM     11   O  BGC B   1      25.982 -12.377   6.2590  0.00  0.00     0.000 O
ATOM     13  HD  BGC B   1      26.067 -11.717   6.8120  0.00  0.00     0.000 HD
ATOM     13   C  BGC B   1      25.747 -14.502   4.2240  0.00  0.00     0.000 C
ATOM     14   O  BGC B   1      26.368 -15.549   4.9650  0.00  0.00     0.000 O
ATOM     16  HD  BGC B   1      26.452 -14.889   5.5190  0.00  0.00     0.000 HD
ENDROOT
BRANCH 1 16
ATOM     16  O4  BGC B   2      21.436 -15.345   5.7590  0.00  0.00     0.000 O
BRANCH 16 20
ATOM     17  C1  BGC B   2      18.362 -17.248   3.8970  0.00  0.00     0.000 C
ATOM     18  C2  BGC B   2      19.720 -17.517   3.2660  0.00  0.00     0.000 C
ATOM     19  C3  BGC B   2      20.806 -17.067   4.2400  0.00  0.00     0.000 C
ATOM     20  C4  BGC B   2      20.584 -15.626   4.6510  0.00  0.00     0.000 C
ATOM     21  C5  BGC B   2      19.147 -15.362   5.1010  0.00  0.00     0.000 C
ATOM     22  O5  BGC B   2      18.257 -15.823   4.0760  0.00  0.00     0.000 O
ATOM     23   O  BGC B   2      19.874 -18.923   3.0060  0.00  0.00     0.000 O
ATOM     25  HD  BGC B   2      20.178 -18.392   3.6190  0.00  0.00     0.000 HD
ATOM     25   O  BGC B   2      22.087 -17.217   3.6400  0.00  0.00     0.000 O
ATOM     27  HD  BGC B   2      22.392 -16.687   4.2530  0.00  0.00     0.000 HD
ATOM     27   C  BGC B   2      18.859 -13.885   5.3350  0.00  0.00     0.000 C
ATOM     28   O  BGC B   2      19.131 -13.073   4.2050  0.00  0.00     0.000 O
ATOM     30  HD  BGC B   2      19.435 -12.542   4.8180  0.00  0.00     0.000 HD
BRANCH 17 30
ATOM     30  O4  BGC B   3      17.387 -17.571   2.9240  0.00  0.00     0.000 O
BRANCH 30 34
ATOM     31  C1  BGC B   3      13.316 -18.101   2.6540  0.00  0.00     0.000 C
ATOM     32  C2  BGC B   3      13.770 -16.643   2.6050  0.00  0.00     0.000 C
ATOM     33  C3  BGC B   3      15.260 -16.602   2.3120  0.00  0.00     0.000 C
ATOM     34  C4  BGC B   3      16.024 -17.435   3.3400  0.00  0.00     0.000 C
ATOM     35  C5  BGC B   3      15.428 -18.829   3.4400  0.00  0.00     0.000 C
ATOM     36  O5  BGC B   3      14.026 -18.729   3.7100  0.00  0.00     0.000 O
ATOM     37   O  BGC B   3      13.085 -15.966   1.5540  0.00  0.00     0.000 O
ATOM     39  HD  BGC B   3      13.407 -15.218   1.8490  0.00  0.00     0.000 HD
ATOM     39   O  BGC B   3      15.688 -15.249   2.3450  0.00  0.00     0.000 O
ATOM     41  HD  BGC B   3      16.010 -14.501   2.6390  0.00  0.00     0.000 HD
ATOM     41   C  BGC B   3      16.072 -19.703   4.5110  0.00  0.00     0.000 C
ATOM     42   O  BGC B   3      15.970 -19.081   5.7700  0.00  0.00     0.000 O
ATOM     44  HD  BGC B   3      16.292 -18.333   6.0640  0.00  0.00     0.000 HD
BRANCH 31 44
ATOM     44  O4  BGC B   4      11.962 -18.102   3.0280  0.00  0.00     0.000 O
BRANCH 44 48
ATOM     45  C1  BGC B   4       8.857 -20.767   2.7650  0.00  0.00     0.000 C
ATOM     46  C2  BGC B   4       9.375 -20.527   4.1770  0.00  0.00     0.000 C
ATOM     47  C3  BGC B   4      10.215 -19.274   4.1980  0.00  0.00     0.000 C
ATOM     48  C4  BGC B   4      11.320 -19.356   3.1410  0.00  0.00     0.000 C
ATOM     49  C5  BGC B   4      10.728 -19.701   1.7680  0.00  0.00     0.000 C
ATOM     50  O5  BGC B   4       9.956 -20.907   1.8630  0.00  0.00     0.000 O
ATOM     51   O  BGC B   4       8.270 -20.368   5.0860  0.00  0.00     0.000 O
ATOM     53  HD  BGC B   4       8.494 -19.536   4.9970  0.00  0.00     0.000 HD
ATOM     53   O  BGC B   4      10.801 -19.133   5.5000  0.00  0.00     0.000 O
ATOM     55  HD  BGC B   4      11.026 -18.301   5.4110  0.00  0.00     0.000 HD
ATOM     55   C  BGC B   4      11.760 -19.919   0.6760  0.00  0.00     0.000 C
ATOM     56   O  BGC B   4      12.666 -20.926   1.1290  0.00  0.00     0.000 O
ATOM     58  HD  BGC B   4      12.891 -20.095   1.0390  0.00  0.00     0.000 HD
BRANCH 45 58
ATOM     58  O4  BGC B   5       8.301 -22.081   2.7710  0.00  0.00     0.000 O
BRANCH 58 62
ATOM     59  C1  BGC B   5       6.120 -24.634   0.3480  0.00  0.00     0.000 C
ATOM     60  C2  BGC B   5       7.623 -24.697   0.1710  0.00  0.00     0.000 C
ATOM     61  C3  BGC B   5       8.326 -24.060   1.3550  0.00  0.00     0.000 C
ATOM     62  C4  BGC B   5       7.804 -22.647   1.5550  0.00  0.00     0.000 C
ATOM     63  C5  BGC B   5       6.271 -22.644   1.6470  0.00  0.00     0.000 C
ATOM     64  O5  BGC B   5       5.739 -23.261   0.4800  0.00  0.00     0.000 O
ATOM     65   O  BGC B   5       6.144 -20.556   0.5880  0.00  0.00     0.000 O
ATOM     67  HD  BGC B   5       6.620 -19.852   0.4210  0.00  0.00     0.000 HD
ATOM     67   O  BGC B   5       6.144 -20.556   0.5880  0.00  0.00     0.000 O
ATOM     69  HD  BGC B   5       6.620 -19.852   0.4210  0.00  0.00     0.000 HD
ENDBRANCH 58 62
ENDBRANCH 45 58
ENDBRANCH 44 48
ENDBRANCH 31 44
ENDBRANCH 30 34
ENDBRANCH 17 30
ENDBRANCH 16 20
ENDBRANCH 1 16
TORSDOF 8
ENDMDL
MODEL 88
REMARK VINA RESULT:      -6.9      2.678     14.714
ROOT
ATOM      1  C1  BGC B   1      20.940  -8.823 -16.5950  0.00  0.00     0.000 C
ATOM      2  C2  BGC B   1      21.747  -9.819 -15.7660  0.00  0.00     0.000 C
ATOM      3  C3  BGC B   1      22.007 -11.078 -16.5710  0.00  0.00     0.000 C
ATOM      4  C4  BGC B   1      20.707 -11.631 -17.1410  0.00  0.00     0.000 C
ATOM      5  C5  BGC B   1      20.029 -10.534 -17.9490  0.00  0.00     0.000 C
ATOM      6  O5  BGC B   1      19.747  -9.448 -17.0480  0.00  0.00     0.000 O
ATOM      7   O  BGC B   1      23.003  -9.223 -15.4010  0.00  0.00     0.000 O
ATOM      9  HD  BGC B   1      23.675  -9.752 -15.2650  0.00  0.00     0.000 HD
ATOM      9   O  BGC B   1      22.645 -12.042 -15.7290  0.00  0.00     0.000 O
ATOM     11  HD  BGC B   1      23.318 -12.571 -15.5940  0.00  0.00     0.000 HD
ATOM     11   O  BGC B   1      20.986 -12.738 -17.9710  0.00  0.00     0.000 O
ATOM     13  HD  BGC B   1      21.658 -13.266 -17.8350  0.00  0.00     0.000 HD
ATOM     13   C  BGC B   1      18.732 -10.950 -18.6280  0.00  0.00     0.000 C
ATOM     14   O  BGC B   1      17.785 -11.484 -17.7080  0.00  0.00     0.000 O
ATOM     16  HD  BGC B   1      18.458 -12.013 -17.5730  0.00  0.00     0.000 HD
ENDROOT
BRANCH 1 16
ATOM     16  O4  BGC B   2      20.507  -7.809 -15.6900  0.00  0.00     0.000 O
BRANCH 16 20
ATOM     17  C1  BGC B   2      19.690  -3.829 -15.5190  0.00  0.00     0.000 C
ATOM     18  C2  BGC B   2      18.614  -4.644 -16.2200  0.00  0.00     0.000 C
ATOM     19  C3  BGC B   2      18.842  -6.121 -15.9050  0.00  0.00     0.000 C
ATOM     20  C4  BGC B   2      20.259  -6.525 -16.2570  0.00  0.00     0.000 C
ATOM     21  C5  BGC B   2      21.299  -5.562 -15.6840  0.00  0.00     0.000 C
ATOM     22  O5  BGC B   2      20.954  -4.229 -16.0810  0.00  0.00     0.000 O
ATOM     23   O  BGC B   2      17.313  -4.258 -15.7460  0.00  0.00     0.000 O
ATOM     25  HD  BGC B   2      17.830  -4.934 -15.5860  0.00  0.00     0.000 HD
ATOM     25   O  BGC B   2      17.909  -6.919 -16.6240  0.00  0.00     0.000 O
ATOM     27  HD  BGC B   2      18.425  -7.596 -16.4640  0.00  0.00     0.000 HD
ATOM     27   C  BGC B   2      22.710  -5.845 -16.1840  0.00  0.00     0.000 C
ATOM     28   O  BGC B   2      22.818  -5.831 -17.5990  0.00  0.00     0.000 O
ATOM     30  HD  BGC B   2      23.335  -6.507 -17.4380  0.00  0.00     0.000 HD
BRANCH 17 30
ATOM     30  O4  BGC B   3      19.514  -2.485 -15.9250  0.00  0.00     0.000 O
BRANCH 30 34
ATOM     31  C1  BGC B   3      19.654   1.310 -14.3410  0.00  0.00     0.000 C
ATOM     32  C2  BGC B   3      21.022   0.682 -14.6050  0.00  0.00     0.000 C
ATOM     33  C3  BGC B   3      20.846  -0.507 -15.5340  0.00  0.00     0.000 C
ATOM     34  C4  BGC B   3      19.836  -1.492 -14.9450  0.00  0.00     0.000 C
ATOM     35  C5  BGC B   3      18.551  -0.773 -14.5740  0.00  0.00     0.000 C
ATOM     36  O5  BGC B   3      18.854   0.325 -13.7070  0.00  0.00     0.000 O
ATOM     37   O  BGC B   3      21.867   1.634 -15.2470  0.00  0.00     0.000 O
ATOM     39  HD  BGC B   3      22.534   1.093 -15.1370  0.00  0.00     0.000 HD
ATOM     39   O  BGC B   3      22.109  -1.130 -15.7110  0.00  0.00     0.000 O
ATOM     41  HD  BGC B   3      22.775  -1.672 -15.6010  0.00  0.00     0.000 HD
ATOM     41   C  BGC B   3      17.518  -1.663 -13.8930  0.00  0.00     0.000 C
ATOM     42   O  BGC B   3      18.063  -2.237 -12.7290  0.00  0.00     0.000 O
ATOM     44  HD  BGC B   3      18.729  -2.779 -12.6180  0.00  0.00     0.000 HD
BRANCH 31 44
ATOM     44  O4  BGC B   4      19.843   2.337 -13.4020  0.00  0.00     0.000 O
BRANCH 44 48
ATOM     45  C1  BGC B   4      18.489   6.097 -12.4900  0.00  0.00     0.000 C
ATOM     46  C2  BGC B   4      17.512   4.973 -12.1730  0.00  0.00     0.000 C
ATOM     47  C3  BGC B   4      18.246   3.655 -12.1740  0.00  0.00     0.000 C
ATOM     48  C4  BGC B   4      18.998   3.466 -13.4960  0.00  0.00     0.000 C
ATOM     49  C5  BGC B   4      19.881   4.685 -13.7920  0.00  0.00     0.000 C
ATOM     50  O5  BGC B   4      19.083   5.877 -13.7710  0.00  0.00     0.000 O
ATOM     51   O  BGC B   4      16.924   5.183 -10.8750  0.00  0.00     0.000 O
ATOM     53  HD  BGC B   4      17.501   4.572 -10.6670  0.00  0.00     0.000 HD
ATOM     53   O  BGC B   4      17.293   2.596 -12.0040  0.00  0.00     0.000 O
ATOM     55  HD  BGC B   4      17.870   1.984 -11.7960  0.00  0.00     0.000 HD
ATOM     55   C  BGC B   4      20.578   4.641 -15.1400  0.00  0.00     0.000 C
ATOM     56   O  BGC B   4      19.577   4.458 -16.1430  0.00  0.00     0.000 O
ATOM     58  HD  BGC B   4      20.154   3.847 -15.9350  0.00  0.00     0.000 HD
BRANCH 45 58
ATOM     58  O4  BGC B   5      17.688   7.256 -12.7240  0.00  0.00     0.000 O
BRANCH 58 62
ATOM     59  C1  BGC B   5      17.489  11.306 -11.8850  0.00  0.00     0.000 C
ATOM     60  C2  BGC B   5      18.585  10.895 -12.8470  0.00  0.00     0.000 C
ATOM     61  C3  BGC B   5      18.316   9.508 -13.4000  0.00  0.00     0.000 C
ATOM     62  C4  BGC B   5      18.129   8.531 -12.2500  0.00  0.00     0.000 C
ATOM     63  C5  BGC B   5      17.064   9.044 -11.2710  0.00  0.00     0.000 C
ATOM     64  O5  BGC B   5      17.436  10.344 -10.8260  0.00  0.00     0.000 O
ATOM     65   O  BGC B   5      18.194   8.107  -9.4430  0.00  0.00     0.000 O
ATOM     67  HD  BGC B   5      18.775   7.495  -9.2480  0.00  0.00     0.000 HD
ATOM     67   O  BGC B   5      18.194   8.107  -9.4430  0.00  0.00     0.000 O
ATOM     69  HD  BGC B   5      18.775   7.495  -9.2480  0.00  0.00     0.000 HD
ENDBRANCH 58 62
ENDBRANCH 45 58
ENDBRANCH 44 48
ENDBRANCH 31 44
ENDBRANCH 30 34
ENDBRANCH 17 30
ENDBRANCH 16 20
ENDBRANCH 1 16
TORSDOF 8
ENDMDL
MODEL 89
REMARK VINA RESULT:      -6.8     23.849     28.733
ROOT
ATOM      1  C1  BGC B   1      11.651 -18.277   9.7700  0.00  0.00     0.000 C
ATOM      2  C2  BGC B   1      12.330 -19.269   8.8270  0.00  0.00     0.000 C
ATOM      3  C3  BGC B   1      11.754 -20.657   9.0290  0.00  0.00     0.000 C
ATOM      4  C4  BGC B   1      11.795 -21.049  10.5000  0.00  0.00     0.000 C
ATOM      5  C5  BGC B   1      11.070 -19.979  11.3040  0.00  0.00     0.000 C
ATOM      6  O5  BGC B   1      11.775 -18.740  11.1070  0.00  0.00     0.000 O
ATOM      7   O  BGC B   1      12.108 -18.857   7.4680  0.00  0.00     0.000 O
ATOM      9  HD  BGC B   1      12.105 -19.471   6.8570  0.00  0.00     0.000 HD
ATOM      9   O  BGC B   1      12.497 -21.586   8.2330  0.00  0.00     0.000 O
ATOM     11  HD  BGC B   1      12.493 -22.200   7.6220  0.00  0.00     0.000 HD
ATOM     11   O  BGC B   1      11.159 -22.296  10.6760  0.00  0.00     0.000 O
ATOM     13  HD  BGC B   1      11.156 -22.910  10.0650  0.00  0.00     0.000 HD
ATOM     13   C  BGC B   1      10.981 -20.253  12.7990  0.00  0.00     0.000 C
ATOM     14   O  BGC B   1      12.260 -20.472  13.3860  0.00  0.00     0.000 O
ATOM     16  HD  BGC B   1      12.257 -21.086  12.7750  0.00  0.00     0.000 HD
ENDROOT
BRANCH 1 16
ATOM     16  O4  BGC B   2      12.427 -17.081   9.7170  0.00  0.00     0.000 O
BRANCH 16 20
ATOM     17  C1  BGC B   2      12.043 -13.033   9.7470  0.00  0.00     0.000 C
ATOM     18  C2  BGC B   2      11.861 -13.675  11.1150  0.00  0.00     0.000 C
ATOM     19  C3  BGC B   2      12.380 -15.109  11.0500  0.00  0.00     0.000 C
ATOM     20  C4  BGC B   2      11.716 -15.862   9.9150  0.00  0.00     0.000 C
ATOM     21  C5  BGC B   2      11.760 -15.087   8.5970  0.00  0.00     0.000 C
ATOM     22  O5  BGC B   2      11.227 -13.776   8.8220  0.00  0.00     0.000 O
ATOM     23   O  BGC B   2      12.608 -12.949  12.1040  0.00  0.00     0.000 O
ATOM     25  HD  BGC B   2      12.740 -13.695  11.6860  0.00  0.00     0.000 HD
ATOM     25   O  BGC B   2      12.136 -15.769  12.2870  0.00  0.00     0.000 O
ATOM     27  HD  BGC B   2      12.268 -16.515  11.8690  0.00  0.00     0.000 HD
ATOM     27   C  BGC B   2      10.936 -15.741   7.4960  0.00  0.00     0.000 C
ATOM     28   O  BGC B   2       9.578 -15.940   7.8530  0.00  0.00     0.000 O
ATOM     30  HD  BGC B   2       9.710 -16.687   7.4350  0.00  0.00     0.000 HD
BRANCH 17 30
ATOM     30  O4  BGC B   3      11.451 -11.750   9.8150  0.00  0.00     0.000 O
BRANCH 30 34
ATOM     31  C1  BGC B   3      11.577  -8.147   7.8320  0.00  0.00     0.000 C
ATOM     32  C2  BGC B   3      10.712  -9.212   7.1590  0.00  0.00     0.000 C
ATOM     33  C3  BGC B   3      10.427 -10.318   8.1590  0.00  0.00     0.000 C
ATOM     34  C4  BGC B   3      11.736 -10.874   8.7190  0.00  0.00     0.000 C
ATOM     35  C5  BGC B   3      12.609  -9.746   9.2420  0.00  0.00     0.000 C
ATOM     36  O5  BGC B   3      12.794  -8.771   8.2110  0.00  0.00     0.000 O
ATOM     37   O  BGC B   3       9.471  -8.634   6.7600  0.00  0.00     0.000 O
ATOM     39  HD  BGC B   3       9.290  -9.362   6.3270  0.00  0.00     0.000 HD
ATOM     39   O  BGC B   3       9.689 -11.339   7.5040  0.00  0.00     0.000 O
ATOM     41  HD  BGC B   3       9.509 -12.067   7.0710  0.00  0.00     0.000 HD
ATOM     41   C  BGC B   3      13.977 -10.200   9.7380  0.00  0.00     0.000 C
ATOM     42   O  BGC B   3      14.671 -10.863   8.7070  0.00  0.00     0.000 O
ATOM     44  HD  BGC B   3      14.491 -11.591   8.2740  0.00  0.00     0.000 HD
BRANCH 31 44
ATOM     44  O4  BGC B   4      11.904  -7.196   6.8520  0.00  0.00     0.000 O
BRANCH 44 48
ATOM     45  C1  BGC B   4      12.829  -3.223   6.4450  0.00  0.00     0.000 C
ATOM     46  C2  BGC B   4      13.847  -4.038   7.2300  0.00  0.00     0.000 C
ATOM     47  C3  BGC B   4      13.615  -5.508   6.9810  0.00  0.00     0.000 C
ATOM     48  C4  BGC B   4      12.160  -5.876   7.2860  0.00  0.00     0.000 C
ATOM     49  C5  BGC B   4      11.199  -4.945   6.5360  0.00  0.00     0.000 C
ATOM     50  O5  BGC B   4      11.506  -3.578   6.8500  0.00  0.00     0.000 O
ATOM     51   O  BGC B   4      15.182  -3.695   6.8130  0.00  0.00     0.000 O
ATOM     53  HD  BGC B   4      15.094  -4.445   6.3890  0.00  0.00     0.000 HD
ATOM     53   O  BGC B   4      14.493  -6.264   7.8270  0.00  0.00     0.000 O
ATOM     55  HD  BGC B   4      14.406  -7.015   7.4030  0.00  0.00     0.000 HD
ATOM     55   C  BGC B   4       9.733  -5.158   6.8660  0.00  0.00     0.000 C
ATOM     56   O  BGC B   4       9.584  -5.041   8.2820  0.00  0.00     0.000 O
ATOM     58  HD  BGC B   4       9.496  -5.791   7.8590  0.00  0.00     0.000 HD
BRANCH 45 58
ATOM     58  O4  BGC B   5      12.943  -1.885   6.9270  0.00  0.00     0.000 O
BRANCH 58 62
ATOM     59  C1  BGC B   5      11.173   1.848   6.6430  0.00  0.00     0.000 C
ATOM     60  C2  BGC B   5      10.234   0.707   6.9790  0.00  0.00     0.000 C
ATOM     61  C3  BGC B   5      11.014  -0.501   7.4620  0.00  0.00     0.000 C
ATOM     62  C4  BGC B   5      12.065  -0.873   6.4280  0.00  0.00     0.000 C
ATOM     63  C5  BGC B   5      12.931   0.344   6.0730  0.00  0.00     0.000 C
ATOM     64  O5  BGC B   5      12.082   1.400   5.6330  0.00  0.00     0.000 O
ATOM     65   O  BGC B   5      13.162  -0.380   3.8560  0.00  0.00     0.000 O
ATOM     67  HD  BGC B   5      13.108  -1.094   3.3680  0.00  0.00     0.000 HD
ATOM     67   O  BGC B   5      13.162  -0.380   3.8560  0.00  0.00     0.000 O
ATOM     69  HD  BGC B   5      13.108  -1.094   3.3680  0.00  0.00     0.000 HD
ENDBRANCH 58 62
ENDBRANCH 45 58
ENDBRANCH 44 48
ENDBRANCH 31 44
ENDBRANCH 30 34
ENDBRANCH 17 30
ENDBRANCH 16 20
ENDBRANCH 1 16
TORSDOF 8
ENDMDL
MODEL 90
REMARK VINA RESULT:      -6.8      2.362      5.416
ROOT
ATOM      1  C1  BGC B   1      19.350   1.188 -14.0740  0.00  0.00     0.000 C
ATOM      2  C2  BGC B   1      18.116   1.736 -13.3580  0.00  0.00     0.000 C
ATOM      3  C3  BGC B   1      18.185   3.250 -13.2880  0.00  0.00     0.000 C
ATOM      4  C4  BGC B   1      19.515   3.702 -12.6990  0.00  0.00     0.000 C
ATOM      5  C5  BGC B   1      20.640   3.091 -13.5220  0.00  0.00     0.000 C
ATOM      6  O5  BGC B   1      20.519   1.660 -13.4200  0.00  0.00     0.000 O
ATOM      7   O  BGC B   1      16.937   1.349 -14.0840  0.00  0.00     0.000 O
ATOM      9  HD  BGC B   1      16.241   1.861 -14.0230  0.00  0.00     0.000 HD
ATOM      9   O  BGC B   1      17.090   3.726 -12.5000  0.00  0.00     0.000 O
ATOM     11  HD  BGC B   1      16.394   4.238 -12.4390  0.00  0.00     0.000 HD
ATOM     11   O  BGC B   1      19.598   5.110 -12.7410  0.00  0.00     0.000 O
ATOM     13  HD  BGC B   1      18.902   5.622 -12.6810  0.00  0.00     0.000 HD
ATOM     13   C  BGC B   1      22.042   3.491 -13.0850  0.00  0.00     0.000 C
ATOM     14   O  BGC B   1      22.282   3.208 -11.7100  0.00  0.00     0.000 O
ATOM     16  HD  BGC B   1      21.586   3.720 -11.6490  0.00  0.00     0.000 HD
ENDROOT
BRANCH 1 16
ATOM     16  O4  BGC B   2      19.344  -0.222 -13.8530  0.00  0.00     0.000 O
BRANCH 16 20
ATOM     17  C1  BGC B   2      20.170  -3.730 -15.7360  0.00  0.00     0.000 C
ATOM     18  C2  BGC B   2      21.406  -3.006 -15.2230  0.00  0.00     0.000 C
ATOM     19  C3  BGC B   2      20.962  -1.925 -14.2400  0.00  0.00     0.000 C
ATOM     20  C4  BGC B   2      19.929  -1.020 -14.8790  0.00  0.00     0.000 C
ATOM     21  C5  BGC B   2      18.800  -1.805 -15.5480  0.00  0.00     0.000 C
ATOM     22  O5  BGC B   2      19.378  -2.760 -16.4460  0.00  0.00     0.000 O
ATOM     23   O  BGC B   2      22.275  -3.929 -14.5460  0.00  0.00     0.000 O
ATOM     25  HD  BGC B   2      21.715  -3.327 -14.2730  0.00  0.00     0.000 HD
ATOM     25   O  BGC B   2      22.087  -1.166 -13.8140  0.00  0.00     0.000 O
ATOM     27  HD  BGC B   2      21.527  -0.564 -13.5410  0.00  0.00     0.000 HD
ATOM     27   C  BGC B   2      17.858  -0.920 -16.3540  0.00  0.00     0.000 C
ATOM     28   O  BGC B   2      18.519  -0.153 -17.3470  0.00  0.00     0.000 O
ATOM     30  HD  BGC B   2      17.959   0.449 -17.0740  0.00  0.00     0.000 HD
BRANCH 17 30
ATOM     30  O4  BGC B   3      20.611  -4.642 -16.7240  0.00  0.00     0.000 O
BRANCH 30 34
ATOM     31  C1  BGC B   3      19.392  -8.162 -18.4710  0.00  0.00     0.000 C
ATOM     32  C2  BGC B   3      18.749  -6.906 -19.0580  0.00  0.00     0.000 C
ATOM     33  C3  BGC B   3      19.554  -5.693 -18.6250  0.00  0.00     0.000 C
ATOM     34  C4  BGC B   3      19.670  -5.652 -17.1020  0.00  0.00     0.000 C
ATOM     35  C5  BGC B   3      20.181  -6.982 -16.5750  0.00  0.00     0.000 C
ATOM     36  O5  BGC B   3      19.344  -8.038 -17.0580  0.00  0.00     0.000 O
ATOM     37   O  BGC B   3      18.774  -6.980 -20.4820  0.00  0.00     0.000 O
ATOM     39  HD  BGC B   3      18.263  -6.281 -20.5110  0.00  0.00     0.000 HD
ATOM     39   O  BGC B   3      18.906  -4.527 -19.1100  0.00  0.00     0.000 O
ATOM     41  HD  BGC B   3      18.395  -3.828 -19.1390  0.00  0.00     0.000 HD
ATOM     41   C  BGC B   3      20.241  -7.063 -15.0540  0.00  0.00     0.000 C
ATOM     42   O  BGC B   3      18.968  -6.823 -14.5030  0.00  0.00     0.000 O
ATOM     44  HD  BGC B   3      18.457  -6.124 -14.5320  0.00  0.00     0.000 HD
BRANCH 31 44
ATOM     44  O4  BGC B   4      18.566  -9.247 -18.8050  0.00  0.00     0.000 O
BRANCH 44 48
ATOM     45  C1  BGC B   4      18.668 -13.324 -19.2190  0.00  0.00     0.000 C
ATOM     46  C2  BGC B   4      18.974 -12.818 -17.8170  0.00  0.00     0.000 C
ATOM     47  C3  BGC B   4      18.529 -11.381 -17.6920  0.00  0.00     0.000 C
ATOM     48  C4  BGC B   4      19.151 -10.533 -18.8060  0.00  0.00     0.000 C
ATOM     49  C5  BGC B   4      18.884 -11.165 -20.1780  0.00  0.00     0.000 C
ATOM     50  O5  BGC B   4      19.350 -12.523 -20.1850  0.00  0.00     0.000 O
ATOM     51   O  BGC B   4      18.274 -13.613 -16.8410  0.00  0.00     0.000 O
ATOM     53  HD  BGC B   4      17.759 -12.917 -16.8450  0.00  0.00     0.000 HD
ATOM     53   O  BGC B   4      18.941 -10.879 -16.4130  0.00  0.00     0.000 O
ATOM     55  HD  BGC B   4      18.426 -10.183 -16.4170  0.00  0.00     0.000 HD
ATOM     55   C  BGC B   4      19.563 -10.457 -21.3370  0.00  0.00     0.000 C
ATOM     56   O  BGC B   4      20.960 -10.391 -21.0490  0.00  0.00     0.000 O
ATOM     58  HD  BGC B   4      20.446  -9.694 -21.0530  0.00  0.00     0.000 HD
BRANCH 45 58
ATOM     58  O4  BGC B   5      19.340 -14.577 -19.3380  0.00  0.00     0.000 O
BRANCH 58 62
ATOM     59  C1  BGC B   5      17.853 -18.176 -20.7470  0.00  0.00     0.000 C
ATOM     60  C2  BGC B   5      19.233 -17.802 -21.2490  0.00  0.00     0.000 C
ATOM     61  C3  BGC B   5      19.842 -16.720 -20.3770  0.00  0.00     0.000 C
ATOM     62  C4  BGC B   5      18.891 -15.536 -20.2980  0.00  0.00     0.000 C
ATOM     63  C5  BGC B   5      17.492 -15.994 -19.8610  0.00  0.00     0.000 C
ATOM     64  O5  BGC B   5      17.036 -17.001 -20.7590  0.00  0.00     0.000 O
ATOM     65   O  BGC B   5      16.467 -14.359 -21.1920  0.00  0.00     0.000 O
ATOM     67  HD  BGC B   5      16.629 -13.600 -21.5770  0.00  0.00     0.000 HD
ATOM     67   O  BGC B   5      16.467 -14.359 -21.1920  0.00  0.00     0.000 O
ATOM     69  HD  BGC B   5      16.629 -13.600 -21.5770  0.00  0.00     0.000 HD
ENDBRANCH 58 62
ENDBRANCH 45 58
ENDBRANCH 44 48
ENDBRANCH 31 44
ENDBRANCH 30 34
ENDBRANCH 17 30
ENDBRANCH 16 20
ENDBRANCH 1 16
TORSDOF 8
ENDMDL
MODEL 91
REMARK VINA RESULT:      -6.8     21.319     23.777
ROOT
ATOM      1  C1  BGC B   1      16.231   2.102   5.3180  0.00  0.00     0.000 C
ATOM      2  C2  BGC B   1      15.406   3.365   5.5630  0.00  0.00     0.000 C
ATOM      3  C3  BGC B   1      15.919   4.499   4.6970  0.00  0.00     0.000 C
ATOM      4  C4  BGC B   1      17.422   4.676   4.8770  0.00  0.00     0.000 C
ATOM      5  C5  BGC B   1      18.102   3.347   4.5850  0.00  0.00     0.000 C
ATOM      6  O5  BGC B   1      17.604   2.390   5.5380  0.00  0.00     0.000 O
ATOM      7   O  BGC B   1      14.031   3.103   5.2340  0.00  0.00     0.000 O
ATOM      9  HD  BGC B   1      13.545   3.772   4.9780  0.00  0.00     0.000 HD
ATOM      9   O  BGC B   1      15.219   5.698   5.0430  0.00  0.00     0.000 O
ATOM     11  HD  BGC B   1      14.733   6.366   4.7860  0.00  0.00     0.000 HD
ATOM     11   O  BGC B   1      17.892   5.664   3.9850  0.00  0.00     0.000 O
ATOM     13  HD  BGC B   1      17.405   6.332   3.7280  0.00  0.00     0.000 HD
ATOM     13   C  BGC B   1      19.621   3.374   4.6750  0.00  0.00     0.000 C
ATOM     14   O  BGC B   1      20.082   3.851   5.9350  0.00  0.00     0.000 O
ATOM     16  HD  BGC B   1      19.595   4.520   5.6780  0.00  0.00     0.000 HD
ENDROOT
BRANCH 1 16
ATOM     16  O4  BGC B   2      15.873   1.186   6.3510  0.00  0.00     0.000 O
BRANCH 16 20
ATOM     17  C1  BGC B   2      15.220  -2.769   7.0360  0.00  0.00     0.000 C
ATOM     18  C2  BGC B   2      16.598  -2.466   6.4670  0.00  0.00     0.000 C
ATOM     19  C3  BGC B   2      16.858  -0.967   6.5970  0.00  0.00     0.000 C
ATOM     20  C4  BGC B   2      15.734  -0.178   5.9600  0.00  0.00     0.000 C
ATOM     21  C5  BGC B   2      14.355  -0.649   6.4240  0.00  0.00     0.000 C
ATOM     22  O5  BGC B   2      14.265  -2.064   6.2210  0.00  0.00     0.000 O
ATOM     23   O  BGC B   2      17.604  -3.184   7.2010  0.00  0.00     0.000 O
ATOM     25  HD  BGC B   2      17.339  -2.359   7.2020  0.00  0.00     0.000 HD
ATOM     25   O  BGC B   2      18.100  -0.637   5.9860  0.00  0.00     0.000 O
ATOM     27  HD  BGC B   2      17.835   0.188   5.9870  0.00  0.00     0.000 HD
ATOM     27   C  BGC B   2      13.214   0.004   5.6540  0.00  0.00     0.000 C
ATOM     28   O  BGC B   2      13.302  -0.184   4.2510  0.00  0.00     0.000 O
ATOM     30  HD  BGC B   2      13.037   0.641   4.2520  0.00  0.00     0.000 HD
BRANCH 17 30
ATOM     30  O4  BGC B   3      14.970  -4.141   6.7960  0.00  0.00     0.000 O
BRANCH 30 34
ATOM     31  C1  BGC B   3      12.454  -7.138   8.0660  0.00  0.00     0.000 C
ATOM     32  C2  BGC B   3      11.812  -6.133   7.1100  0.00  0.00     0.000 C
ATOM     33  C3  BGC B   3      12.909  -5.344   6.4180  0.00  0.00     0.000 C
ATOM     34  C4  BGC B   3      13.823  -4.689   7.4530  0.00  0.00     0.000 C
ATOM     35  C5  BGC B   3      14.310  -5.720   8.4560  0.00  0.00     0.000 C
ATOM     36  O5  BGC B   3      13.186  -6.396   9.0280  0.00  0.00     0.000 O
ATOM     37   O  BGC B   3      11.064  -6.832   6.1170  0.00  0.00     0.000 O
ATOM     39  HD  BGC B   3      10.738  -6.074   5.8530  0.00  0.00     0.000 HD
ATOM     39   O  BGC B   3      12.303  -4.362   5.5910  0.00  0.00     0.000 O
ATOM     41  HD  BGC B   3      11.978  -3.604   5.3270  0.00  0.00     0.000 HD
ATOM     41   C  BGC B   3      15.156  -5.137   9.5820  0.00  0.00     0.000 C
ATOM     42   O  BGC B   3      14.430  -4.149  10.2740  0.00  0.00     0.000 O
ATOM     44  HD  BGC B   3      14.104  -3.391  10.0090  0.00  0.00     0.000 HD
BRANCH 31 44
ATOM     44  O4  BGC B   4      11.413  -7.775   8.7600  0.00  0.00     0.000 O
BRANCH 44 48
ATOM     45  C1  BGC B   4      10.430 -11.473  10.2320  0.00  0.00     0.000 C
ATOM     46  C2  BGC B   4      11.280 -10.621  11.1640  0.00  0.00     0.000 C
ATOM     47  C3  BGC B   4      11.243  -9.184  10.7040  0.00  0.00     0.000 C
ATOM     48  C4  BGC B   4      11.653  -9.086   9.2320  0.00  0.00     0.000 C
ATOM     49  C5  BGC B   4      10.820 -10.048   8.3750  0.00  0.00     0.000 C
ATOM     50  O5  BGC B   4      10.931 -11.380   8.8970  0.00  0.00     0.000 O
ATOM     51   O  BGC B   4      10.767 -10.698  12.5070  0.00  0.00     0.000 O
ATOM     53  HD  BGC B   4      10.454  -9.922  12.2860  0.00  0.00     0.000 HD
ATOM     53   O  BGC B   4      12.149  -8.418  11.5110  0.00  0.00     0.000 O
ATOM     55  HD  BGC B   4      11.837  -7.641  11.2890  0.00  0.00     0.000 HD
ATOM     55   C  BGC B   4      11.233 -10.107   6.9160  0.00  0.00     0.000 C
ATOM     56   O  BGC B   4      12.625 -10.428   6.8690  0.00  0.00     0.000 O
ATOM     58  HD  BGC B   4      12.312  -9.651   6.6480  0.00  0.00     0.000 HD
BRANCH 45 58
ATOM     58  O4  BGC B   5      10.720 -12.829  10.5690  0.00  0.00     0.000 O
BRANCH 58 62
ATOM     59  C1  BGC B   5       9.624 -16.717   9.6560  0.00  0.00     0.000 C
ATOM     60  C2  BGC B   5      10.451 -16.010   8.6020  0.00  0.00     0.000 C
ATOM     61  C3  BGC B   5      11.135 -14.791   9.1900  0.00  0.00     0.000 C
ATOM     62  C4  BGC B   5      10.098 -13.891   9.8410  0.00  0.00     0.000 C
ATOM     63  C5  BGC B   5       9.242 -14.684  10.8390  0.00  0.00     0.000 C
ATOM     64  O5  BGC B   5       8.656 -15.792  10.1640  0.00  0.00     0.000 O
ATOM     65   O  BGC B   5       7.347 -13.395  10.3450  0.00  0.00     0.000 O
ATOM     67  HD  BGC B   5       7.118 -12.628  10.0150  0.00  0.00     0.000 HD
ATOM     67   O  BGC B   5       7.347 -13.395  10.3450  0.00  0.00     0.000 O
ATOM     69  HD  BGC B   5       7.118 -12.628  10.0150  0.00  0.00     0.000 HD
ENDBRANCH 58 62
ENDBRANCH 45 58
ENDBRANCH 44 48
ENDBRANCH 31 44
ENDBRANCH 30 34
ENDBRANCH 17 30
ENDBRANCH 16 20
ENDBRANCH 1 16
TORSDOF 8
ENDMDL
MODEL 92
REMARK VINA RESULT:      -6.8     10.752     18.325
ROOT
ATOM      1  C1  BGC B   1      17.585 -11.979 -19.8480  0.00  0.00     0.000 C
ATOM      2  C2  BGC B   1      18.520 -10.791 -20.0670  0.00  0.00     0.000 C
ATOM      3  C3  BGC B   1      17.789  -9.494 -19.7770  0.00  0.00     0.000 C
ATOM      4  C4  BGC B   1      16.482  -9.425 -20.5560  0.00  0.00     0.000 C
ATOM      5  C5  BGC B   1      15.658 -10.661 -20.2240  0.00  0.00     0.000 C
ATOM      6  O5  BGC B   1      16.418 -11.810 -20.6420  0.00  0.00     0.000 O
ATOM      7   O  BGC B   1      19.647 -10.907 -19.1820  0.00  0.00     0.000 O
ATOM      9  HD  BGC B   1      20.041 -10.176 -18.9350  0.00  0.00     0.000 HD
ATOM      9   O  BGC B   1      18.643  -8.397 -20.1170  0.00  0.00     0.000 O
ATOM     11  HD  BGC B   1      19.037  -7.666 -19.8690  0.00  0.00     0.000 HD
ATOM     11   O  BGC B   1      15.772  -8.262 -20.1900  0.00  0.00     0.000 O
ATOM     13  HD  BGC B   1      16.167  -7.531 -19.9430  0.00  0.00     0.000 HD
ATOM     13   C  BGC B   1      14.292 -10.716 -20.8930  0.00  0.00     0.000 C
ATOM     14   O  BGC B   1      14.376 -10.595 -22.3090  0.00  0.00     0.000 O
ATOM     16  HD  BGC B   1      14.770  -9.865 -22.0620  0.00  0.00     0.000 HD
ENDROOT
BRANCH 1 16
ATOM     16  O4  BGC B   2      18.248 -13.114 -20.4010  0.00  0.00     0.000 O
BRANCH 16 20
ATOM     17  C1  BGC B   2      18.032 -17.172 -20.5700  0.00  0.00     0.000 C
ATOM     18  C2  BGC B   2      16.950 -16.468 -21.3760  0.00  0.00     0.000 C
ATOM     19  C3  BGC B   2      17.343 -15.001 -21.5370  0.00  0.00     0.000 C
ATOM     20  C4  BGC B   2      17.620 -14.375 -20.1850  0.00  0.00     0.000 C
ATOM     21  C5  BGC B   2      18.569 -15.221 -19.3350  0.00  0.00     0.000 C
ATOM     22  O5  BGC B   2      18.054 -16.557 -19.2680  0.00  0.00     0.000 O
ATOM     23   O  BGC B   2      16.833 -17.068 -22.6760  0.00  0.00     0.000 O
ATOM     25  HD  BGC B   2      17.200 -16.339 -22.3870  0.00  0.00     0.000 HD
ATOM     25   O  BGC B   2      16.305 -14.292 -22.2040  0.00  0.00     0.000 O
ATOM     27  HD  BGC B   2      16.672 -13.563 -21.9150  0.00  0.00     0.000 HD
ATOM     27   C  BGC B   2      18.708 -14.706 -17.9080  0.00  0.00     0.000 C
ATOM     28   O  BGC B   2      17.469 -14.600 -17.2250  0.00  0.00     0.000 O
ATOM     30  HD  BGC B   2      17.836 -13.871 -16.9360  0.00  0.00     0.000 HD
BRANCH 17 30
ATOM     30  O4  BGC B   3      17.580 -18.494 -20.3460  0.00  0.00     0.000 O
BRANCH 30 34
ATOM     31  C1  BGC B   3      19.038 -22.335 -20.1230  0.00  0.00     0.000 C
ATOM     32  C2  BGC B   3      19.635 -21.369 -19.1010  0.00  0.00     0.000 C
ATOM     33  C3  BGC B   3      18.755 -20.134 -19.0170  0.00  0.00     0.000 C
ATOM     34  C4  BGC B   3      18.584 -19.513 -20.4030  0.00  0.00     0.000 C
ATOM     35  C5  BGC B   3      18.124 -20.562 -21.4000  0.00  0.00     0.000 C
ATOM     36  O5  BGC B   3      19.030 -21.670 -21.3760  0.00  0.00     0.000 O
ATOM     37   O  BGC B   3      19.664 -21.991 -17.8180  0.00  0.00     0.000 O
ATOM     39  HD  BGC B   3      20.138 -21.328 -17.5250  0.00  0.00     0.000 HD
ATOM     39   O  BGC B   3      19.358 -19.210 -18.1240  0.00  0.00     0.000 O
ATOM     41  HD  BGC B   3      19.833 -18.548 -17.8320  0.00  0.00     0.000 HD
ATOM     41   C  BGC B   3      18.015 -20.050 -22.8320  0.00  0.00     0.000 C
ATOM     42   O  BGC B   3      19.254 -19.537 -23.2600  0.00  0.00     0.000 O
ATOM     44  HD  BGC B   3      19.729 -18.875 -22.9680  0.00  0.00     0.000 HD
BRANCH 31 44
ATOM     44  O4  BGC B   4      19.930 -23.412 -20.2470  0.00  0.00     0.000 O
BRANCH 44 48
ATOM     45  C1  BGC B   4      19.926 -27.323 -21.4760  0.00  0.00     0.000 C
ATOM     46  C2  BGC B   4      20.237 -26.311 -22.5700  0.00  0.00     0.000 C
ATOM     47  C3  BGC B   4      20.596 -24.986 -21.9430  0.00  0.00     0.000 C
ATOM     48  C4  BGC B   4      19.491 -24.538 -20.9810  0.00  0.00     0.000 C
ATOM     49  C5  BGC B   4      19.166 -25.650 -19.9760  0.00  0.00     0.000 C
ATOM     50  O5  BGC B   4      18.836 -26.857 -20.6790  0.00  0.00     0.000 O
ATOM     51   O  BGC B   4      21.347 -26.770 -23.3650  0.00  0.00     0.000 O
ATOM     53  HD  BGC B   4      21.760 -26.184 -22.8790  0.00  0.00     0.000 HD
ATOM     53   O  BGC B   4      20.758 -24.011 -22.9820  0.00  0.00     0.000 O
ATOM     55  HD  BGC B   4      21.170 -23.425 -22.4960  0.00  0.00     0.000 HD
ATOM     55   C  BGC B   4      18.001 -25.341 -19.0530  0.00  0.00     0.000 C
ATOM     56   O  BGC B   4      16.872 -25.021 -19.8690  0.00  0.00     0.000 O
ATOM     58  HD  BGC B   4      17.285 -24.435 -19.3820  0.00  0.00     0.000 HD
BRANCH 45 58
ATOM     58  O4  BGC B   5      19.355 -28.451 -22.1380  0.00  0.00     0.000 O
BRANCH 58 62
ATOM     59  C1  BGC B   5      19.198 -32.471 -21.1560  0.00  0.00     0.000 C
ATOM     60  C2  BGC B   5      17.859 -31.814 -21.4210  0.00  0.00     0.000 C
ATOM     61  C3  BGC B   5      18.046 -30.502 -22.1600  0.00  0.00     0.000 C
ATOM     62  C4  BGC B   5      19.006 -29.615 -21.3850  0.00  0.00     0.000 C
ATOM     63  C5  BGC B   5      20.310 -30.366 -21.0800  0.00  0.00     0.000 C
ATOM     64  O5  BGC B   5      19.997 -31.568 -20.3850  0.00  0.00     0.000 O
ATOM     65   O  BGC B   5      20.550 -29.255 -19.0290  0.00  0.00     0.000 O
ATOM     67  HD  BGC B   5      20.295 -28.540 -18.6130  0.00  0.00     0.000 HD
ATOM     67   O  BGC B   5      20.550 -29.255 -19.0290  0.00  0.00     0.000 O
ATOM     69  HD  BGC B   5      20.295 -28.540 -18.6130  0.00  0.00     0.000 HD
ENDBRANCH 58 62
ENDBRANCH 45 58
ENDBRANCH 44 48
ENDBRANCH 31 44
ENDBRANCH 30 34
ENDBRANCH 17 30
ENDBRANCH 16 20
ENDBRANCH 1 16
TORSDOF 8
ENDMDL
MODEL 93
REMARK VINA RESULT:      -6.8      5.490     16.201
ROOT
ATOM      1  C1  BGC B   1      18.141 -17.143 -19.2370  0.00  0.00     0.000 C
ATOM      2  C2  BGC B   1      17.749 -17.894 -20.5090  0.00  0.00     0.000 C
ATOM      3  C3  BGC B   1      17.219 -19.271 -20.1590  0.00  0.00     0.000 C
ATOM      4  C4  BGC B   1      18.199 -20.013 -19.2600  0.00  0.00     0.000 C
ATOM      5  C5  BGC B   1      18.479 -19.152 -18.0370  0.00  0.00     0.000 C
ATOM      6  O5  BGC B   1      19.071 -17.925 -18.5000  0.00  0.00     0.000 O
ATOM      7   O  BGC B   1      16.727 -17.154 -21.1980  0.00  0.00     0.000 O
ATOM      9  HD  BGC B   1      16.174 -17.599 -21.6950  0.00  0.00     0.000 HD
ATOM      9   O  BGC B   1      16.985 -19.998 -21.3690  0.00  0.00     0.000 O
ATOM     11  HD  BGC B   1      16.432 -20.442 -21.8660  0.00  0.00     0.000 HD
ATOM     11   O  BGC B   1      17.638 -21.246 -18.8630  0.00  0.00     0.000 O
ATOM     13  HD  BGC B   1      17.086 -21.690 -19.3600  0.00  0.00     0.000 HD
ATOM     13   C  BGC B   1      19.411 -19.782 -17.0120  0.00  0.00     0.000 C
ATOM     14   O  BGC B   1      20.655 -20.178 -17.5810  0.00  0.00     0.000 O
ATOM     16  HD  BGC B   1      20.102 -20.622 -18.0780  0.00  0.00     0.000 HD
ENDROOT
BRANCH 1 16
ATOM     16  O4  BGC B   2      18.875 -15.996 -19.6620  0.00  0.00     0.000 O
BRANCH 16 20
ATOM     17  C1  BGC B   2      19.957 -12.263 -18.4680  0.00  0.00     0.000 C
ATOM     18  C2  BGC B   2      20.478 -13.369 -17.5630  0.00  0.00     0.000 C
ATOM     19  C3  BGC B   2      20.330 -14.702 -18.2920  0.00  0.00     0.000 C
ATOM     20  C4  BGC B   2      18.901 -14.897 -18.7560  0.00  0.00     0.000 C
ATOM     21  C5  BGC B   2      18.358 -13.676 -19.5000  0.00  0.00     0.000 C
ATOM     22  O5  BGC B   2      18.556 -12.517 -18.6800  0.00  0.00     0.000 O
ATOM     23   O  BGC B   2      21.866 -13.149 -17.2620  0.00  0.00     0.000 O
ATOM     25  HD  BGC B   2      21.450 -13.682 -17.8030  0.00  0.00     0.000 HD
ATOM     25   O  BGC B   2      20.719 -15.769 -17.4350  0.00  0.00     0.000 O
ATOM     27  HD  BGC B   2      20.303 -16.302 -17.9760  0.00  0.00     0.000 HD
ATOM     27   C  BGC B   2      16.869 -13.780 -19.8050  0.00  0.00     0.000 C
ATOM     28   O  BGC B   2      16.072 -13.991 -18.6520  0.00  0.00     0.000 O
ATOM     30  HD  BGC B   2      15.656 -14.525 -19.1930  0.00  0.00     0.000 HD
BRANCH 17 30
ATOM     30  O4  BGC B   3      20.006 -11.063 -17.7180  0.00  0.00     0.000 O
BRANCH 30 34
ATOM     31  C1  BGC B   3      19.047  -7.087 -18.1580  0.00  0.00     0.000 C
ATOM     32  C2  BGC B   3      17.875  -7.982 -17.7570  0.00  0.00     0.000 C
ATOM     33  C3  BGC B   3      18.419  -9.304 -17.2460  0.00  0.00     0.000 C
ATOM     34  C4  BGC B   3      19.329  -9.942 -18.2950  0.00  0.00     0.000 C
ATOM     35  C5  BGC B   3      20.383  -8.949 -18.7530  0.00  0.00     0.000 C
ATOM     36  O5  BGC B   3      19.745  -7.749 -19.2010  0.00  0.00     0.000 O
ATOM     37   O  BGC B   3      17.140  -7.359 -16.7050  0.00  0.00     0.000 O
ATOM     39  HD  BGC B   3      16.528  -7.966 -16.7960  0.00  0.00     0.000 HD
ATOM     39   O  BGC B   3      17.323 -10.156 -16.9490  0.00  0.00     0.000 O
ATOM     41  HD  BGC B   3      16.712 -10.763 -17.0390  0.00  0.00     0.000 HD
ATOM     41   C  BGC B   3      21.282  -9.471 -19.8690  0.00  0.00     0.000 C
ATOM     42   O  BGC B   3      20.506  -9.845 -20.9820  0.00  0.00     0.000 O
ATOM     44  HD  BGC B   3      19.894 -10.452 -21.0730  0.00  0.00     0.000 HD
BRANCH 31 44
ATOM     44  O4  BGC B   4      18.505  -5.919 -18.7180  0.00  0.00     0.000 O
BRANCH 44 48
ATOM     45  C1  BGC B   4      19.504  -2.012 -19.4590  0.00  0.00     0.000 C
ATOM     46  C2  BGC B   4      20.062  -3.014 -20.4600  0.00  0.00     0.000 C
ATOM     47  C3  BGC B   4      19.325  -4.324 -20.3250  0.00  0.00     0.000 C
ATOM     48  C4  BGC B   4      19.369  -4.811 -18.8730  0.00  0.00     0.000 C
ATOM     49  C5  BGC B   4      18.888  -3.709 -17.9200  0.00  0.00     0.000 C
ATOM     50  O5  BGC B   4      19.657  -2.516 -18.1310  0.00  0.00     0.000 O
ATOM     51   O  BGC B   4      19.894  -2.517 -21.8020  0.00  0.00     0.000 O
ATOM     53  HD  BGC B   4      19.242  -3.087 -21.7840  0.00  0.00     0.000 HD
ATOM     53   O  BGC B   4      19.947  -5.295 -21.1790  0.00  0.00     0.000 O
ATOM     55  HD  BGC B   4      19.295  -5.865 -21.1620  0.00  0.00     0.000 HD
ATOM     55   C  BGC B   4      19.004  -4.058 -16.4470  0.00  0.00     0.000 C
ATOM     56   O  BGC B   4      20.363  -4.420 -16.1920  0.00  0.00     0.000 O
ATOM     58  HD  BGC B   4      19.711  -4.990 -16.1740  0.00  0.00     0.000 HD
BRANCH 45 58
ATOM     58  O4  BGC B   5      20.407  -0.907 -19.4680  0.00  0.00     0.000 O
BRANCH 58 62
ATOM     59  C1  BGC B   5      20.507   3.233 -19.4570  0.00  0.00     0.000 C
ATOM     60  C2  BGC B   5      19.925   2.593 -18.2130  0.00  0.00     0.000 C
ATOM     61  C3  BGC B   5      20.310   1.128 -18.1370  0.00  0.00     0.000 C
ATOM     62  C4  BGC B   5      19.895   0.427 -19.4210  0.00  0.00     0.000 C
ATOM     63  C5  BGC B   5      20.450   1.169 -20.6460  0.00  0.00     0.000 C
ATOM     64  O5  BGC B   5      20.015   2.524 -20.5990  0.00  0.00     0.000 O
ATOM     65   O  BGC B   5      18.561   0.618 -21.9200  0.00  0.00     0.000 O
ATOM     67  HD  BGC B   5      17.911   0.047 -21.9540  0.00  0.00     0.000 HD
ATOM     67   O  BGC B   5      18.561   0.618 -21.9200  0.00  0.00     0.000 O
ATOM     69  HD  BGC B   5      17.911   0.047 -21.9540  0.00  0.00     0.000 HD
ENDBRANCH 58 62
ENDBRANCH 45 58
ENDBRANCH 44 48
ENDBRANCH 31 44
ENDBRANCH 30 34
ENDBRANCH 17 30
ENDBRANCH 16 20
ENDBRANCH 1 16
TORSDOF 8
ENDMDL
MODEL 94
REMARK VINA RESULT:      -6.8      2.771     14.635
ROOT
ATOM      1  C1  BGC B   1      21.611  -6.264 -15.6140  0.00  0.00     0.000 C
ATOM      2  C2  BGC B   1      22.720  -7.181 -15.1000  0.00  0.00     0.000 C
ATOM      3  C3  BGC B   1      22.734  -8.475 -15.8900  0.00  0.00     0.000 C
ATOM      4  C4  BGC B   1      21.348  -9.107 -15.9140  0.00  0.00     0.000 C
ATOM      5  C5  BGC B   1      20.362  -8.084 -16.4600  0.00  0.00     0.000 C
ATOM      6  O5  BGC B   1      20.372  -6.957 -15.5660  0.00  0.00     0.000 O
ATOM      7   O  BGC B   1      23.988  -6.521 -15.2520  0.00  0.00     0.000 O
ATOM      9  HD  BGC B   1      24.691  -7.017 -15.3530  0.00  0.00     0.000 HD
ATOM      9   O  BGC B   1      23.689  -9.365 -15.3050  0.00  0.00     0.000 O
ATOM     11  HD  BGC B   1      24.392  -9.861 -15.4050  0.00  0.00     0.000 HD
ATOM     11   O  BGC B   1      21.362 -10.250 -16.7410  0.00  0.00     0.000 O
ATOM     13  HD  BGC B   1      22.065 -10.746 -16.8420  0.00  0.00     0.000 HD
ATOM     13   C  BGC B   1      18.930  -8.585 -16.5930  0.00  0.00     0.000 C
ATOM     14   O  BGC B   1      18.419  -9.096 -15.3650  0.00  0.00     0.000 O
ATOM     16  HD  BGC B   1      19.122  -9.592 -15.4660  0.00  0.00     0.000 HD
ENDROOT
BRANCH 1 16
ATOM     16  O4  BGC B   2      21.488  -5.214 -14.6560  0.00  0.00     0.000 O
BRANCH 16 20
ATOM     17  C1  BGC B   2      19.840  -1.522 -14.2200  0.00  0.00     0.000 C
ATOM     18  C2  BGC B   2      18.866  -2.661 -13.9600  0.00  0.00     0.000 C
ATOM     19  C3  BGC B   2      19.663  -3.952 -13.7920  0.00  0.00     0.000 C
ATOM     20  C4  BGC B   2      20.573  -4.171 -14.9830  0.00  0.00     0.000 C
ATOM     21  C5  BGC B   2      21.397  -2.929 -15.3230  0.00  0.00     0.000 C
ATOM     22  O5  BGC B   2      20.507  -1.815 -15.4630  0.00  0.00     0.000 O
ATOM     23   O  BGC B   2      18.121  -2.408 -12.7560  0.00  0.00     0.000 O
ATOM     25  HD  BGC B   2      18.791  -2.923 -12.9470  0.00  0.00     0.000 HD
ATOM     25   O  BGC B   2      18.775  -5.054 -13.6420  0.00  0.00     0.000 O
ATOM     27  HD  BGC B   2      19.445  -5.568 -13.8320  0.00  0.00     0.000 HD
ATOM     27   C  BGC B   2      22.174  -3.069 -16.6260  0.00  0.00     0.000 C
ATOM     28   O  BGC B   2      21.351  -3.379 -17.7400  0.00  0.00     0.000 O
ATOM     30  HD  BGC B   2      22.022  -3.894 -17.9300  0.00  0.00     0.000 HD
BRANCH 17 30
ATOM     30  O4  BGC B   3      19.062  -0.369 -14.4810  0.00  0.00     0.000 O
BRANCH 30 34
ATOM     31  C1  BGC B   3      19.003   3.535 -13.1840  0.00  0.00     0.000 C
ATOM     32  C2  BGC B   3      19.669   3.328 -14.5440  0.00  0.00     0.000 C
ATOM     33  C3  BGC B   3      19.279   1.962 -15.0790  0.00  0.00     0.000 C
ATOM     34  C4  BGC B   3      19.634   0.875 -14.0650  0.00  0.00     0.000 C
ATOM     35  C5  BGC B   3      19.060   1.217 -12.7020  0.00  0.00     0.000 C
ATOM     36  O5  BGC B   3      19.495   2.525 -12.3160  0.00  0.00     0.000 O
ATOM     37   O  BGC B   3      19.205   4.320 -15.4560  0.00  0.00     0.000 O
ATOM     39  HD  BGC B   3      19.807   4.059 -16.0210  0.00  0.00     0.000 HD
ATOM     39   O  BGC B   3      19.963   1.747 -16.3050  0.00  0.00     0.000 O
ATOM     41  HD  BGC B   3      20.565   1.486 -16.8690  0.00  0.00     0.000 HD
ATOM     41   C  BGC B   3      19.444   0.231 -11.6040  0.00  0.00     0.000 C
ATOM     42   O  BGC B   3      20.845   0.149 -11.4920  0.00  0.00     0.000 O
ATOM     44  HD  BGC B   3      21.448  -0.112 -12.0560  0.00  0.00     0.000 HD
BRANCH 31 44
ATOM     44  O4  BGC B   4      19.467   4.759 -12.6760  0.00  0.00     0.000 O
BRANCH 44 48
ATOM     45  C1  BGC B   4      17.222   7.524 -10.6460  0.00  0.00     0.000 C
ATOM     46  C2  BGC B   4      18.626   7.315 -10.0960  0.00  0.00     0.000 C
ATOM     47  C3  BGC B   4      19.468   6.600 -11.1250  0.00  0.00     0.000 C
ATOM     48  C4  BGC B   4      18.778   5.306 -11.5700  0.00  0.00     0.000 C
ATOM     49  C5  BGC B   4      17.337   5.588 -12.0120  0.00  0.00     0.000 C
ATOM     50  O5  BGC B   4      16.630   6.262 -10.9610  0.00  0.00     0.000 O
ATOM     51   O  BGC B   4      19.232   8.585  -9.7940  0.00  0.00     0.000 O
ATOM     53  HD  BGC B   4      19.635   8.416 -10.5410  0.00  0.00     0.000 HD
ATOM     53   O  BGC B   4      20.744   6.294 -10.5450  0.00  0.00     0.000 O
ATOM     55  HD  BGC B   4      21.147   6.124 -11.2930  0.00  0.00     0.000 HD
ATOM     55   C  BGC B   4      16.534   4.348 -12.3620  0.00  0.00     0.000 C
ATOM     56   O  BGC B   4      16.579   3.468 -11.2370  0.00  0.00     0.000 O
ATOM     58  HD  BGC B   4      16.981   3.299 -11.9850  0.00  0.00     0.000 HD
BRANCH 45 58
ATOM     58  O4  BGC B   5      16.431   7.961  -9.5420  0.00  0.00     0.000 O
BRANCH 58 62
ATOM     59  C1  BGC B   5      12.803   9.774  -8.7050  0.00  0.00     0.000 C
ATOM     60  C2  BGC B   5      12.747   8.275  -8.9170  0.00  0.00     0.000 C
ATOM     61  C3  BGC B   5      14.132   7.668  -8.7990  0.00  0.00     0.000 C
ATOM     62  C4  BGC B   5      15.079   8.374  -9.7560  0.00  0.00     0.000 C
ATOM     63  C5  BGC B   5      15.029   9.894  -9.5440  0.00  0.00     0.000 C
ATOM     64  O5  BGC B   5      13.683  10.334  -9.6850  0.00  0.00     0.000 O
ATOM     65   O  BGC B   5      15.387  10.293 -11.8260  0.00  0.00     0.000 O
ATOM     67  HD  BGC B   5      15.704   9.914 -12.5380  0.00  0.00     0.000 HD
ATOM     67   O  BGC B   5      15.387  10.293 -11.8260  0.00  0.00     0.000 O
ATOM     69  HD  BGC B   5      15.704   9.914 -12.5380  0.00  0.00     0.000 HD
ENDBRANCH 58 62
ENDBRANCH 45 58
ENDBRANCH 44 48
ENDBRANCH 31 44
ENDBRANCH 30 34
ENDBRANCH 17 30
ENDBRANCH 16 20
ENDBRANCH 1 16
TORSDOF 8
ENDMDL
MODEL 95
REMARK VINA RESULT:      -6.8     21.464     26.880
ROOT
ATOM      1  C1  BGC B   1      11.949 -12.599  10.0540  0.00  0.00     0.000 C
ATOM      2  C2  BGC B   1      11.671 -13.127  11.4610  0.00  0.00     0.000 C
ATOM      3  C3  BGC B   1      12.051 -14.593  11.5520  0.00  0.00     0.000 C
ATOM      4  C4  BGC B   1      11.393 -15.390  10.4330  0.00  0.00     0.000 C
ATOM      5  C5  BGC B   1      11.773 -14.757   9.1020  0.00  0.00     0.000 C
ATOM      6  O5  BGC B   1      11.266 -13.409   9.1070  0.00  0.00     0.000 O
ATOM      7   O  BGC B   1      12.449 -12.377  12.4090  0.00  0.00     0.000 O
ATOM      9  HD  BGC B   1      12.674 -12.772  13.1470  0.00  0.00     0.000 HD
ATOM      9   O  BGC B   1      11.659 -15.093  12.8330  0.00  0.00     0.000 O
ATOM     11  HD  BGC B   1      11.884 -15.488  13.5700  0.00  0.00     0.000 HD
ATOM     11   O  BGC B   1      11.844 -16.726  10.4750  0.00  0.00     0.000 O
ATOM     13  HD  BGC B   1      12.070 -17.121  11.2120  0.00  0.00     0.000 HD
ATOM     13   C  BGC B   1      11.228 -15.473   7.8750  0.00  0.00     0.000 C
ATOM     14   O  BGC B   1       9.812 -15.623   7.9180  0.00  0.00     0.000 O
ATOM     16  HD  BGC B   1      10.038 -16.018   8.6550  0.00  0.00     0.000 HD
ENDROOT
BRANCH 1 16
ATOM     16  O4  BGC B   2      11.316 -11.323   9.9760  0.00  0.00     0.000 O
BRANCH 16 20
ATOM     17  C1  BGC B   2      11.448  -7.842   7.8780  0.00  0.00     0.000 C
ATOM     18  C2  BGC B   2      10.715  -8.964   7.1570  0.00  0.00     0.000 C
ATOM     19  C3  BGC B   2      10.414 -10.072   8.1630  0.00  0.00     0.000 C
ATOM     20  C4  BGC B   2      11.683 -10.508   8.8660  0.00  0.00     0.000 C
ATOM     21  C5  BGC B   2      12.484  -9.325   9.4110  0.00  0.00     0.000 C
ATOM     22  O5  BGC B   2      12.695  -8.389   8.3460  0.00  0.00     0.000 O
ATOM     23   O  BGC B   2       9.478  -8.475   6.6120  0.00  0.00     0.000 O
ATOM     25  HD  BGC B   2       9.677  -8.949   7.3080  0.00  0.00     0.000 HD
ATOM     25   O  BGC B   2       9.812 -11.178   7.5000  0.00  0.00     0.000 O
ATOM     27  HD  BGC B   2      10.011 -11.652   8.1970  0.00  0.00     0.000 HD
ATOM     27   C  BGC B   2      13.849  -9.730   9.9510  0.00  0.00     0.000 C
ATOM     28   O  BGC B   2      14.650 -10.413   9.0000  0.00  0.00     0.000 O
ATOM     30  HD  BGC B   2      14.849 -10.887   9.6970  0.00  0.00     0.000 HD
BRANCH 17 30
ATOM     30  O4  BGC B   3      11.808  -6.890   6.8940  0.00  0.00     0.000 O
BRANCH 30 34
ATOM     31  C1  BGC B   3      12.491  -2.849   6.5380  0.00  0.00     0.000 C
ATOM     32  C2  BGC B   3      13.607  -3.622   7.2390  0.00  0.00     0.000 C
ATOM     33  C3  BGC B   3      13.433  -5.103   6.9550  0.00  0.00     0.000 C
ATOM     34  C4  BGC B   3      12.035  -5.560   7.3700  0.00  0.00     0.000 C
ATOM     35  C5  BGC B   3      10.980  -4.660   6.7520  0.00  0.00     0.000 C
ATOM     36  O5  BGC B   3      11.261  -3.297   7.0860  0.00  0.00     0.000 O
ATOM     37   O  BGC B   3      14.870  -3.208   6.7210  0.00  0.00     0.000 O
ATOM     39  HD  BGC B   3      15.257  -3.660   7.3490  0.00  0.00     0.000 HD
ATOM     39   O  BGC B   3      14.427  -5.819   7.6720  0.00  0.00     0.000 O
ATOM     41  HD  BGC B   3      14.815  -6.271   8.3010  0.00  0.00     0.000 HD
ATOM     41   C  BGC B   3       9.555  -4.987   7.1860  0.00  0.00     0.000 C
ATOM     42   O  BGC B   3       9.445  -4.908   8.5870  0.00  0.00     0.000 O
ATOM     44  HD  BGC B   3       9.832  -5.360   9.2160  0.00  0.00     0.000 HD
BRANCH 31 44
ATOM     44  O4  BGC B   4      12.624  -1.500   6.9060  0.00  0.00     0.000 O
BRANCH 44 48
ATOM     45  C1  BGC B   4      12.045   2.277   5.4220  0.00  0.00     0.000 C
ATOM     46  C2  BGC B   4      10.812   1.385   5.3960  0.00  0.00     0.000 C
ATOM     47  C3  BGC B   4      11.029   0.199   6.3020  0.00  0.00     0.000 C
ATOM     48  C4  BGC B   4      12.325  -0.527   5.9270  0.00  0.00     0.000 C
ATOM     49  C5  BGC B   4      13.500   0.458   5.8760  0.00  0.00     0.000 C
ATOM     50  O5  BGC B   4      13.187   1.539   4.9850  0.00  0.00     0.000 O
ATOM     51   O  BGC B   4       9.661   2.121   5.8530  0.00  0.00     0.000 O
ATOM     53  HD  BGC B   4       9.824   1.663   6.5690  0.00  0.00     0.000 HD
ATOM     53   O  BGC B   4       9.916  -0.697   6.1670  0.00  0.00     0.000 O
ATOM     55  HD  BGC B   4      10.079  -1.155   6.8830  0.00  0.00     0.000 HD
ATOM     55   C  BGC B   4      14.807  -0.148   5.3980  0.00  0.00     0.000 C
ATOM     56   O  BGC B   4      14.568  -0.750   4.1250  0.00  0.00     0.000 O
ATOM     58  HD  BGC B   4      14.731  -1.209   4.8410  0.00  0.00     0.000 HD
BRANCH 45 58
ATOM     58  O4  BGC B   5      11.870   3.218   4.3640  0.00  0.00     0.000 O
BRANCH 58 62
ATOM     59  C1  BGC B   5      12.175   7.262   3.5230  0.00  0.00     0.000 C
ATOM     60  C2  BGC B   5      13.492   6.520   3.6350  0.00  0.00     0.000 C
ATOM     61  C3  BGC B   5      13.271   5.023   3.5250  0.00  0.00     0.000 C
ATOM     62  C4  BGC B   5      12.246   4.584   4.5580  0.00  0.00     0.000 C
ATOM     63  C5  BGC B   5      10.967   5.426   4.4440  0.00  0.00     0.000 C
ATOM     64  O5  BGC B   5      11.310   6.803   4.5670  0.00  0.00     0.000 O
ATOM     65   O  BGC B   5      10.608   5.320   6.7580  0.00  0.00     0.000 O
ATOM     67  HD  BGC B   5      10.815   4.848   7.4540  0.00  0.00     0.000 HD
ATOM     67   O  BGC B   5      10.608   5.320   6.7580  0.00  0.00     0.000 O
ATOM     69  HD  BGC B   5      10.815   4.848   7.4540  0.00  0.00     0.000 HD
ENDBRANCH 58 62
ENDBRANCH 45 58
ENDBRANCH 44 48
ENDBRANCH 31 44
ENDBRANCH 30 34
ENDBRANCH 17 30
ENDBRANCH 16 20
ENDBRANCH 1 16
TORSDOF 8
ENDMDL
MODEL 96
REMARK VINA RESULT:      -6.8     14.526     20.751
ROOT
ATOM      1  C1  BGC B   1       4.428   4.518   1.2910  0.00  0.00     0.000 C
ATOM      2  C2  BGC B   1       3.231   3.697   0.8150  0.00  0.00     0.000 C
ATOM      3  C3  BGC B   1       2.459   3.163   2.0060  0.00  0.00     0.000 C
ATOM      4  C4  BGC B   1       3.389   2.433   2.9680  0.00  0.00     0.000 C
ATOM      5  C5  BGC B   1       4.514   3.379   3.3610  0.00  0.00     0.000 C
ATOM      6  O5  BGC B   1       5.225   3.725   2.1580  0.00  0.00     0.000 O
ATOM      7   O  BGC B   1       2.366   4.532   0.0270  0.00  0.00     0.000 O
ATOM      9  HD  BGC B   1       1.524   4.333   0.0060  0.00  0.00     0.000 HD
ATOM      9   O  BGC B   1       1.427   2.291   1.5350  0.00  0.00     0.000 O
ATOM     11  HD  BGC B   1       0.584   2.092   1.5140  0.00  0.00     0.000 HD
ATOM     11   O  BGC B   1       2.669   2.039   4.1150  0.00  0.00     0.000 O
ATOM     13  HD  BGC B   1       1.826   1.839   4.0940  0.00  0.00     0.000 HD
ATOM     13   C  BGC B   1       5.507   2.809   4.3630  0.00  0.00     0.000 C
ATOM     14   O  BGC B   1       6.080   1.582   3.9210  0.00  0.00     0.000 O
ATOM     16  HD  BGC B   1       5.238   1.383   3.8990  0.00  0.00     0.000 HD
ENDROOT
BRANCH 1 16
ATOM     16  O4  BGC B   2       5.240   4.742   0.1400  0.00  0.00     0.000 O
BRANCH 16 20
ATOM     17  C1  BGC B   2       7.713   7.492  -1.5520  0.00  0.00     0.000 C
ATOM     18  C2  BGC B   2       8.204   6.971  -0.2090  0.00  0.00     0.000 C
ATOM     19  C3  BGC B   2       7.414   5.713   0.1420  0.00  0.00     0.000 C
ATOM     20  C4  BGC B   2       5.925   5.991   0.0880  0.00  0.00     0.000 C
ATOM     21  C5  BGC B   2       5.509   6.689  -1.2070  0.00  0.00     0.000 C
ATOM     22  O5  BGC B   2       6.329   7.851  -1.3820  0.00  0.00     0.000 O
ATOM     23   O  BGC B   2       9.601   6.642  -0.2880  0.00  0.00     0.000 O
ATOM     25  HD  BGC B   2       8.876   6.169  -0.2930  0.00  0.00     0.000 HD
ATOM     25   O  BGC B   2       7.783   5.255   1.4370  0.00  0.00     0.000 O
ATOM     27  HD  BGC B   2       7.057   4.782   1.4330  0.00  0.00     0.000 HD
ATOM     27   C  BGC B   2       4.055   7.144  -1.1960  0.00  0.00     0.000 C
ATOM     28   O  BGC B   2       3.741   7.996  -0.1070  0.00  0.00     0.000 O
ATOM     30  HD  BGC B   2       3.015   7.523  -0.1110  0.00  0.00     0.000 HD
BRANCH 17 30
ATOM     30  O4  BGC B   3       8.385   8.714  -1.7880  0.00  0.00     0.000 O
BRANCH 30 34
ATOM     31  C1  BGC B   3      10.620   9.906  -5.0300  0.00  0.00     0.000 C
ATOM     32  C2  BGC B   3       9.458  10.837  -4.6830  0.00  0.00     0.000 C
ATOM     33  C3  BGC B   3       8.979  10.521  -3.2780  0.00  0.00     0.000 C
ATOM     34  C4  BGC B   3       8.618   9.041  -3.1620  0.00  0.00     0.000 C
ATOM     35  C5  BGC B   3       9.764   8.177  -3.6570  0.00  0.00     0.000 C
ATOM     36  O5  BGC B   3      10.124   8.578  -4.9830  0.00  0.00     0.000 O
ATOM     37   O  BGC B   3       9.907  12.190  -4.7150  0.00  0.00     0.000 O
ATOM     39  HD  BGC B   3       9.084  12.447  -4.6360  0.00  0.00     0.000 HD
ATOM     39   O  BGC B   3       7.852  11.336  -2.9930  0.00  0.00     0.000 O
ATOM     41  HD  BGC B   3       7.028  11.593  -2.9150  0.00  0.00     0.000 HD
ATOM     41   C  BGC B   3       9.456   6.684  -3.6640  0.00  0.00     0.000 C
ATOM     42   O  BGC B   3       8.325   6.425  -4.4600  0.00  0.00     0.000 O
ATOM     44  HD  BGC B   3       7.501   6.682  -4.3820  0.00  0.00     0.000 HD
BRANCH 31 44
ATOM     44  O4  BGC B   4      10.968  10.156  -6.3680  0.00  0.00     0.000 O
BRANCH 44 48
ATOM     45  C1  BGC B   4      14.133   9.839  -8.9530  0.00  0.00     0.000 C
ATOM     46  C2  BGC B   4      13.605   8.513  -8.4260  0.00  0.00     0.000 C
ATOM     47  C3  BGC B   4      12.237   8.720  -7.8240  0.00  0.00     0.000 C
ATOM     48  C4  BGC B   4      12.283   9.830  -6.7690  0.00  0.00     0.000 C
ATOM     49  C5  BGC B   4      12.921  11.098  -7.3490  0.00  0.00     0.000 C
ATOM     50  O5  BGC B   4      14.214  10.788  -7.8870  0.00  0.00     0.000 O
ATOM     51   O  BGC B   4      13.506   7.559  -9.5010  0.00  0.00     0.000 O
ATOM     53  HD  BGC B   4      12.670   7.776  -9.4330  0.00  0.00     0.000 HD
ATOM     53   O  BGC B   4      11.809   7.492  -7.2160  0.00  0.00     0.000 O
ATOM     55  HD  BGC B   4      10.973   7.709  -7.1480  0.00  0.00     0.000 HD
ATOM     55   C  BGC B   4      13.116  12.219  -6.3430  0.00  0.00     0.000 C
ATOM     56   O  BGC B   4      13.876  11.697  -5.2520  0.00  0.00     0.000 O
ATOM     58  HD  BGC B   4      13.041  11.914  -5.1840  0.00  0.00     0.000 HD
BRANCH 45 58
ATOM     58  O4  BGC B   5      15.508   9.617  -9.2640  0.00  0.00     0.000 O
BRANCH 58 62
ATOM     59  C1  BGC B   5      18.308  10.250 -12.2480  0.00  0.00     0.000 C
ATOM     60  C2  BGC B   5      17.947  11.471 -11.4260  0.00  0.00     0.000 C
ATOM     61  C3  BGC B   5      17.262  11.061 -10.1360  0.00  0.00     0.000 C
ATOM     62  C4  BGC B   5      16.067  10.177 -10.4540  0.00  0.00     0.000 C
ATOM     63  C5  BGC B   5      16.485   9.005 -11.3540  0.00  0.00     0.000 C
ATOM     64  O5  BGC B   5      17.107   9.523 -12.5250  0.00  0.00     0.000 O
ATOM     65   O  BGC B   5      14.416   9.026 -12.4580  0.00  0.00     0.000 O
ATOM     67  HD  BGC B   5      13.598   9.289 -12.3560  0.00  0.00     0.000 HD
ATOM     67   O  BGC B   5      14.416   9.026 -12.4580  0.00  0.00     0.000 O
ATOM     69  HD  BGC B   5      13.598   9.289 -12.3560  0.00  0.00     0.000 HD
ENDBRANCH 58 62
ENDBRANCH 45 58
ENDBRANCH 44 48
ENDBRANCH 31 44
ENDBRANCH 30 34
ENDBRANCH 17 30
ENDBRANCH 16 20
ENDBRANCH 1 16
TORSDOF 8
ENDMDL
MODEL 97
REMARK VINA RESULT:      -6.7     20.801     26.455
ROOT
ATOM      1  C1  BGC B   1      11.620 -11.313   9.8930  0.00  0.00     0.000 C
ATOM      2  C2  BGC B   1      10.945 -11.586  11.2370  0.00  0.00     0.000 C
ATOM      3  C3  BGC B   1      11.287 -12.983  11.7170  0.00  0.00     0.000 C
ATOM      4  C4  BGC B   1      10.989 -14.013  10.6350  0.00  0.00     0.000 C
ATOM      5  C5  BGC B   1      11.739 -13.616   9.3720  0.00  0.00     0.000 C
ATOM      6  O5  BGC B   1      11.248 -12.324   8.9680  0.00  0.00     0.000 O
ATOM      7   O  BGC B   1      11.408 -10.627  12.2020  0.00  0.00     0.000 O
ATOM      9  HD  BGC B   1      11.410 -10.863  13.0350  0.00  0.00     0.000 HD
ATOM      9   O  BGC B   1      10.539 -13.260  12.9040  0.00  0.00     0.000 O
ATOM     11  HD  BGC B   1      10.540 -13.496  13.7370  0.00  0.00     0.000 HD
ATOM     11   O  BGC B   1      11.412 -15.288  11.0650  0.00  0.00     0.000 O
ATOM     13  HD  BGC B   1      11.414 -15.525  11.8980  0.00  0.00     0.000 HD
ATOM     13   C  BGC B   1      11.580 -14.580   8.2050  0.00  0.00     0.000 C
ATOM     14   O  BGC B   1      10.214 -14.805   7.8690  0.00  0.00     0.000 O
ATOM     16  HD  BGC B   1      10.216 -15.041   8.7020  0.00  0.00     0.000 HD
ENDROOT
BRANCH 1 16
ATOM     16  O4  BGC B   2      11.034 -10.114   9.3900  0.00  0.00     0.000 O
BRANCH 16 20
ATOM     17  C1  BGC B   2      12.120  -6.792   7.3100  0.00  0.00     0.000 C
ATOM     18  C2  BGC B   2      11.554  -7.902   6.4370  0.00  0.00     0.000 C
ATOM     19  C3  BGC B   2      10.857  -8.920   7.3370  0.00  0.00     0.000 C
ATOM     20  C4  BGC B   2      11.799  -9.399   8.4230  0.00  0.00     0.000 C
ATOM     21  C5  BGC B   2      12.489  -8.243   9.1480  0.00  0.00     0.000 C
ATOM     22  O5  BGC B   2      13.104  -7.394   8.1710  0.00  0.00     0.000 O
ATOM     23   O  BGC B   2      10.598  -7.363   5.5090  0.00  0.00     0.000 O
ATOM     25  HD  BGC B   2      10.526  -7.805   6.2510  0.00  0.00     0.000 HD
ATOM     25   O  BGC B   2      10.400 -10.021   6.5600  0.00  0.00     0.000 O
ATOM     27  HD  BGC B   2      10.328 -10.463   7.3020  0.00  0.00     0.000 HD
ATOM     27   C  BGC B   2      13.576  -8.708  10.1090  0.00  0.00     0.000 C
ATOM     28   O  BGC B   2      14.572  -9.506   9.4880  0.00  0.00     0.000 O
ATOM     30  HD  BGC B   2      14.500  -9.947  10.2290  0.00  0.00     0.000 HD
BRANCH 17 30
ATOM     30  O4  BGC B   3      12.851  -5.932   6.4570  0.00  0.00     0.000 O
BRANCH 30 34
ATOM     31  C1  BGC B   3      14.401  -2.121   6.4740  0.00  0.00     0.000 C
ATOM     32  C2  BGC B   3      15.283  -3.168   7.1530  0.00  0.00     0.000 C
ATOM     33  C3  BGC B   3      14.813  -4.551   6.7370  0.00  0.00     0.000 C
ATOM     34  C4  BGC B   3      13.328  -4.722   7.0530  0.00  0.00     0.000 C
ATOM     35  C5  BGC B   3      12.528  -3.571   6.4700  0.00  0.00     0.000 C
ATOM     36  O5  BGC B   3      13.073  -2.330   6.9300  0.00  0.00     0.000 O
ATOM     37   O  BGC B   3      16.633  -3.003   6.7240  0.00  0.00     0.000 O
ATOM     39  HD  BGC B   3      16.877  -3.574   7.3280  0.00  0.00     0.000 HD
ATOM     39   O  BGC B   3      15.588  -5.517   7.4310  0.00  0.00     0.000 O
ATOM     41  HD  BGC B   3      15.832  -6.088   8.0350  0.00  0.00     0.000 HD
ATOM     41   C  BGC B   3      11.043  -3.610   6.8150  0.00  0.00     0.000 C
ATOM     42   O  BGC B   3      10.870  -3.613   8.2120  0.00  0.00     0.000 O
ATOM     44  HD  BGC B   3      11.114  -4.184   8.8150  0.00  0.00     0.000 HD
BRANCH 31 44
ATOM     44  O4  BGC B   4      14.798  -0.865   6.9610  0.00  0.00     0.000 O
BRANCH 44 48
ATOM     45  C1  BGC B   4      15.160   3.043   5.7770  0.00  0.00     0.000 C
ATOM     46  C2  BGC B   4      13.749   2.478   5.6890  0.00  0.00     0.000 C
ATOM     47  C3  BGC B   4      13.664   1.208   6.4990  0.00  0.00     0.000 C
ATOM     48  C4  BGC B   4      14.753   0.224   6.0610  0.00  0.00     0.000 C
ATOM     49  C5  BGC B   4      16.130   0.899   6.0800  0.00  0.00     0.000 C
ATOM     50  O5  BGC B   4      16.098   2.088   5.2770  0.00  0.00     0.000 O
ATOM     51   O  BGC B   4      12.803   3.431   6.2080  0.00  0.00     0.000 O
ATOM     53  HD  BGC B   4      12.841   2.893   6.8860  0.00  0.00     0.000 HD
ATOM     53   O  BGC B   4      12.371   0.619   6.3010  0.00  0.00     0.000 O
ATOM     55  HD  BGC B   4      12.410   0.081   6.9790  0.00  0.00     0.000 HD
ATOM     55   C  BGC B   4      17.260   0.036   5.5490  0.00  0.00     0.000 C
ATOM     56   O  BGC B   4      16.900  -0.393   4.2350  0.00  0.00     0.000 O
ATOM     58  HD  BGC B   4      16.939  -0.930   4.9120  0.00  0.00     0.000 HD
BRANCH 45 58
ATOM     58  O4  BGC B   5      15.229   4.077   4.7950  0.00  0.00     0.000 O
BRANCH 58 62
ATOM     59  C1  BGC B   5      17.215   7.607   3.9330  0.00  0.00     0.000 C
ATOM     60  C2  BGC B   5      18.005   6.338   3.6820  0.00  0.00     0.000 C
ATOM     61  C3  BGC B   5      17.081   5.137   3.6250  0.00  0.00     0.000 C
ATOM     62  C4  BGC B   5      16.242   5.081   4.8920  0.00  0.00     0.000 C
ATOM     63  C5  BGC B   5      15.531   6.421   5.1300  0.00  0.00     0.000 C
ATOM     64  O5  BGC B   5      16.505   7.458   5.1670  0.00  0.00     0.000 O
ATOM     65   O  BGC B   5      15.714   6.182   7.4550  0.00  0.00     0.000 O
ATOM     67  HD  BGC B   5      15.827   5.579   8.0670  0.00  0.00     0.000 HD
ATOM     67   O  BGC B   5      15.714   6.182   7.4550  0.00  0.00     0.000 O
ATOM     69  HD  BGC B   5      15.827   5.579   8.0670  0.00  0.00     0.000 HD
ENDBRANCH 58 62
ENDBRANCH 45 58
ENDBRANCH 44 48
ENDBRANCH 31 44
ENDBRANCH 30 34
ENDBRANCH 17 30
ENDBRANCH 16 20
ENDBRANCH 1 16
TORSDOF 8
ENDMDL
MODEL 98
REMARK VINA RESULT:      -6.7      5.001     10.801
ROOT
ATOM      1  C1  BGC B   1      19.741  -5.454 -14.6680  0.00  0.00     0.000 C
ATOM      2  C2  BGC B   1      18.462  -4.668 -14.3840  0.00  0.00     0.000 C
ATOM      3  C3  BGC B   1      18.805  -3.280 -13.8780  0.00  0.00     0.000 C
ATOM      4  C4  BGC B   1      19.776  -3.359 -12.7060  0.00  0.00     0.000 C
ATOM      5  C5  BGC B   1      20.998  -4.153 -13.1450  0.00  0.00     0.000 C
ATOM      6  O5  BGC B   1      20.548  -5.474 -13.4990  0.00  0.00     0.000 O
ATOM      7   O  BGC B   1      17.698  -4.554 -15.5960  0.00  0.00     0.000 O
ATOM      9  HD  BGC B   1      17.177  -3.867 -15.6800  0.00  0.00     0.000 HD
ATOM      9   O  BGC B   1      17.597  -2.616 -13.4950  0.00  0.00     0.000 O
ATOM     11  HD  BGC B   1      17.076  -1.930 -13.5790  0.00  0.00     0.000 HD
ATOM     11   O  BGC B   1      20.161  -2.057 -12.3220  0.00  0.00     0.000 O
ATOM     13  HD  BGC B   1      19.640  -1.371 -12.4060  0.00  0.00     0.000 HD
ATOM     13   C  BGC B   1      22.090  -4.279 -12.0930  0.00  0.00     0.000 C
ATOM     14   O  BGC B   1      21.605  -4.832 -10.8730  0.00  0.00     0.000 O
ATOM     16  HD  BGC B   1      21.084  -4.145 -10.9560  0.00  0.00     0.000 HD
ENDROOT
BRANCH 1 16
ATOM     16  O4  BGC B   2      19.340  -6.808 -14.8670  0.00  0.00     0.000 O
BRANCH 16 20
ATOM     17  C1  BGC B   2      19.993 -10.022 -17.2720  0.00  0.00     0.000 C
ATOM     18  C2  BGC B   2      21.203  -9.625 -16.4400  0.00  0.00     0.000 C
ATOM     19  C3  BGC B   2      20.744  -8.673 -15.3380  0.00  0.00     0.000 C
ATOM     20  C4  BGC B   2      19.984  -7.504 -15.9310  0.00  0.00     0.000 C
ATOM     21  C5  BGC B   2      18.897  -7.951 -16.9090  0.00  0.00     0.000 C
ATOM     22  O5  BGC B   2      19.490  -8.819 -17.8830  0.00  0.00     0.000 O
ATOM     23   O  BGC B   2      21.794 -10.789 -15.8400  0.00  0.00     0.000 O
ATOM     25  HD  BGC B   2      21.284 -10.157 -15.5400  0.00  0.00     0.000 HD
ATOM     25   O  BGC B   2      21.868  -8.207 -14.6010  0.00  0.00     0.000 O
ATOM     27  HD  BGC B   2      21.358  -7.574 -14.3010  0.00  0.00     0.000 HD
ATOM     27   C  BGC B   2      18.254  -6.788 -17.6550  0.00  0.00     0.000 C
ATOM     28   O  BGC B   2      19.187  -5.986 -18.3590  0.00  0.00     0.000 O
ATOM     30  HD  BGC B   2      18.678  -5.353 -18.0590  0.00  0.00     0.000 HD
BRANCH 17 30
ATOM     30  O4  BGC B   3      20.473 -10.809 -18.3450  0.00  0.00     0.000 O
BRANCH 30 34
ATOM     31  C1  BGC B   3      19.205 -13.855 -20.8020  0.00  0.00     0.000 C
ATOM     32  C2  BGC B   3      18.670 -12.473 -21.1770  0.00  0.00     0.000 C
ATOM     33  C3  BGC B   3      19.503 -11.417 -20.4720  0.00  0.00     0.000 C
ATOM     34  C4  BGC B   3      19.512 -11.669 -18.9650  0.00  0.00     0.000 C
ATOM     35  C5  BGC B   3      19.915 -13.104 -18.6720  0.00  0.00     0.000 C
ATOM     36  O5  BGC B   3      19.063 -13.996 -19.3980  0.00  0.00     0.000 O
ATOM     37   O  BGC B   3      18.793 -12.281 -22.5840  0.00  0.00     0.000 O
ATOM     39  HD  BGC B   3      18.322 -11.558 -22.5100  0.00  0.00     0.000 HD
ATOM     39   O  BGC B   3      18.952 -10.142 -20.7640  0.00  0.00     0.000 O
ATOM     41  HD  BGC B   3      18.481  -9.419 -20.6890  0.00  0.00     0.000 HD
ATOM     41   C  BGC B   3      19.862 -13.472 -17.1930  0.00  0.00     0.000 C
ATOM     42   O  BGC B   3      18.567 -13.258 -16.6850  0.00  0.00     0.000 O
ATOM     44  HD  BGC B   3      18.096 -12.535 -16.6110  0.00  0.00     0.000 HD
BRANCH 31 44
ATOM     44  O4  BGC B   4      18.350 -14.804 -21.3870  0.00  0.00     0.000 O
BRANCH 44 48
ATOM     45  C1  BGC B   4      19.157 -18.806 -21.7620  0.00  0.00     0.000 C
ATOM     46  C2  BGC B   4      20.361 -17.942 -21.4140  0.00  0.00     0.000 C
ATOM     47  C3  BGC B   4      19.890 -16.596 -20.9230  0.00  0.00     0.000 C
ATOM     48  C4  BGC B   4      18.946 -15.957 -21.9470  0.00  0.00     0.000 C
ATOM     49  C5  BGC B   4      17.819 -16.928 -22.3200  0.00  0.00     0.000 C
ATOM     50  O5  BGC B   4      18.379 -18.168 -22.7760  0.00  0.00     0.000 O
ATOM     51   O  BGC B   4      21.139 -18.574 -20.3790  0.00  0.00     0.000 O
ATOM     53  HD  BGC B   4      20.731 -17.979 -19.9000  0.00  0.00     0.000 HD
ATOM     53   O  BGC B   4      21.032 -15.750 -20.7240  0.00  0.00     0.000 O
ATOM     55  HD  BGC B   4      20.624 -15.155 -20.2450  0.00  0.00     0.000 HD
ATOM     55   C  BGC B   4      16.897 -16.427 -23.4170  0.00  0.00     0.000 C
ATOM     56   O  BGC B   4      17.705 -16.096 -24.5480  0.00  0.00     0.000 O
ATOM     58  HD  BGC B   4      17.297 -15.501 -24.0690  0.00  0.00     0.000 HD
BRANCH 45 58
ATOM     58  O4  BGC B   5      19.677 -19.943 -22.4510  0.00  0.00     0.000 O
BRANCH 58 62
ATOM     59  C1  BGC B   5      18.424 -23.676 -23.7300  0.00  0.00     0.000 C
ATOM     60  C2  BGC B   5      18.364 -22.578 -24.7720  0.00  0.00     0.000 C
ATOM     61  C3  BGC B   5      19.211 -21.394 -24.3480  0.00  0.00     0.000 C
ATOM     62  C4  BGC B   5      18.782 -20.932 -22.9650  0.00  0.00     0.000 C
ATOM     63  C5  BGC B   5      18.788 -22.107 -21.9760  0.00  0.00     0.000 C
ATOM     64  O5  BGC B   5      17.957 -23.143 -22.4870  0.00  0.00     0.000 O
ATOM     65   O  BGC B   5      16.955 -21.225 -20.8110  0.00  0.00     0.000 O
ATOM     67  HD  BGC B   5      16.534 -20.480 -20.6740  0.00  0.00     0.000 HD
ATOM     67   O  BGC B   5      16.955 -21.225 -20.8110  0.00  0.00     0.000 O
ATOM     69  HD  BGC B   5      16.534 -20.480 -20.6740  0.00  0.00     0.000 HD
ENDBRANCH 58 62
ENDBRANCH 45 58
ENDBRANCH 44 48
ENDBRANCH 31 44
ENDBRANCH 30 34
ENDBRANCH 17 30
ENDBRANCH 16 20
ENDBRANCH 1 16
TORSDOF 8
ENDMDL
MODEL 99
REMARK VINA RESULT:      -6.7     20.594     25.550
ROOT
ATOM      1  C1  BGC B   1      10.814  -8.438   8.2750  0.00  0.00     0.000 C
ATOM      2  C2  BGC B   1      10.825  -9.876   7.7580  0.00  0.00     0.000 C
ATOM      3  C3  BGC B   1       9.617 -10.628   8.2850  0.00  0.00     0.000 C
ATOM      4  C4  BGC B   1       9.520 -10.497   9.7990  0.00  0.00     0.000 C
ATOM      5  C5  BGC B   1       9.504  -9.018  10.1560  0.00  0.00     0.000 C
ATOM      6  O5  BGC B   1      10.744  -8.451   9.6930  0.00  0.00     0.000 O
ATOM      7   O  BGC B   1      10.784  -9.863   6.3210  0.00  0.00     0.000 O
ATOM      9  HD  BGC B   1      10.429 -10.545   5.9220  0.00  0.00     0.000 HD
ATOM      9   O  BGC B   1       9.722 -12.001   7.8970  0.00  0.00     0.000 O
ATOM     11  HD  BGC B   1       9.367 -12.683   7.4980  0.00  0.00     0.000 HD
ATOM     11   O  BGC B   1       8.334 -11.114  10.2530  0.00  0.00     0.000 O
ATOM     13  HD  BGC B   1       7.979 -11.796   9.8540  0.00  0.00     0.000 HD
ATOM     13   C  BGC B   1       9.360  -8.720  11.6410  0.00  0.00     0.000 C
ATOM     14   O  BGC B   1      10.362  -9.364  12.4230  0.00  0.00     0.000 O
ATOM     16  HD  BGC B   1      10.007 -10.045  12.0240  0.00  0.00     0.000 HD
ENDROOT
BRANCH 1 16
ATOM     16  O4  BGC B   2      12.098  -7.897   7.9710  0.00  0.00     0.000 O
BRANCH 16 20
ATOM     17  C1  BGC B   2      14.101  -4.359   7.8610  0.00  0.00     0.000 C
ATOM     18  C2  BGC B   2      13.975  -4.947   9.2580  0.00  0.00     0.000 C
ATOM     19  C3  BGC B   2      13.547  -6.408   9.1330  0.00  0.00     0.000 C
ATOM     20  C4  BGC B   2      12.292  -6.522   8.2930  0.00  0.00     0.000 C
ATOM     21  C5  BGC B   2      12.400  -5.753   6.9760  0.00  0.00     0.000 C
ATOM     22  O5  BGC B   2      12.790  -4.405   7.2660  0.00  0.00     0.000 O
ATOM     23   O  BGC B   2      15.240  -4.884   9.9370  0.00  0.00     0.000 O
ATOM     25  HD  BGC B   2      14.804  -5.522   9.5460  0.00  0.00     0.000 HD
ATOM     25   O  BGC B   2      13.328  -6.960  10.4260  0.00  0.00     0.000 O
ATOM     27  HD  BGC B   2      12.892  -7.598  10.0350  0.00  0.00     0.000 HD
ATOM     27   C  BGC B   2      11.084  -5.700   6.2090  0.00  0.00     0.000 C
ATOM     28   O  BGC B   2      10.016  -5.150   6.9630  0.00  0.00     0.000 O
ATOM     30  HD  BGC B   2       9.580  -5.788   6.5720  0.00  0.00     0.000 HD
BRANCH 17 30
ATOM     30  O4  BGC B   3      14.386  -2.982   8.0200  0.00  0.00     0.000 O
BRANCH 30 34
ATOM     31  C1  BGC B   3      16.351   0.075   6.0930  0.00  0.00     0.000 C
ATOM     32  C2  BGC B   3      15.095  -0.420   5.3790  0.00  0.00     0.000 C
ATOM     33  C3  BGC B   3      14.265  -1.236   6.3550  0.00  0.00     0.000 C
ATOM     34  C4  BGC B   3      15.105  -2.367   6.9460  0.00  0.00     0.000 C
ATOM     35  C5  BGC B   3      16.404  -1.821   7.5110  0.00  0.00     0.000 C
ATOM     36  O5  BGC B   3      17.084  -1.070   6.5000  0.00  0.00     0.000 O
ATOM     37   O  BGC B   3      14.319   0.697   4.9510  0.00  0.00     0.000 O
ATOM     39  HD  BGC B   3      13.815   0.154   4.5020  0.00  0.00     0.000 HD
ATOM     39   O  BGC B   3      13.140  -1.756   5.6630  0.00  0.00     0.000 O
ATOM     41  HD  BGC B   3      12.635  -2.299   5.2150  0.00  0.00     0.000 HD
ATOM     41   C  BGC B   3      17.349  -2.894   8.0410  0.00  0.00     0.000 C
ATOM     42   O  BGC B   3      17.656  -3.817   7.0230  0.00  0.00     0.000 O
ATOM     44  HD  BGC B   3      17.152  -4.360   6.5750  0.00  0.00     0.000 HD
BRANCH 31 44
ATOM     44  O4  BGC B   4      17.140   0.735   5.1360  0.00  0.00     0.000 O
BRANCH 44 48
ATOM     45  C1  BGC B   4      19.817   3.821   4.7900  0.00  0.00     0.000 C
ATOM     46  C2  BGC B   4      20.310   2.638   5.6120  0.00  0.00     0.000 C
ATOM     47  C3  BGC B   4      19.432   1.439   5.3440  0.00  0.00     0.000 C
ATOM     48  C4  BGC B   4      17.962   1.792   5.5890  0.00  0.00     0.000 C
ATOM     49  C5  BGC B   4      17.572   3.052   4.8060  0.00  0.00     0.000 C
ATOM     50  O5  BGC B   4      18.466   4.125   5.1390  0.00  0.00     0.000 O
ATOM     51   O  BGC B   4      21.666   2.317   5.2500  0.00  0.00     0.000 O
ATOM     53  HD  BGC B   4      21.257   1.687   4.8190  0.00  0.00     0.000 HD
ATOM     53   O  BGC B   4      19.827   0.373   6.2200  0.00  0.00     0.000 O
ATOM     55  HD  BGC B   4      19.417  -0.256   5.7900  0.00  0.00     0.000 HD
ATOM     55   C  BGC B   4      16.163   3.548   5.0760  0.00  0.00     0.000 C
ATOM     56   O  BGC B   4      16.031   3.740   6.4850  0.00  0.00     0.000 O
ATOM     58  HD  BGC B   4      15.622   3.110   6.0540  0.00  0.00     0.000 HD
BRANCH 45 58
ATOM     58  O4  BGC B   5      20.520   4.960   5.2840  0.00  0.00     0.000 O
BRANCH 58 62
ATOM     59  C1  BGC B   5      22.462   8.366   3.9520  0.00  0.00     0.000 C
ATOM     60  C2  BGC B   5      20.959   8.489   4.0950  0.00  0.00     0.000 C
ATOM     61  C3  BGC B   5      20.413   7.370   4.9610  0.00  0.00     0.000 C
ATOM     62  C4  BGC B   5      20.854   6.029   4.3960  0.00  0.00     0.000 C
ATOM     63  C5  BGC B   5      22.377   5.998   4.2010  0.00  0.00     0.000 C
ATOM     64  O5  BGC B   5      22.756   7.092   3.3720  0.00  0.00     0.000 O
ATOM     65   O  BGC B   5      22.175   4.640   2.3000  0.00  0.00     0.000 O
ATOM     67  HD  BGC B   5      21.627   4.090   1.9170  0.00  0.00     0.000 HD
ATOM     67   O  BGC B   5      22.175   4.640   2.3000  0.00  0.00     0.000 O
ATOM     69  HD  BGC B   5      21.627   4.090   1.9170  0.00  0.00     0.000 HD
ENDBRANCH 58 62
ENDBRANCH 45 58
ENDBRANCH 44 48
ENDBRANCH 31 44
ENDBRANCH 30 34
ENDBRANCH 17 30
ENDBRANCH 16 20
ENDBRANCH 1 16
TORSDOF 8
ENDMDL
MODEL 100
REMARK VINA RESULT:      -6.6     18.502     22.230
ROOT
ATOM      1  C1  BGC B   1       0.954   9.120 -13.4390  0.00  0.00     0.000 C
ATOM      2  C2  BGC B   1       0.966   8.099 -14.5750  0.00  0.00     0.000 C
ATOM      3  C3  BGC B   1      -0.079   8.462 -15.6130  0.00  0.00     0.000 C
ATOM      4  C4  BGC B   1      -1.439   8.670 -14.9590  0.00  0.00     0.000 C
ATOM      5  C5  BGC B   1      -1.293   9.719 -13.8660  0.00  0.00     0.000 C
ATOM      6  O5  BGC B   1      -0.357   9.206 -12.9000  0.00  0.00     0.000 O
ATOM      7   O  BGC B   1       2.263   8.093 -15.1930  0.00  0.00     0.000 O
ATOM      9  HD  BGC B   1       2.312   7.863 -16.0260  0.00  0.00     0.000 HD
ATOM      9   O  BGC B   1      -0.139   7.422 -16.5930  0.00  0.00     0.000 O
ATOM     11  HD  BGC B   1      -0.090   7.192 -17.4270  0.00  0.00     0.000 HD
ATOM     11   O  BGC B   1      -2.368   9.109 -15.9260  0.00  0.00     0.000 O
ATOM     13  HD  BGC B   1      -2.320   8.879 -16.7600  0.00  0.00     0.000 HD
ATOM     13   C  BGC B   1      -2.586  10.075 -13.1460  0.00  0.00     0.000 C
ATOM     14   O  BGC B   1      -3.231   8.932 -12.5930  0.00  0.00     0.000 O
ATOM     16  HD  BGC B   1      -3.183   8.702 -13.4270  0.00  0.00     0.000 HD
ENDROOT
BRANCH 1 16
ATOM     16  O4  BGC B   2       1.750   8.563 -12.3950  0.00  0.00     0.000 O
BRANCH 16 20
ATOM     17  C1  BGC B   2       4.284   9.627  -9.3980  0.00  0.00     0.000 C
ATOM     18  C2  BGC B   2       2.827   9.966  -9.1160  0.00  0.00     0.000 C
ATOM     19  C3  BGC B   2       1.952   9.208 -10.1120  0.00  0.00     0.000 C
ATOM     20  C4  BGC B   2       2.396   9.495 -11.5320  0.00  0.00     0.000 C
ATOM     21  C5  BGC B   2       3.904   9.323 -11.7180  0.00  0.00     0.000 C
ATOM     22  O5  BGC B   2       4.578  10.105 -10.7240  0.00  0.00     0.000 O
ATOM     23   O  BGC B   2       2.476   9.565  -7.7810  0.00  0.00     0.000 O
ATOM     25  HD  BGC B   2       2.326   9.227  -8.5650  0.00  0.00     0.000 HD
ATOM     25   O  BGC B   2       0.589   9.578  -9.9380  0.00  0.00     0.000 O
ATOM     27  HD  BGC B   2       0.439   9.240 -10.7210  0.00  0.00     0.000 HD
ATOM     27   C  BGC B   2       4.391   9.789 -13.0840  0.00  0.00     0.000 C
ATOM     28   O  BGC B   2       4.056  11.136 -13.3710  0.00  0.00     0.000 O
ATOM     30  HD  BGC B   2       3.906  10.799 -14.1540  0.00  0.00     0.000 HD
BRANCH 17 30
ATOM     30  O4  BGC B   3       5.065  10.431  -8.5340  0.00  0.00     0.000 O
BRANCH 30 34
ATOM     31  C1  BGC B   3       8.566  10.270  -6.3800  0.00  0.00     0.000 C
ATOM     32  C2  BGC B   3       8.751  10.210  -7.8960  0.00  0.00     0.000 C
ATOM     33  C3  BGC B   3       7.469  10.673  -8.5650  0.00  0.00     0.000 C
ATOM     34  C4  BGC B   3       6.285   9.842  -8.0710  0.00  0.00     0.000 C
ATOM     35  C5  BGC B   3       6.246   9.828  -6.5530  0.00  0.00     0.000 C
ATOM     36  O5  BGC B   3       7.510   9.383  -6.0480  0.00  0.00     0.000 O
ATOM     37   O  BGC B   3       9.805  11.090  -8.2820  0.00  0.00     0.000 O
ATOM     39  HD  BGC B   3       9.769  10.754  -9.0800  0.00  0.00     0.000 HD
ATOM     39   O  BGC B   3       7.622  10.540  -9.9700  0.00  0.00     0.000 O
ATOM     41  HD  BGC B   3       7.587  10.205 -10.7680  0.00  0.00     0.000 HD
ATOM     41   C  BGC B   3       5.148   8.946  -5.9690  0.00  0.00     0.000 C
ATOM     42   O  BGC B   3       5.295   7.622  -6.4250  0.00  0.00     0.000 O
ATOM     44  HD  BGC B   3       5.260   7.287  -7.2230  0.00  0.00     0.000 HD
BRANCH 31 44
ATOM     44  O4  BGC B   4       9.730   9.740  -5.7980  0.00  0.00     0.000 O
BRANCH 44 48
ATOM     45  C1  BGC B   4      11.308   8.999  -2.0880  0.00  0.00     0.000 C
ATOM     46  C2  BGC B   4      10.446   7.878  -2.6500  0.00  0.00     0.000 C
ATOM     47  C3  BGC B   4      10.256   8.084  -4.1330  0.00  0.00     0.000 C
ATOM     48  C4  BGC B   4       9.704   9.486  -4.4090  0.00  0.00     0.000 C
ATOM     49  C5  BGC B   4      10.571  10.551  -3.7240  0.00  0.00     0.000 C
ATOM     50  O5  BGC B   4      10.679  10.260  -2.3230  0.00  0.00     0.000 O
ATOM     51   O  BGC B   4      11.085   6.606  -2.4300  0.00  0.00     0.000 O
ATOM     53  HD  BGC B   4      11.275   6.712  -3.2690  0.00  0.00     0.000 HD
ATOM     53   O  BGC B   4       9.337   7.097  -4.6230  0.00  0.00     0.000 O
ATOM     55  HD  BGC B   4       9.527   7.202  -5.4610  0.00  0.00     0.000 HD
ATOM     55   C  BGC B   4      10.036  11.966  -3.8440  0.00  0.00     0.000 C
ATOM     56   O  BGC B   4       8.699  11.971  -3.3410  0.00  0.00     0.000 O
ATOM     58  HD  BGC B   4       8.888  12.077  -4.1800  0.00  0.00     0.000 HD
BRANCH 45 58
ATOM     58  O4  BGC B   5      11.226   8.881  -0.6680  0.00  0.00     0.000 O
BRANCH 58 62
ATOM     59  C1  BGC B   5      13.526   9.158   2.7650  0.00  0.00     0.000 C
ATOM     60  C2  BGC B   5      13.234  10.473   2.0700  0.00  0.00     0.000 C
ATOM     61  C3  BGC B   5      12.076  10.318   1.1020  0.00  0.00     0.000 C
ATOM     62  C4  BGC B   5      12.369   9.182   0.1360  0.00  0.00     0.000 C
ATOM     63  C5  BGC B   5      12.735   7.902   0.9010  0.00  0.00     0.000 C
ATOM     64  O5  BGC B   5      13.831   8.180   1.7660  0.00  0.00     0.000 O
ATOM     65   O  BGC B   5      14.236   7.246  -0.7760  0.00  0.00     0.000 O
ATOM     67  HD  BGC B   5      14.414   7.376  -1.6130  0.00  0.00     0.000 HD
ATOM     67   O  BGC B   5      14.236   7.246  -0.7760  0.00  0.00     0.000 O
ATOM     69  HD  BGC B   5      14.414   7.376  -1.6130  0.00  0.00     0.000 HD
ENDBRANCH 58 62
ENDBRANCH 45 58
ENDBRANCH 44 48
ENDBRANCH 31 44
ENDBRANCH 30 34
ENDBRANCH 17 30
ENDBRANCH 16 20
ENDBRANCH 1 16
TORSDOF 8
ENDMDL
