MODEL 1
REMARK VINA RESULT:      -9.5      0.000      0.000
ROOT
ATOM      1  C1  GCU B   1       8.304  31.372 -13.0020  0.00  0.00     0.000 C
ATOM      2  C2  GCU B   1       8.990  32.636 -13.4970  0.00  0.00     0.000 C
ATOM      3  C3  GCU B   1       8.965  32.695 -15.0170  0.00  0.00     0.000 C
ATOM      4  C4  GCU B   1       9.498  31.396 -15.6010  0.00  0.00     0.000 C
ATOM      5  C5  GCU B   1       8.786  30.186 -14.9940  0.00  0.00     0.000 C
ATOM      6  O5  GCU B   1       8.941  30.216 -13.5690  0.00  0.00     0.000 O
ATOM      7   O  GCU B   1       8.300  33.750 -12.9380  0.00  0.00     0.000 O
ATOM      9  HD  GCU B   1       8.659  34.404 -12.4990  0.00  0.00     0.000 HD
ATOM      9   O  GCU B   1       9.744  33.795 -15.4910  0.00  0.00     0.000 O
ATOM     11  HD  GCU B   1      10.103  34.450 -15.0520  0.00  0.00     0.000 HD
ATOM     11   O  GCU B   1       9.304  31.412 -17.0160  0.00  0.00     0.000 O
ATOM     13  HD  GCU B   1       9.662  32.067 -16.5770  0.00  0.00     0.000 HD
ENDROOT
BRANCH 5 13
ATOM     13   C  GCU B   1       9.326  28.914 -15.6030  0.00  0.00     0.000 C
ATOM     14   O  GCU B   1      10.332  28.944 -16.3410  0.00  0.00     0.000 OA
ATOM     15   O  GCU B   1       8.746  27.849 -15.3150  0.00  0.00     0.000 OA
ENDBRANCH 5 13
BRANCH 1 16
ATOM     16  O3  NAG B   2       8.514  30.730 -11.8510  0.00  0.00     0.000 O
BRANCH 16 19
ATOM     17  C1  NAG B   2       6.036  29.764  -9.1760  0.00  0.00     0.000 C
ATOM     18  C2  NAG B   2       6.751  30.676 -10.1660  0.00  0.00     0.000 C
ATOM     19  C3  NAG B   2       7.704  29.864 -11.0410  0.00  0.00     0.000 C
ATOM     20  C4  NAG B   2       8.634  29.017 -10.1730  0.00  0.00     0.000 C
ATOM     21  C5  NAG B   2       7.811  28.148  -9.2320  0.00  0.00     0.000 C
ATOM     22  O5  NAG B   2       6.985  28.998  -8.4170  0.00  0.00     0.000 O
ATOM     23   O  NAG B   2       9.453  28.219 -11.0340  0.00  0.00     0.000 O
ATOM     25  HD  NAG B   2       9.846  28.846 -10.5850  0.00  0.00     0.000 HD
ATOM     25   C  NAG B   2       8.677  27.260  -8.3410  0.00  0.00     0.000 C
ATOM     26   O  NAG B   2       9.333  28.018  -7.3130  0.00  0.00     0.000 O
ATOM     28  HD  NAG B   2       9.727  28.645  -6.8640  0.00  0.00     0.000 HD
BRANCH 18 30
ATOM     28   N  NAG B   2       5.573  31.384 -10.6320  0.00  0.00     0.000 N
ATOM     30  HD  NAG B   2       6.181  32.000 -10.6160  0.00  0.00     0.000 HD
ATOM     30   C  NAG B   2       5.525  32.708 -10.8200  0.00  0.00     0.000 C
ATOM     31   C  NAG B   2       4.218  33.302 -11.2640  0.00  0.00     0.000 C
ATOM     32   O  NAG B   2       6.495  33.417 -10.6400  0.00  0.00     0.000 OA
ENDBRANCH 18 30
BRANCH 17 33
ATOM     33  O4  GCU B   3       5.183  30.590  -8.3590  0.00  0.00     0.000 O
BRANCH 33 37
ATOM     34  C1  GCU B   3       1.859  29.574  -6.0690  0.00  0.00     0.000 C
ATOM     35  C2  GCU B   3       3.219  29.605  -5.3710  0.00  0.00     0.000 C
ATOM     36  C3  GCU B   3       4.204  30.386  -6.2150  0.00  0.00     0.000 C
ATOM     37  C4  GCU B   3       4.257  29.796  -7.6170  0.00  0.00     0.000 C
ATOM     38  C5  GCU B   3       2.857  29.809  -8.2340  0.00  0.00     0.000 C
ATOM     39  O5  GCU B   3       1.982  29.049  -7.3940  0.00  0.00     0.000 O
ATOM     40   O  GCU B   3       3.068  30.220  -4.0900  0.00  0.00     0.000 O
ATOM     42  HD  GCU B   3       3.407  30.833  -3.5810  0.00  0.00     0.000 HD
ATOM     42   O  GCU B   3       5.515  30.375  -5.6230  0.00  0.00     0.000 O
ATOM     44  HD  GCU B   3       5.854  30.988  -5.1140  0.00  0.00     0.000 HD
BRANCH 38 44
ATOM     44   C  GCU B   3       2.826  29.214  -9.6190  0.00  0.00     0.000 C
ATOM     45   O  GCU B   3       2.680  27.987  -9.7350  0.00  0.00     0.000 OA
ATOM     46   O  GCU B   3       2.943  29.956 -10.6130  0.00  0.00     0.000 OA
ENDBRANCH 38 44
BRANCH 34 47
ATOM     47  O3  NAG B   4       1.070  28.721  -5.4300  0.00  0.00     0.000 O
BRANCH 47 50
ATOM     48  C1  NAG B   4      -1.691  28.870  -2.9580  0.00  0.00     0.000 C
ATOM     49  C2  NAG B   4      -0.412  29.291  -3.6740  0.00  0.00     0.000 C
ATOM     50  C3  NAG B   4      -0.301  28.643  -5.0450  0.00  0.00     0.000 C
ATOM     51  C4  NAG B   4      -0.756  27.180  -5.0740  0.00  0.00     0.000 C
ATOM     52  C5  NAG B   4      -2.208  27.045  -4.6460  0.00  0.00     0.000 C
ATOM     53  O5  NAG B   4      -2.567  27.868  -3.5140  0.00  0.00     0.000 O
BRANCH 49 56
ATOM     54   N  NAG B   4      -0.353  30.762  -3.7370  0.00  0.00     0.000 N
ATOM     56  HD  NAG B   4       0.194  31.266  -3.2940  0.00  0.00     0.000 HD
ATOM     56   C  NAG B   4      -0.946  33.032  -4.3600  0.00  0.00     0.000 C
ATOM     57   O  NAG B   4      -2.287  31.173  -4.8590  0.00  0.00     0.000 OA
ATOM     58   C  NAG B   4      -1.256  31.566  -4.3320  0.00  0.00     0.000 C
ENDBRANCH 49 56
ATOM     59   O  NAG B   4      -3.926  25.307  -4.2990  0.00  0.00     0.000 O
ATOM     61  HD  NAG B   4      -3.295  25.801  -3.9710  0.00  0.00     0.000 HD
ATOM     61   O  NAG B   4      -3.926  25.307  -4.2990  0.00  0.00     0.000 O
ATOM     63  HD  NAG B   4      -3.295  25.801  -3.9710  0.00  0.00     0.000 HD
ENDBRANCH 47 50
ENDBRANCH 34 47
ENDBRANCH 33 37
ENDBRANCH 17 33
ENDBRANCH 16 19
ENDBRANCH 1 16
TORSDOF 10
ENDMDL
MODEL 2
REMARK VINA RESULT:      -9.2      9.507     13.453
ROOT
ATOM      1  C1  GCU B   1       4.488  26.493   0.8220  0.00  0.00     0.000 C
ATOM      2  C2  GCU B   1       5.833  25.851   1.1230  0.00  0.00     0.000 C
ATOM      3  C3  GCU B   1       6.724  26.816   1.8880  0.00  0.00     0.000 C
ATOM      4  C4  GCU B   1       6.792  28.153   1.1670  0.00  0.00     0.000 C
ATOM      5  C5  GCU B   1       5.390  28.682   0.8580  0.00  0.00     0.000 C
ATOM      6  O5  GCU B   1       4.681  27.708   0.0810  0.00  0.00     0.000 O
ATOM      7   O  GCU B   1       5.589  24.675   1.8880  0.00  0.00     0.000 O
ATOM      9  HD  GCU B   1       5.886  23.880   1.7120  0.00  0.00     0.000 HD
ATOM      9   O  GCU B   1       8.041  26.279   2.0340  0.00  0.00     0.000 O
ATOM     11  HD  GCU B   1       8.338  25.484   1.8580  0.00  0.00     0.000 HD
ATOM     11   O  GCU B   1       7.490  29.088   1.9910  0.00  0.00     0.000 O
ATOM     13  HD  GCU B   1       7.786  28.293   1.8150  0.00  0.00     0.000 HD
ENDROOT
BRANCH 5 13
ATOM     13   C  GCU B   1       5.487  30.015   0.1550  0.00  0.00     0.000 C
ATOM     14   O  GCU B   1       5.555  30.069  -1.0900  0.00  0.00     0.000 OA
ATOM     15   O  GCU B   1       5.469  31.040   0.8630  0.00  0.00     0.000 OA
ENDBRANCH 5 13
BRANCH 1 16
ATOM     16  O3  NAG B   2       3.652  26.201  -0.1760  0.00  0.00     0.000 O
BRANCH 16 19
ATOM     17  C1  NAG B   2      -0.079  25.664  -0.3160  0.00  0.00     0.000 C
ATOM     18  C2  NAG B   2       1.359  25.425   0.1270  0.00  0.00     0.000 C
ATOM     19  C3  NAG B   2       2.274  26.512  -0.4330  0.00  0.00     0.000 C
ATOM     20  C4  NAG B   2       2.088  26.636  -1.9450  0.00  0.00     0.000 C
ATOM     21  C5  NAG B   2       0.620  26.877  -2.2670  0.00  0.00     0.000 C
ATOM     22  O5  NAG B   2      -0.156  25.783  -1.7460  0.00  0.00     0.000 O
ATOM     23   O  NAG B   2       2.905  27.715  -2.4130  0.00  0.00     0.000 O
ATOM     25  HD  NAG B   2       3.131  26.915  -2.6550  0.00  0.00     0.000 HD
ATOM     25   C  NAG B   2       0.361  27.028  -3.7640  0.00  0.00     0.000 C
ATOM     26   O  NAG B   2       0.463  25.770  -4.4500  0.00  0.00     0.000 O
ATOM     28  HD  NAG B   2       0.689  24.970  -4.6920  0.00  0.00     0.000 HD
BRANCH 18 30
ATOM     28   N  NAG B   2       1.320  24.239   0.9610  0.00  0.00     0.000 N
ATOM     30  HD  NAG B   2       1.489  24.872   1.5270  0.00  0.00     0.000 HD
ATOM     30   C  NAG B   2       1.632  24.232   2.2630  0.00  0.00     0.000 C
ATOM     31   C  NAG B   2       1.587  22.913   2.9830  0.00  0.00     0.000 C
ATOM     32   O  NAG B   2       1.945  25.247   2.8530  0.00  0.00     0.000 OA
ENDBRANCH 18 30
BRANCH 17 33
ATOM     33  O4  GCU B   3      -0.883  24.590   0.2120  0.00  0.00     0.000 O
BRANCH 33 37
ATOM     34  C1  GCU B   3      -4.825  24.527   1.5490  0.00  0.00     0.000 C
ATOM     35  C2  GCU B   3      -4.587  24.681   0.0470  0.00  0.00     0.000 C
ATOM     36  C3  GCU B   3      -3.172  24.260  -0.2890  0.00  0.00     0.000 C
ATOM     37  C4  GCU B   3      -2.189  25.050   0.5630  0.00  0.00     0.000 C
ATOM     38  C5  GCU B   3      -2.501  24.833   2.0450  0.00  0.00     0.000 C
ATOM     39  O5  GCU B   3      -3.845  25.257   2.2940  0.00  0.00     0.000 O
ATOM     40   O  GCU B   3      -5.526  23.864  -0.6570  0.00  0.00     0.000 O
ATOM     42  HD  GCU B   3      -5.580  23.267  -1.2820  0.00  0.00     0.000 HD
ATOM     42   O  GCU B   3      -2.890  24.461  -1.6850  0.00  0.00     0.000 O
ATOM     44  HD  GCU B   3      -2.944  23.865  -2.3110  0.00  0.00     0.000 HD
BRANCH 38 44
ATOM     44   C  GCU B   3      -1.580  25.608   2.9540  0.00  0.00     0.000 C
ATOM     45   O  GCU B   3      -1.291  26.776   2.6510  0.00  0.00     0.000 OA
ATOM     46   O  GCU B   3      -1.131  25.069   3.9840  0.00  0.00     0.000 OA
ENDBRANCH 38 44
BRANCH 34 47
ATOM     47  O3  NAG B   4      -5.985  25.087   1.8580  0.00  0.00     0.000 O
BRANCH 47 50
ATOM     48  C1  NAG B   4      -8.525  26.521   4.1490  0.00  0.00     0.000 C
ATOM     49  C2  NAG B   4      -7.645  25.455   3.5050  0.00  0.00     0.000 C
ATOM     50  C3  NAG B   4      -6.468  26.073   2.7700  0.00  0.00     0.000 C
ATOM     51  C4  NAG B   4      -6.823  27.350   1.9980  0.00  0.00     0.000 C
ATOM     52  C5  NAG B   4      -7.366  28.422   2.9270  0.00  0.00     0.000 C
ATOM     53  O5  NAG B   4      -8.287  27.927   3.9250  0.00  0.00     0.000 O
BRANCH 49 56
ATOM     54   N  NAG B   4      -6.781  24.910   4.5670  0.00  0.00     0.000 N
ATOM     56  HD  NAG B   4      -5.932  25.060   4.6540  0.00  0.00     0.000 HD
ATOM     56   C  NAG B   4      -6.112  23.612   6.5050  0.00  0.00     0.000 C
ATOM     57   O  NAG B   4      -8.185  23.351   5.4400  0.00  0.00     0.000 OA
ATOM     58   C  NAG B   4      -7.117  23.945   5.4460  0.00  0.00     0.000 C
ENDBRANCH 49 56
ATOM     59   O  NAG B   4      -8.236  30.731   2.8500  0.00  0.00     0.000 O
ATOM     61  HD  NAG B   4      -8.392  29.879   2.8350  0.00  0.00     0.000 HD
ATOM     61   O  NAG B   4      -8.236  30.731   2.8500  0.00  0.00     0.000 O
ATOM     63  HD  NAG B   4      -8.392  29.879   2.8350  0.00  0.00     0.000 HD
ENDBRANCH 47 50
ENDBRANCH 34 47
ENDBRANCH 33 37
ENDBRANCH 17 33
ENDBRANCH 16 19
ENDBRANCH 1 16
TORSDOF 10
ENDMDL
MODEL 3
REMARK VINA RESULT:      -9.0     10.094     14.842
ROOT
ATOM      1  C1  GCU B   1       3.692  23.124   2.9030  0.00  0.00     0.000 C
ATOM      2  C2  GCU B   1       4.139  21.703   3.2060  0.00  0.00     0.000 C
ATOM      3  C3  GCU B   1       5.105  21.688   4.3820  0.00  0.00     0.000 C
ATOM      4  C4  GCU B   1       6.229  22.685   4.1510  0.00  0.00     0.000 C
ATOM      5  C5  GCU B   1       5.675  24.066   3.7930  0.00  0.00     0.000 C
ATOM      6  O5  GCU B   1       4.837  23.950   2.6360  0.00  0.00     0.000 O
ATOM      7   O  GCU B   1       2.975  20.936   3.5000  0.00  0.00     0.000 O
ATOM      9  HD  GCU B   1       2.752  20.185   3.1310  0.00  0.00     0.000 HD
ATOM      9   O  GCU B   1       5.650  20.379   4.5690  0.00  0.00     0.000 O
ATOM     11  HD  GCU B   1       5.426  19.628   4.2010  0.00  0.00     0.000 HD
ATOM     11   O  GCU B   1       7.019  22.774   5.3370  0.00  0.00     0.000 O
ATOM     13  HD  GCU B   1       6.795  22.023   4.9680  0.00  0.00     0.000 HD
ENDROOT
BRANCH 5 13
ATOM     13   C  GCU B   1       6.811  25.037   3.5840  0.00  0.00     0.000 C
ATOM     14   O  GCU B   1       6.991  25.567   2.4680  0.00  0.00     0.000 OA
ATOM     15   O  GCU B   1       7.529  25.301   4.5670  0.00  0.00     0.000 OA
ENDBRANCH 5 13
BRANCH 1 16
ATOM     16  O3  NAG B   2       3.264  23.611   1.7370  0.00  0.00     0.000 O
BRANCH 16 19
ATOM     17  C1  NAG B   2       0.141  25.367   0.5550  0.00  0.00     0.000 C
ATOM     18  C2  NAG B   2       0.986  24.231   1.1190  0.00  0.00     0.000 C
ATOM     19  C3  NAG B   2       2.413  24.711   1.3790  0.00  0.00     0.000 C
ATOM     20  C4  NAG B   2       2.989  25.369   0.1250  0.00  0.00     0.000 C
ATOM     21  C5  NAG B   2       2.067  26.486  -0.3410  0.00  0.00     0.000 C
ATOM     22  O5  NAG B   2       0.765  25.934  -0.6080  0.00  0.00     0.000 O
ATOM     23   O  NAG B   2       4.294  25.871   0.4390  0.00  0.00     0.000 O
ATOM     25  HD  NAG B   2       4.249  25.204  -0.1120  0.00  0.00     0.000 HD
ATOM     25   C  NAG B   2       2.589  27.203  -1.5850  0.00  0.00     0.000 C
ATOM     26   O  NAG B   2       2.452  26.391  -2.7610  0.00  0.00     0.000 O
ATOM     28  HD  NAG B   2       2.407  25.724  -3.3120  0.00  0.00     0.000 HD
BRANCH 18 30
ATOM     28   N  NAG B   2      -0.035  23.211   1.2640  0.00  0.00     0.000 N
ATOM     30  HD  NAG B   2       0.286  23.285   2.0650  0.00  0.00     0.000 HD
ATOM     30   C  NAG B   2      -0.241  22.517   2.3900  0.00  0.00     0.000 C
ATOM     31   C  NAG B   2      -1.310  21.460   2.3710  0.00  0.00     0.000 C
ATOM     32   O  NAG B   2       0.407  22.722   3.3970  0.00  0.00     0.000 OA
ENDBRANCH 18 30
BRANCH 17 33
ATOM     33  O4  GCU B   3      -1.177  24.843   0.2990  0.00  0.00     0.000 O
BRANCH 33 37
ATOM     34  C1  GCU B   3      -4.938  26.539   0.8580  0.00  0.00     0.000 C
ATOM     35  C2  GCU B   3      -4.181  26.896  -0.4220  0.00  0.00     0.000 C
ATOM     36  C3  GCU B   3      -3.074  25.891  -0.6540  0.00  0.00     0.000 C
ATOM     37  C4  GCU B   3      -2.181  25.821   0.5770  0.00  0.00     0.000 C
ATOM     38  C5  GCU B   3      -3.022  25.456   1.8030  0.00  0.00     0.000 C
ATOM     39  O5  GCU B   3      -4.041  26.447   1.9680  0.00  0.00     0.000 O
ATOM     40   O  GCU B   3      -5.096  26.886  -1.5200  0.00  0.00     0.000 O
ATOM     42  HD  GCU B   3      -5.200  26.574  -2.3210  0.00  0.00     0.000 HD
ATOM     42   O  GCU B   3      -2.293  26.238  -1.8110  0.00  0.00     0.000 O
ATOM     44  HD  GCU B   3      -2.397  25.927  -2.6130  0.00  0.00     0.000 HD
BRANCH 38 44
ATOM     44   C  GCU B   3      -2.207  25.392   3.0700  0.00  0.00     0.000 C
ATOM     45   O  GCU B   3      -2.409  24.457   3.8600  0.00  0.00     0.000 OA
ATOM     46   O  GCU B   3      -1.350  26.268   3.2980  0.00  0.00     0.000 OA
ENDBRANCH 38 44
BRANCH 34 47
ATOM     47  O3  NAG B   4      -5.763  27.532   1.1580  0.00  0.00     0.000 O
BRANCH 47 50
ATOM     48  C1  NAG B   4      -8.441  27.826   3.7070  0.00  0.00     0.000 C
ATOM     49  C2  NAG B   4      -7.450  27.141   2.7720  0.00  0.00     0.000 C
ATOM     50  C3  NAG B   4      -6.350  28.093   2.3310  0.00  0.00     0.000 C
ATOM     51  C4  NAG B   4      -6.847  29.511   2.0230  0.00  0.00     0.000 C
ATOM     52  C5  NAG B   4      -7.505  30.140   3.2400  0.00  0.00     0.000 C
ATOM     53  O5  NAG B   4      -8.362  29.241   3.9780  0.00  0.00     0.000 O
BRANCH 49 56
ATOM     54   N  NAG B   4      -6.605  26.414   3.7360  0.00  0.00     0.000 N
ATOM     56  HD  NAG B   4      -5.948  26.752   4.1880  0.00  0.00     0.000 HD
ATOM     56   C  NAG B   4      -5.714  24.562   5.0270  0.00  0.00     0.000 C
ATOM     57   O  NAG B   4      -7.237  24.282   3.2650  0.00  0.00     0.000 OA
ATOM     58   C  NAG B   4      -6.583  25.080   3.9220  0.00  0.00     0.000 C
ENDBRANCH 49 56
ATOM     59   O  NAG B   4      -8.627  32.233   3.9150  0.00  0.00     0.000 O
ATOM     61  HD  NAG B   4      -8.687  31.425   3.6090  0.00  0.00     0.000 HD
ATOM     61   O  NAG B   4      -8.627  32.233   3.9150  0.00  0.00     0.000 O
ATOM     63  HD  NAG B   4      -8.687  31.425   3.6090  0.00  0.00     0.000 HD
ENDBRANCH 47 50
ENDBRANCH 34 47
ENDBRANCH 33 37
ENDBRANCH 17 33
ENDBRANCH 16 19
ENDBRANCH 1 16
TORSDOF 10
ENDMDL
MODEL 4
REMARK VINA RESULT:      -9.0      5.695     16.193
ROOT
ATOM      1  C1  GCU B   1      -6.724  23.065   1.0760  0.00  0.00     0.000 C
ATOM      2  C2  GCU B   1      -6.645  21.649   1.6250  0.00  0.00     0.000 C
ATOM      3  C3  GCU B   1      -8.037  21.051   1.7580  0.00  0.00     0.000 C
ATOM      4  C4  GCU B   1      -8.943  21.996   2.5320  0.00  0.00     0.000 C
ATOM      5  C5  GCU B   1      -8.904  23.405   1.9380  0.00  0.00     0.000 C
ATOM      6  O5  GCU B   1      -7.549  23.874   1.9300  0.00  0.00     0.000 O
ATOM      7   O  GCU B   1      -5.850  20.881   0.7270  0.00  0.00     0.000 O
ATOM      9  HD  GCU B   1      -5.163  20.397   0.9380  0.00  0.00     0.000 HD
ATOM      9   O  GCU B   1      -7.980  19.784   2.4190  0.00  0.00     0.000 O
ATOM     11  HD  GCU B   1      -7.294  19.300   2.6310  0.00  0.00     0.000 HD
ATOM     11   O  GCU B   1     -10.278  21.491   2.4930  0.00  0.00     0.000 O
ATOM     13  HD  GCU B   1      -9.592  21.007   2.7040  0.00  0.00     0.000 HD
ENDROOT
BRANCH 5 13
ATOM     13   C  GCU B   1      -9.822  24.316   2.7170  0.00  0.00     0.000 C
ATOM     14   O  GCU B   1     -11.050  24.315   2.4940  0.00  0.00     0.000 OA
ATOM     15   O  GCU B   1      -9.307  25.035   3.5950  0.00  0.00     0.000 OA
ENDBRANCH 5 13
BRANCH 1 16
ATOM     16  O3  NAG B   2      -5.846  24.055   1.2490  0.00  0.00     0.000 O
BRANCH 16 19
ATOM     17  C1  NAG B   2      -3.481  25.739  -1.1590  0.00  0.00     0.000 C
ATOM     18  C2  NAG B   2      -4.127  24.588  -0.3980  0.00  0.00     0.000 C
ATOM     19  C3  NAG B   2      -5.338  25.086   0.3880  0.00  0.00     0.000 C
ATOM     20  C4  NAG B   2      -4.954  26.284   1.2560  0.00  0.00     0.000 C
ATOM     21  C5  NAG B   2      -4.326  27.367   0.3910  0.00  0.00     0.000 C
ATOM     22  O5  NAG B   2      -3.169  26.823  -0.2690  0.00  0.00     0.000 O
ATOM     23   O  NAG B   2      -6.133  26.762   1.9120  0.00  0.00     0.000 O
ATOM     25  HD  NAG B   2      -5.526  26.396   2.4090  0.00  0.00     0.000 HD
ATOM     25   C  NAG B   2      -3.929  28.606   1.1920  0.00  0.00     0.000 C
ATOM     26   O  NAG B   2      -2.768  28.365   2.0010  0.00  0.00     0.000 O
ATOM     28  HD  NAG B   2      -2.161  27.998   2.4980  0.00  0.00     0.000 HD
BRANCH 18 30
ATOM     28   N  NAG B   2      -4.179  23.646  -1.5000  0.00  0.00     0.000 N
ATOM     30  HD  NAG B   2      -3.981  23.146  -0.8220  0.00  0.00     0.000 HD
ATOM     30   C  NAG B   2      -3.839  22.356  -1.3950  0.00  0.00     0.000 C
ATOM     31   C  NAG B   2      -3.903  21.515  -2.6400  0.00  0.00     0.000 C
ATOM     32   O  NAG B   2      -3.487  21.870  -0.3390  0.00  0.00     0.000 OA
ENDBRANCH 18 30
BRANCH 17 33
ATOM     33  O4  GCU B   3      -2.329  25.214  -1.8480  0.00  0.00     0.000 O
BRANCH 33 37
ATOM     34  C1  GCU B   3       0.153  26.939  -4.7120  0.00  0.00     0.000 C
ATOM     35  C2  GCU B   3       0.431  27.263  -3.2430  0.00  0.00     0.000 C
ATOM     36  C3  GCU B   3      -0.262  26.248  -2.3600  0.00  0.00     0.000 C
ATOM     37  C4  GCU B   3      -1.745  26.203  -2.6990  0.00  0.00     0.000 C
ATOM     38  C5  GCU B   3      -1.924  25.870  -4.1810  0.00  0.00     0.000 C
ATOM     39  O5  GCU B   3      -1.255  26.869  -4.9570  0.00  0.00     0.000 O
ATOM     40   O  GCU B   3       1.842  27.231  -3.0210  0.00  0.00     0.000 O
ATOM     42  HD  GCU B   3       2.445  26.901  -2.4930  0.00  0.00     0.000 HD
ATOM     42   O  GCU B   3      -0.082  26.564  -0.9680  0.00  0.00     0.000 O
ATOM     44  HD  GCU B   3       0.521  26.235  -0.4400  0.00  0.00     0.000 HD
BRANCH 38 44
ATOM     44   C  GCU B   3      -3.373  25.832  -4.5980  0.00  0.00     0.000 C
ATOM     45   O  GCU B   3      -3.939  24.732  -4.6820  0.00  0.00     0.000 OA
ATOM     46   O  GCU B   3      -3.973  26.896  -4.8450  0.00  0.00     0.000 OA
ENDBRANCH 38 44
BRANCH 34 47
ATOM     47  O3  NAG B   4       0.587  27.942  -5.4610  0.00  0.00     0.000 O
BRANCH 47 50
ATOM     48  C1  NAG B   4       2.842  30.245  -7.2960  0.00  0.00     0.000 C
ATOM     49  C2  NAG B   4       1.975  29.731  -6.1510  0.00  0.00     0.000 C
ATOM     50  C3  NAG B   4       1.725  28.236  -6.2690  0.00  0.00     0.000 C
ATOM     51  C4  NAG B   4       1.466  27.764  -7.7040  0.00  0.00     0.000 C
ATOM     52  C5  NAG B   4       2.646  28.080  -8.6090  0.00  0.00     0.000 C
ATOM     53  O5  NAG B   4       3.220  29.389  -8.3940  0.00  0.00     0.000 O
BRANCH 49 56
ATOM     54   N  NAG B   4       2.700  30.194  -4.9550  0.00  0.00     0.000 N
ATOM     56  HD  NAG B   4       2.660  30.990  -4.6160  0.00  0.00     0.000 HD
ATOM     56   C  NAG B   4       4.217  30.145  -3.0610  0.00  0.00     0.000 C
ATOM     57   O  NAG B   4       4.145  28.459  -4.6900  0.00  0.00     0.000 OA
ATOM     58   C  NAG B   4       3.684  29.528  -4.3180  0.00  0.00     0.000 C
ENDBRANCH 49 56
ATOM     59   O  NAG B   4       3.341  27.842 -10.9660  0.00  0.00     0.000 O
ATOM     61  HD  NAG B   4       2.973  28.323 -10.3470  0.00  0.00     0.000 HD
ATOM     61   O  NAG B   4       3.341  27.842 -10.9660  0.00  0.00     0.000 O
ATOM     63  HD  NAG B   4       2.973  28.323 -10.3470  0.00  0.00     0.000 HD
ENDBRANCH 47 50
ENDBRANCH 34 47
ENDBRANCH 33 37
ENDBRANCH 17 33
ENDBRANCH 16 19
ENDBRANCH 1 16
TORSDOF 10
ENDMDL
MODEL 5
REMARK VINA RESULT:      -8.9      3.073     11.481
ROOT
ATOM      1  C1  GCU B   1      -0.886  26.987  -5.6660  0.00  0.00     0.000 C
ATOM      2  C2  GCU B   1      -1.483  25.630  -6.0040  0.00  0.00     0.000 C
ATOM      3  C3  GCU B   1      -2.994  25.656  -5.8290  0.00  0.00     0.000 C
ATOM      4  C4  GCU B   1      -3.354  26.199  -4.4540  0.00  0.00     0.000 C
ATOM      5  C5  GCU B   1      -2.655  27.533  -4.1890  0.00  0.00     0.000 C
ATOM      6  O5  GCU B   1      -1.238  27.356  -4.3230  0.00  0.00     0.000 O
ATOM      7   O  GCU B   1      -1.137  25.329  -7.3530  0.00  0.00     0.000 O
ATOM      9  HD  GCU B   1      -0.760  24.602  -7.6330  0.00  0.00     0.000 HD
ATOM      9   O  GCU B   1      -3.542  24.345  -5.9900  0.00  0.00     0.000 O
ATOM     11  HD  GCU B   1      -3.165  23.618  -6.2700  0.00  0.00     0.000 HD
ATOM     11   O  GCU B   1      -4.769  26.372  -4.3820  0.00  0.00     0.000 O
ATOM     13  HD  GCU B   1      -4.392  25.644  -4.6630  0.00  0.00     0.000 HD
ENDROOT
BRANCH 5 13
ATOM     13   C  GCU B   1      -3.041  28.054  -2.8260  0.00  0.00     0.000 C
ATOM     14   O  GCU B   1      -4.129  27.725  -2.3090  0.00  0.00     0.000 OA
ATOM     15   O  GCU B   1      -2.224  28.790  -2.2400  0.00  0.00     0.000 OA
ENDBRANCH 5 13
BRANCH 1 16
ATOM     16  O3  NAG B   2       0.354  27.248  -5.2460  0.00  0.00     0.000 O
BRANCH 16 19
ATOM     17  C1  NAG B   2       3.439  28.929  -6.6200  0.00  0.00     0.000 C
ATOM     18  C2  NAG B   2       2.356  27.864  -6.4970  0.00  0.00     0.000 C
ATOM     19  C3  NAG B   2       1.282  28.312  -5.5070  0.00  0.00     0.000 C
ATOM     20  C4  NAG B   2       1.920  28.724  -4.1810  0.00  0.00     0.000 C
ATOM     21  C5  NAG B   2       2.978  29.790  -4.4260  0.00  0.00     0.000 C
ATOM     22  O5  NAG B   2       3.969  29.263  -5.3270  0.00  0.00     0.000 O
ATOM     23   O  NAG B   2       0.887  29.208  -3.3150  0.00  0.00     0.000 O
ATOM     25  HD  NAG B   2       1.268  28.461  -3.0960  0.00  0.00     0.000 HD
ATOM     25   C  NAG B   2       3.649  30.262  -3.1380  0.00  0.00     0.000 C
ATOM     26   O  NAG B   2       4.549  29.273  -2.6150  0.00  0.00     0.000 O
ATOM     28  HD  NAG B   2       4.930  28.527  -2.3960  0.00  0.00     0.000 HD
BRANCH 18 30
ATOM     28   N  NAG B   2       2.757  26.828  -7.4300  0.00  0.00     0.000 N
ATOM     30  HD  NAG B   2       2.035  27.146  -7.7870  0.00  0.00     0.000 HD
ATOM     30   C  NAG B   2       2.024  26.447  -8.4830  0.00  0.00     0.000 C
ATOM     31   C  NAG B   2       2.555  25.326  -9.3330  0.00  0.00     0.000 C
ATOM     32   O  NAG B   2       0.965  26.978  -8.7520  0.00  0.00     0.000 OA
ENDBRANCH 18 30
BRANCH 17 33
ATOM     33  O4  GCU B   3       4.435  28.433  -7.5360  0.00  0.00     0.000 O
BRANCH 33 37
ATOM     34  C1  GCU B   3       7.463  30.403  -9.6060  0.00  0.00     0.000 C
ATOM     35  C2  GCU B   3       7.702  30.088  -8.1290  0.00  0.00     0.000 C
ATOM     36  C3  GCU B   3       6.722  29.029  -7.6710  0.00  0.00     0.000 C
ATOM     37  C4  GCU B   3       5.301  29.484  -7.9710  0.00  0.00     0.000 C
ATOM     38  C5  GCU B   3       5.157  29.772  -9.4660  0.00  0.00     0.000 C
ATOM     39  O5  GCU B   3       6.102  30.783  -9.8280  0.00  0.00     0.000 O
ATOM     40   O  GCU B   3       9.044  29.624  -7.9650  0.00  0.00     0.000 O
ATOM     42  HD  GCU B   3       9.509  28.984  -7.6110  0.00  0.00     0.000 HD
ATOM     42   O  GCU B   3       6.870  28.759  -6.2660  0.00  0.00     0.000 O
ATOM     44  HD  GCU B   3       7.335  28.120  -5.9120  0.00  0.00     0.000 HD
BRANCH 38 44
ATOM     44   C  GCU B   3       3.776  30.254  -9.8360  0.00  0.00     0.000 C
ATOM     45   O  GCU B   3       3.039  29.499 -10.4880  0.00  0.00     0.000 OA
ATOM     46   O  GCU B   3       3.402  31.388  -9.4810  0.00  0.00     0.000 OA
ENDBRANCH 38 44
BRANCH 34 47
ATOM     47  O3  NAG B   4       8.180  31.467  -9.9370  0.00  0.00     0.000 O
BRANCH 47 50
ATOM     48  C1  NAG B   4       8.675  35.026 -10.8590  0.00  0.00     0.000 C
ATOM     49  C2  NAG B   4       8.217  33.579 -11.0070  0.00  0.00     0.000 C
ATOM     50  C3  NAG B   4       8.172  32.868  -9.6640  0.00  0.00     0.000 C
ATOM     51  C4  NAG B   4       9.347  33.214  -8.7420  0.00  0.00     0.000 C
ATOM     52  C5  NAG B   4       9.392  34.704  -8.4440  0.00  0.00     0.000 C
ATOM     53  O5  NAG B   4       9.130  35.543  -9.5910  0.00  0.00     0.000 O
BRANCH 49 56
ATOM     54   N  NAG B   4       6.787  33.898 -11.1630  0.00  0.00     0.000 N
ATOM     56  HD  NAG B   4       6.312  34.371 -10.6140  0.00  0.00     0.000 HD
ATOM     56   C  NAG B   4       4.552  33.897 -12.1090  0.00  0.00     0.000 C
ATOM     57   O  NAG B   4       6.257  32.466 -12.8460  0.00  0.00     0.000 OA
ATOM     58   C  NAG B   4       5.946  33.352 -12.0640  0.00  0.00     0.000 C
ENDBRANCH 49 56
ATOM     59   O  NAG B   4      10.746  36.342  -7.1890  0.00  0.00     0.000 O
ATOM     61  HD  NAG B   4      10.583  35.931  -7.9330  0.00  0.00     0.000 HD
ATOM     61   O  NAG B   4      10.746  36.342  -7.1890  0.00  0.00     0.000 O
ATOM     63  HD  NAG B   4      10.583  35.931  -7.9330  0.00  0.00     0.000 HD
ENDBRANCH 47 50
ENDBRANCH 34 47
ENDBRANCH 33 37
ENDBRANCH 17 33
ENDBRANCH 16 19
ENDBRANCH 1 16
TORSDOF 10
ENDMDL
MODEL 6
REMARK VINA RESULT:      -8.8      7.176     17.285
ROOT
ATOM      1  C1  GCU B   1      -4.655  23.196   4.4320  0.00  0.00     0.000 C
ATOM      2  C2  GCU B   1      -3.799  23.145   5.6880  0.00  0.00     0.000 C
ATOM      3  C3  GCU B   1      -4.119  21.899   6.4990  0.00  0.00     0.000 C
ATOM      4  C4  GCU B   1      -5.618  21.793   6.7320  0.00  0.00     0.000 C
ATOM      5  C5  GCU B   1      -6.389  21.917   5.4160  0.00  0.00     0.000 C
ATOM      6  O5  GCU B   1      -6.047  23.159   4.7870  0.00  0.00     0.000 O
ATOM      7   O  GCU B   1      -2.434  23.147   5.2820  0.00  0.00     0.000 O
ATOM      9  HD  GCU B   1      -1.818  23.685   5.5650  0.00  0.00     0.000 HD
ATOM      9   O  GCU B   1      -3.435  21.925   7.7550  0.00  0.00     0.000 O
ATOM     11  HD  GCU B   1      -2.818  22.463   8.0380  0.00  0.00     0.000 HD
ATOM     11   O  GCU B   1      -5.903  20.533   7.3420  0.00  0.00     0.000 O
ATOM     13  HD  GCU B   1      -5.286  21.072   7.6250  0.00  0.00     0.000 HD
ENDROOT
BRANCH 5 13
ATOM     13   C  GCU B   1      -7.871  21.794   5.6760  0.00  0.00     0.000 C
ATOM     14   O  GCU B   1      -8.364  22.227   6.7370  0.00  0.00     0.000 OA
ATOM     15   O  GCU B   1      -8.569  21.276   4.7830  0.00  0.00     0.000 OA
ENDBRANCH 5 13
BRANCH 1 16
ATOM     16  O3  NAG B   2      -5.021  24.278   3.7410  0.00  0.00     0.000 O
BRANCH 16 19
ATOM     17  C1  NAG B   2      -4.075  25.472   0.2900  0.00  0.00     0.000 C
ATOM     18  C2  NAG B   2      -3.857  25.006   1.7240  0.00  0.00     0.000 C
ATOM     19  C3  NAG B   2      -5.178  24.547   2.3390  0.00  0.00     0.000 C
ATOM     20  C4  NAG B   2      -6.244  25.631   2.1790  0.00  0.00     0.000 C
ATOM     21  C5  NAG B   2      -6.377  26.011   0.7110  0.00  0.00     0.000 C
ATOM     22  O5  NAG B   2      -5.102  26.476   0.2340  0.00  0.00     0.000 O
ATOM     23   O  NAG B   2      -7.480  25.127   2.6980  0.00  0.00     0.000 O
ATOM     25  HD  NAG B   2      -7.102  25.772   3.1350  0.00  0.00     0.000 HD
ATOM     25   C  NAG B   2      -7.439  27.081   0.4730  0.00  0.00     0.000 C
ATOM     26   O  NAG B   2      -7.003  28.372   0.9250  0.00  0.00     0.000 O
ATOM     28  HD  NAG B   2      -6.625  29.017   1.3620  0.00  0.00     0.000 HD
BRANCH 18 30
ATOM     28   N  NAG B   2      -2.738  24.110   1.4990  0.00  0.00     0.000 N
ATOM     30  HD  NAG B   2      -2.515  24.527   2.2240  0.00  0.00     0.000 HD
ATOM     30   C  NAG B   2      -1.616  24.121   2.2290  0.00  0.00     0.000 C
ATOM     31   C  NAG B   2      -0.526  23.160   1.8440  0.00  0.00     0.000 C
ATOM     32   O  NAG B   2      -1.470  24.876   3.1690  0.00  0.00     0.000 OA
ENDBRANCH 18 30
BRANCH 17 33
ATOM     33  O4  GCU B   3      -2.805  25.923  -0.2200  0.00  0.00     0.000 O
BRANCH 33 37
ATOM     34  C1  GCU B   3      -1.403  26.102  -4.1360  0.00  0.00     0.000 C
ATOM     35  C2  GCU B   3      -2.037  27.365  -3.5510  0.00  0.00     0.000 C
ATOM     36  C3  GCU B   3      -2.088  27.253  -2.0420  0.00  0.00     0.000 C
ATOM     37  C4  GCU B   3      -2.813  25.974  -1.6470  0.00  0.00     0.000 C
ATOM     38  C5  GCU B   3      -2.108  24.769  -2.2740  0.00  0.00     0.000 C
ATOM     39  O5  GCU B   3      -2.102  24.934  -3.6960  0.00  0.00     0.000 O
ATOM     40   O  GCU B   3      -1.256  28.497  -3.9370  0.00  0.00     0.000 O
ATOM     42  HD  GCU B   3      -0.871  29.204  -3.6170  0.00  0.00     0.000 HD
ATOM     42   O  GCU B   3      -2.746  28.394  -1.4610  0.00  0.00     0.000 O
ATOM     44  HD  GCU B   3      -2.361  29.101  -1.1410  0.00  0.00     0.000 HD
BRANCH 38 44
ATOM     44   C  GCU B   3      -2.787  23.463  -1.9470  0.00  0.00     0.000 C
ATOM     45   O  GCU B   3      -3.848  23.184  -2.5260  0.00  0.00     0.000 OA
ATOM     46   O  GCU B   3      -2.275  22.693  -1.1120  0.00  0.00     0.000 OA
ENDBRANCH 38 44
BRANCH 34 47
ATOM     47  O3  NAG B   4      -1.552  26.121  -5.4530  0.00  0.00     0.000 O
BRANCH 47 50
ATOM     48  C1  NAG B   4       0.845  23.841  -7.1300  0.00  0.00     0.000 C
ATOM     49  C2  NAG B   4      -0.269  24.269  -6.1810  0.00  0.00     0.000 C
ATOM     50  C3  NAG B   4      -0.874  25.601  -6.5950  0.00  0.00     0.000 C
ATOM     51  C4  NAG B   4       0.159  26.623  -7.0840  0.00  0.00     0.000 C
ATOM     52  C5  NAG B   4       0.924  26.100  -8.2880  0.00  0.00     0.000 C
ATOM     53  O5  NAG B   4       1.308  24.710  -8.1850  0.00  0.00     0.000 O
BRANCH 49 56
ATOM     54   N  NAG B   4      -1.407  23.471  -6.6670  0.00  0.00     0.000 N
ATOM     56  HD  NAG B   4      -1.937  23.690  -7.3160  0.00  0.00     0.000 HD
ATOM     56   C  NAG B   4      -3.028  21.668  -6.7870  0.00  0.00     0.000 C
ATOM     57   O  NAG B   4      -1.548  21.945  -4.9890  0.00  0.00     0.000 OA
ATOM     58   C  NAG B   4      -1.928  22.384  -6.0640  0.00  0.00     0.000 C
ENDBRANCH 49 56
ATOM     59   O  NAG B   4       2.727  26.785  -9.8290  0.00  0.00     0.000 O
ATOM     61  HD  NAG B   4       2.487  26.376  -9.1040  0.00  0.00     0.000 HD
ATOM     61   O  NAG B   4       2.727  26.785  -9.8290  0.00  0.00     0.000 O
ATOM     63  HD  NAG B   4       2.487  26.376  -9.1040  0.00  0.00     0.000 HD
ENDBRANCH 47 50
ENDBRANCH 34 47
ENDBRANCH 33 37
ENDBRANCH 17 33
ENDBRANCH 16 19
ENDBRANCH 1 16
TORSDOF 10
ENDMDL
MODEL 7
REMARK VINA RESULT:      -8.8     11.099     17.782
ROOT
ATOM      1  C1  GCU B   1      -5.753  23.650   3.8430  0.00  0.00     0.000 C
ATOM      2  C2  GCU B   1      -7.105  24.259   3.5050  0.00  0.00     0.000 C
ATOM      3  C3  GCU B   1      -7.916  24.491   4.7710  0.00  0.00     0.000 C
ATOM      4  C4  GCU B   1      -7.968  23.219   5.6020  0.00  0.00     0.000 C
ATOM      5  C5  GCU B   1      -6.565  22.655   5.8340  0.00  0.00     0.000 C
ATOM      6  O5  GCU B   1      -5.938  22.422   4.5650  0.00  0.00     0.000 O
ATOM      7   O  GCU B   1      -6.868  25.488   2.8250  0.00  0.00     0.000 O
ATOM      9  HD  GCU B   1      -7.205  25.723   2.0630  0.00  0.00     0.000 HD
ATOM      9   O  GCU B   1      -9.243  24.914   4.4490  0.00  0.00     0.000 O
ATOM     11  HD  GCU B   1      -9.580  25.149   3.6870  0.00  0.00     0.000 HD
ATOM     11   O  GCU B   1      -8.584  23.512   6.8570  0.00  0.00     0.000 O
ATOM     13  HD  GCU B   1      -8.920  23.747   6.0940  0.00  0.00     0.000 HD
ENDROOT
BRANCH 5 13
ATOM     13   C  GCU B   1      -6.647  21.402   6.6720  0.00  0.00     0.000 C
ATOM     14   O  GCU B   1      -5.623  20.937   7.2130  0.00  0.00     0.000 OA
ATOM     15   O  GCU B   1      -7.769  20.881   6.8180  0.00  0.00     0.000 OA
ENDBRANCH 5 13
BRANCH 1 16
ATOM     16  O3  NAG B   2      -4.984  22.891   3.0590  0.00  0.00     0.000 O
BRANCH 16 19
ATOM     17  C1  NAG B   2      -1.473  23.403   1.7810  0.00  0.00     0.000 C
ATOM     18  C2  NAG B   2      -2.939  23.735   2.0320  0.00  0.00     0.000 C
ATOM     19  C3  NAG B   2      -3.565  22.696   2.9600  0.00  0.00     0.000 C
ATOM     20  C4  NAG B   2      -3.315  21.286   2.4260  0.00  0.00     0.000 C
ATOM     21  C5  NAG B   2      -1.823  21.069   2.2200  0.00  0.00     0.000 C
ATOM     22  O5  NAG B   2      -1.333  22.058   1.2970  0.00  0.00     0.000 O
ATOM     23   O  NAG B   2      -3.851  20.346   3.3650  0.00  0.00     0.000 O
ATOM     25  HD  NAG B   2      -4.247  20.407   2.5980  0.00  0.00     0.000 HD
ATOM     25   C  NAG B   2      -1.496  19.671   1.7010  0.00  0.00     0.000 C
ATOM     26   O  NAG B   2      -1.864  19.517   0.3210  0.00  0.00     0.000 O
ATOM     28  HD  NAG B   2      -2.260  19.577  -0.4460  0.00  0.00     0.000 HD
BRANCH 18 30
ATOM     28   N  NAG B   2      -3.104  24.984   1.3130  0.00  0.00     0.000 N
ATOM     30  HD  NAG B   2      -3.257  25.207   2.1360  0.00  0.00     0.000 HD
ATOM     30   C  NAG B   2      -3.535  26.118   1.8790  0.00  0.00     0.000 C
ATOM     31   C  NAG B   2      -3.698  27.321   0.9920  0.00  0.00     0.000 C
ATOM     32   O  NAG B   2      -3.792  26.186   3.0640  0.00  0.00     0.000 OA
ENDBRANCH 18 30
BRANCH 17 33
ATOM     33  O4  GCU B   3      -0.951  24.395   0.8740  0.00  0.00     0.000 O
BRANCH 33 37
ATOM     34  C1  GCU B   3       2.888  25.958   0.4880  0.00  0.00     0.000 C
ATOM     35  C2  GCU B   3       2.555  24.692  -0.3020  0.00  0.00     0.000 C
ATOM     36  C3  GCU B   3       1.052  24.524  -0.3800  0.00  0.00     0.000 C
ATOM     37  C4  GCU B   3       0.463  24.534   1.0230  0.00  0.00     0.000 C
ATOM     38  C5  GCU B   3       0.845  25.835   1.7330  0.00  0.00     0.000 C
ATOM     39  O5  GCU B   3       2.273  25.926   1.7790  0.00  0.00     0.000 O
ATOM     40   O  GCU B   3       3.109  24.806  -1.6140  0.00  0.00     0.000 O
ATOM     42  HD  GCU B   3       2.906  24.722  -2.4520  0.00  0.00     0.000 HD
ATOM     42   O  GCU B   3       0.702  23.303  -1.0550  0.00  0.00     0.000 O
ATOM     44  HD  GCU B   3       0.500  23.219  -1.8930  0.00  0.00     0.000 HD
BRANCH 38 44
ATOM     44   C  GCU B   3       0.316  25.906   3.1430  0.00  0.00     0.000 C
ATOM     45   O  GCU B   3      -0.463  26.824   3.4400  0.00  0.00     0.000 OA
ATOM     46   O  GCU B   3       0.663  25.048   3.9770  0.00  0.00     0.000 OA
ENDBRANCH 38 44
BRANCH 34 47
ATOM     47  O3  NAG B   4       4.192  25.983   0.7260  0.00  0.00     0.000 O
BRANCH 47 50
ATOM     48  C1  NAG B   4       7.517  26.130   2.3620  0.00  0.00     0.000 C
ATOM     49  C2  NAG B   4       6.398  26.514   1.4000  0.00  0.00     0.000 C
ATOM     50  C3  NAG B   4       5.055  25.972   1.8610  0.00  0.00     0.000 C
ATOM     51  C4  NAG B   4       5.126  24.551   2.4340  0.00  0.00     0.000 C
ATOM     52  C5  NAG B   4       6.057  24.487   3.6340  0.00  0.00     0.000 C
ATOM     53  O5  NAG B   4       7.279  25.240   3.4730  0.00  0.00     0.000 O
BRANCH 49 56
ATOM     54   N  NAG B   4       6.378  27.912   1.8660  0.00  0.00     0.000 N
ATOM     56  HD  NAG B   4       6.490  28.174   2.6830  0.00  0.00     0.000 HD
ATOM     56   C  NAG B   4       6.140  30.326   1.7870  0.00  0.00     0.000 C
ATOM     57   O  NAG B   4       5.543  28.920   0.0080  0.00  0.00     0.000 OA
ATOM     58   C  NAG B   4       5.988  28.982   1.1440  0.00  0.00     0.000 C
ENDBRANCH 49 56
ATOM     59   O  NAG B   4       6.934  22.853   5.2630  0.00  0.00     0.000 O
ATOM     61  HD  NAG B   4       7.027  23.273   4.5120  0.00  0.00     0.000 HD
ATOM     61   O  NAG B   4       6.934  22.853   5.2630  0.00  0.00     0.000 O
ATOM     63  HD  NAG B   4       7.027  23.273   4.5120  0.00  0.00     0.000 HD
ENDBRANCH 47 50
ENDBRANCH 34 47
ENDBRANCH 33 37
ENDBRANCH 17 33
ENDBRANCH 16 19
ENDBRANCH 1 16
TORSDOF 10
ENDMDL
MODEL 8
REMARK VINA RESULT:      -8.8      9.784     13.678
ROOT
ATOM      1  C1  GCU B   1       4.614  25.207   1.3140  0.00  0.00     0.000 C
ATOM      2  C2  GCU B   1       5.711  24.177   1.5320  0.00  0.00     0.000 C
ATOM      3  C3  GCU B   1       6.717  24.680   2.5550  0.00  0.00     0.000 C
ATOM      4  C4  GCU B   1       7.201  26.072   2.1760  0.00  0.00     0.000 C
ATOM      5  C5  GCU B   1       6.022  27.013   1.9200  0.00  0.00     0.000 C
ATOM      6  O5  GCU B   1       5.190  26.454   0.8940  0.00  0.00     0.000 O
ATOM      7   O  GCU B   1       5.093  22.975   1.9810  0.00  0.00     0.000 O
ATOM      9  HD  GCU B   1       5.201  22.187   1.6390  0.00  0.00     0.000 HD
ATOM      9   O  GCU B   1       7.832  23.789   2.6460  0.00  0.00     0.000 O
ATOM     11  HD  GCU B   1       7.940  23.001   2.3040  0.00  0.00     0.000 HD
ATOM     11   O  GCU B   1       8.007  26.585   3.2370  0.00  0.00     0.000 O
ATOM     13  HD  GCU B   1       8.115  25.797   2.8960  0.00  0.00     0.000 HD
ENDROOT
BRANCH 5 13
ATOM     13   C  GCU B   1       6.531  28.388   1.5600  0.00  0.00     0.000 C
ATOM     14   O  GCU B   1       6.003  29.405   2.0550  0.00  0.00     0.000 OA
ATOM     15   O  GCU B   1       7.502  28.455   0.7830  0.00  0.00     0.000 OA
ENDBRANCH 5 13
BRANCH 1 16
ATOM     16  O3  NAG B   2       3.856  25.371   0.2270  0.00  0.00     0.000 O
BRANCH 16 19
ATOM     17  C1  NAG B   2       0.089  25.365   0.0300  0.00  0.00     0.000 C
ATOM     18  C2  NAG B   2       1.475  24.881   0.4370  0.00  0.00     0.000 C
ATOM     19  C3  NAG B   2       2.536  25.895   0.0140  0.00  0.00     0.000 C
ATOM     20  C4  NAG B   2       2.391  26.229  -1.4710  0.00  0.00     0.000 C
ATOM     21  C5  NAG B   2       0.974  26.703  -1.7560  0.00  0.00     0.000 C
ATOM     22  O5  NAG B   2       0.050  25.668  -1.3740  0.00  0.00     0.000 O
ATOM     23   O  NAG B   2       3.352  27.237  -1.8020  0.00  0.00     0.000 O
ATOM     25  HD  NAG B   2       3.472  26.450  -2.1430  0.00  0.00     0.000 HD
ATOM     25   C  NAG B   2       0.759  27.071  -3.2230  0.00  0.00     0.000 C
ATOM     26   O  NAG B   2       0.700  25.905  -4.0590  0.00  0.00     0.000 O
ATOM     28  HD  NAG B   2       0.820  25.118  -4.4000  0.00  0.00     0.000 HD
BRANCH 18 30
ATOM     28   N  NAG B   2       1.161  24.540   1.8120  0.00  0.00     0.000 N
ATOM     30  HD  NAG B   2       1.698  23.906   1.5690  0.00  0.00     0.000 HD
ATOM     30   C  NAG B   2       1.554  23.408   2.4080  0.00  0.00     0.000 C
ATOM     31   C  NAG B   2       1.111  23.176   3.8260  0.00  0.00     0.000 C
ATOM     32   O  NAG B   2       2.243  22.588   1.8350  0.00  0.00     0.000 OA
ENDBRANCH 18 30
BRANCH 17 33
ATOM     33  O4  GCU B   3      -0.859  24.353   0.4230  0.00  0.00     0.000 O
BRANCH 33 37
ATOM     34  C1  GCU B   3      -4.987  24.539   0.9290  0.00  0.00     0.000 C
ATOM     35  C2  GCU B   3      -4.455  24.314  -0.4860  0.00  0.00     0.000 C
ATOM     36  C3  GCU B   3      -3.014  23.855  -0.4200  0.00  0.00     0.000 C
ATOM     37  C4  GCU B   3      -2.195  24.857   0.3820  0.00  0.00     0.000 C
ATOM     38  C5  GCU B   3      -2.798  25.014   1.7790  0.00  0.00     0.000 C
ATOM     39  O5  GCU B   3      -4.153  25.456   1.6440  0.00  0.00     0.000 O
ATOM     40   O  GCU B   3      -5.260  23.325  -1.1320  0.00  0.00     0.000 O
ATOM     42  HD  GCU B   3      -5.207  22.589  -1.5850  0.00  0.00     0.000 HD
ATOM     42   O  GCU B   3      -2.457  23.703  -1.7380  0.00  0.00     0.000 O
ATOM     44  HD  GCU B   3      -2.405  22.967  -2.1910  0.00  0.00     0.000 HD
BRANCH 38 44
ATOM     44   C  GCU B   3      -2.052  26.014   2.6260  0.00  0.00     0.000 C
ATOM     45   O  GCU B   3      -2.223  27.223   2.4070  0.00  0.00     0.000 OA
ATOM     46   O  GCU B   3      -1.287  25.614   3.5250  0.00  0.00     0.000 OA
ENDBRANCH 38 44
BRANCH 34 47
ATOM     47  O3  NAG B   4      -6.170  25.133   0.8520  0.00  0.00     0.000 O
BRANCH 47 50
ATOM     48  C1  NAG B   4      -8.360  25.103   3.8450  0.00  0.00     0.000 C
ATOM     49  C2  NAG B   4      -7.239  25.564   2.9190  0.00  0.00     0.000 C
ATOM     50  C3  NAG B   4      -7.435  25.045   1.5040  0.00  0.00     0.000 C
ATOM     51  C4  NAG B   4      -7.942  23.600   1.4410  0.00  0.00     0.000 C
ATOM     52  C5  NAG B   4      -9.280  23.453   2.1460  0.00  0.00     0.000 C
ATOM     53  O5  NAG B   4      -9.369  24.173   3.3960  0.00  0.00     0.000 O
BRANCH 49 56
ATOM     54   N  NAG B   4      -7.761  26.941   2.8600  0.00  0.00     0.000 N
ATOM     56  HD  NAG B   4      -8.598  27.165   2.8560  0.00  0.00     0.000 HD
ATOM     56   C  NAG B   4      -7.760  29.362   2.6890  0.00  0.00     0.000 C
ATOM     57   O  NAG B   4      -5.849  28.050   2.3310  0.00  0.00     0.000 OA
ATOM     58   C  NAG B   4      -7.041  28.051   2.6040  0.00  0.00     0.000 C
ENDBRANCH 49 56
ATOM     59   O  NAG B   4     -10.955  21.723   2.6870  0.00  0.00     0.000 O
ATOM     61  HD  NAG B   4     -10.253  22.172   2.9200  0.00  0.00     0.000 HD
ATOM     61   O  NAG B   4     -10.955  21.723   2.6870  0.00  0.00     0.000 O
ATOM     63  HD  NAG B   4     -10.253  22.172   2.9200  0.00  0.00     0.000 HD
ENDBRANCH 47 50
ENDBRANCH 34 47
ENDBRANCH 33 37
ENDBRANCH 17 33
ENDBRANCH 16 19
ENDBRANCH 1 16
TORSDOF 10
ENDMDL
MODEL 9
REMARK VINA RESULT:      -8.8      3.468     13.207
ROOT
ATOM      1  C1  GCU B   1      -3.986  27.241  -1.5040  0.00  0.00     0.000 C
ATOM      2  C2  GCU B   1      -5.227  27.439  -0.6470  0.00  0.00     0.000 C
ATOM      3  C3  GCU B   1      -4.842  27.627   0.8120  0.00  0.00     0.000 C
ATOM      4  C4  GCU B   1      -3.918  26.505   1.2600  0.00  0.00     0.000 C
ATOM      5  C5  GCU B   1      -2.737  26.350   0.3000  0.00  0.00     0.000 C
ATOM      6  O5  GCU B   1      -3.235  26.114  -1.0230  0.00  0.00     0.000 O
ATOM      7   O  GCU B   1      -5.915  28.585  -1.1390  0.00  0.00     0.000 O
ATOM      9  HD  GCU B   1      -6.751  28.623  -1.3610  0.00  0.00     0.000 HD
ATOM      9   O  GCU B   1      -6.007  27.653   1.6410  0.00  0.00     0.000 O
ATOM     11  HD  GCU B   1      -6.843  27.692   1.4200  0.00  0.00     0.000 HD
ATOM     11   O  GCU B   1      -3.438  26.799   2.5730  0.00  0.00     0.000 O
ATOM     13  HD  GCU B   1      -4.274  26.837   2.3510  0.00  0.00     0.000 HD
ENDROOT
BRANCH 5 13
ATOM     13   C  GCU B   1      -1.830  25.240   0.7770  0.00  0.00     0.000 C
ATOM     14   O  GCU B   1      -1.975  24.078   0.3460  0.00  0.00     0.000 OA
ATOM     15   O  GCU B   1      -0.929  25.542   1.5830  0.00  0.00     0.000 OA
ENDBRANCH 5 13
BRANCH 1 16
ATOM     16  O3  NAG B   2      -3.898  26.603  -2.6730  0.00  0.00     0.000 O
BRANCH 16 19
ATOM     17  C1  NAG B   2      -1.176  26.385  -5.2750  0.00  0.00     0.000 C
ATOM     18  C2  NAG B   2      -2.203  27.053  -4.3700  0.00  0.00     0.000 C
ATOM     19  C3  NAG B   2      -2.803  26.031  -3.4050  0.00  0.00     0.000 C
ATOM     20  C4  NAG B   2      -3.326  24.817  -4.1720  0.00  0.00     0.000 C
ATOM     21  C5  NAG B   2      -2.216  24.234  -5.0340  0.00  0.00     0.000 C
ATOM     22  O5  NAG B   2      -1.749  25.249  -5.9410  0.00  0.00     0.000 O
ATOM     23   O  NAG B   2      -3.806  23.857  -3.2240  0.00  0.00     0.000 O
ATOM     25  HD  NAG B   2      -4.395  24.244  -3.7280  0.00  0.00     0.000 HD
ATOM     25   C  NAG B   2      -2.663  23.004  -5.8210  0.00  0.00     0.000 C
ATOM     26   O  NAG B   2      -3.531  23.357  -6.9090  0.00  0.00     0.000 O
ATOM     28  HD  NAG B   2      -4.121  23.743  -7.4120  0.00  0.00     0.000 HD
BRANCH 18 30
ATOM     28   N  NAG B   2      -2.110  28.442  -4.7770  0.00  0.00     0.000 N
ATOM     30  HD  NAG B   2      -1.871  28.463  -3.9450  0.00  0.00     0.000 HD
ATOM     30   C  NAG B   2      -1.846  29.450  -3.9370  0.00  0.00     0.000 C
ATOM     31   C  NAG B   2      -1.826  30.842  -4.5030  0.00  0.00     0.000 C
ATOM     32   O  NAG B   2      -1.633  29.260  -2.7560  0.00  0.00     0.000 OA
ENDBRANCH 18 30
BRANCH 17 33
ATOM     33  O4  GCU B   3      -0.676  27.388  -6.1810  0.00  0.00     0.000 O
BRANCH 33 37
ATOM     34  C1  GCU B   3       3.111  27.958  -7.8130  0.00  0.00     0.000 C
ATOM     35  C2  GCU B   3       2.267  26.807  -8.3630  0.00  0.00     0.000 C
ATOM     36  C3  GCU B   3       0.818  27.013  -7.9780  0.00  0.00     0.000 C
ATOM     37  C4  GCU B   3       0.707  27.177  -6.4690  0.00  0.00     0.000 C
ATOM     38  C5  GCU B   3       1.580  28.349  -6.0130  0.00  0.00     0.000 C
ATOM     39  O5  GCU B   3       2.933  28.086  -6.4000  0.00  0.00     0.000 O
ATOM     40   O  GCU B   3       2.401  26.772  -9.7850  0.00  0.00     0.000 O
ATOM     42  HD  GCU B   3       1.938  26.735 -10.5160  0.00  0.00     0.000 HD
ATOM     42   O  GCU B   3       0.004  25.910  -8.4170  0.00  0.00     0.000 O
ATOM     44  HD  GCU B   3      -0.460  25.873  -9.1480  0.00  0.00     0.000 HD
BRANCH 38 44
ATOM     44   C  GCU B   3       1.541  28.557  -4.5200  0.00  0.00     0.000 C
ATOM     45   O  GCU B   3       1.499  27.560  -3.7830  0.00  0.00     0.000 OA
ATOM     46   O  GCU B   3       1.555  29.713  -4.0570  0.00  0.00     0.000 OA
ENDBRANCH 38 44
BRANCH 34 47
ATOM     47  O3  NAG B   4       4.393  27.663  -7.9760  0.00  0.00     0.000 O
BRANCH 47 50
ATOM     48  C1  NAG B   4       6.901  28.809 -10.4560  0.00  0.00     0.000 C
ATOM     49  C2  NAG B   4       5.523  28.531  -9.8660  0.00  0.00     0.000 C
ATOM     50  C3  NAG B   4       5.588  28.341  -8.3600  0.00  0.00     0.000 C
ATOM     51  C4  NAG B   4       6.805  27.533  -7.8920  0.00  0.00     0.000 C
ATOM     52  C5  NAG B   4       8.104  28.207  -8.3020  0.00  0.00     0.000 C
ATOM     53  O5  NAG B   4       8.092  28.743  -9.6440  0.00  0.00     0.000 O
BRANCH 49 56
ATOM     54   N  NAG B   4       5.065  29.930  -9.9240  0.00  0.00     0.000 N
ATOM     56  HD  NAG B   4       5.483  30.612  -9.5910  0.00  0.00     0.000 HD
ATOM     56   C  NAG B   4       3.630  31.831 -10.3910  0.00  0.00     0.000 C
ATOM     57   O  NAG B   4       2.931  29.605 -10.6360  0.00  0.00     0.000 OA
ATOM     58   C  NAG B   4       3.847  30.350 -10.3190  0.00  0.00     0.000 C
ENDBRANCH 49 56
ATOM     59   O  NAG B   4      10.544  27.867  -8.1460  0.00  0.00     0.000 O
ATOM     61  HD  NAG B   4       9.808  27.764  -8.5910  0.00  0.00     0.000 HD
ATOM     61   O  NAG B   4      10.544  27.867  -8.1460  0.00  0.00     0.000 O
ATOM     63  HD  NAG B   4       9.808  27.764  -8.5910  0.00  0.00     0.000 HD
ENDBRANCH 47 50
ENDBRANCH 34 47
ENDBRANCH 33 37
ENDBRANCH 17 33
ENDBRANCH 16 19
ENDBRANCH 1 16
TORSDOF 10
ENDMDL
MODEL 10
REMARK VINA RESULT:      -8.7      3.070     13.104
ROOT
ATOM      1  C1  GCU B   1      -3.947  27.220  -1.5740  0.00  0.00     0.000 C
ATOM      2  C2  GCU B   1      -5.182  27.386  -0.7030  0.00  0.00     0.000 C
ATOM      3  C3  GCU B   1      -4.786  27.556   0.7560  0.00  0.00     0.000 C
ATOM      4  C4  GCU B   1      -3.842  26.441   1.1770  0.00  0.00     0.000 C
ATOM      5  C5  GCU B   1      -2.668  26.317   0.2040  0.00  0.00     0.000 C
ATOM      6  O5  GCU B   1      -3.176  26.096  -1.1180  0.00  0.00     0.000 O
ATOM      7   O  GCU B   1      -5.890  28.531  -1.1700  0.00  0.00     0.000 O
ATOM      9  HD  GCU B   1      -6.729  28.561  -1.3830  0.00  0.00     0.000 HD
ATOM      9   O  GCU B   1      -5.943  27.554   1.5960  0.00  0.00     0.000 O
ATOM     11  HD  GCU B   1      -6.782  27.584   1.3830  0.00  0.00     0.000 HD
ATOM     11   O  GCU B   1      -3.354  26.721   2.4900  0.00  0.00     0.000 O
ATOM     13  HD  GCU B   1      -4.193  26.751   2.2770  0.00  0.00     0.000 HD
ENDROOT
BRANCH 5 13
ATOM     13   C  GCU B   1      -1.742  25.213   0.6550  0.00  0.00     0.000 C
ATOM     14   O  GCU B   1      -2.203  24.167   1.1560  0.00  0.00     0.000 OA
ATOM     15   O  GCU B   1      -0.520  25.382   0.4790  0.00  0.00     0.000 OA
ENDBRANCH 5 13
BRANCH 1 16
ATOM     16  O3  NAG B   2      -3.860  26.602  -2.7530  0.00  0.00     0.000 O
BRANCH 16 19
ATOM     17  C1  NAG B   2      -1.151  26.458  -5.3740  0.00  0.00     0.000 C
ATOM     18  C2  NAG B   2      -2.179  27.099  -4.4500  0.00  0.00     0.000 C
ATOM     19  C3  NAG B   2      -2.765  26.054  -3.5030  0.00  0.00     0.000 C
ATOM     20  C4  NAG B   2      -3.283  24.851  -4.2910  0.00  0.00     0.000 C
ATOM     21  C5  NAG B   2      -2.173  24.294  -5.1710  0.00  0.00     0.000 C
ATOM     22  O5  NAG B   2      -1.719  25.331  -6.0600  0.00  0.00     0.000 O
ATOM     23   O  NAG B   2      -3.749  23.868  -3.3610  0.00  0.00     0.000 O
ATOM     25  HD  NAG B   2      -4.344  24.260  -3.8530  0.00  0.00     0.000 HD
ATOM     25   C  NAG B   2      -2.615  23.076  -5.9800  0.00  0.00     0.000 C
ATOM     26   O  NAG B   2      -3.491  23.444  -7.0560  0.00  0.00     0.000 O
ATOM     28  HD  NAG B   2      -4.087  23.835  -7.5480  0.00  0.00     0.000 HD
BRANCH 18 30
ATOM     28   N  NAG B   2      -2.101  28.497  -4.8300  0.00  0.00     0.000 N
ATOM     30  HD  NAG B   2      -1.855  28.504  -4.0000  0.00  0.00     0.000 HD
ATOM     30   C  NAG B   2      -1.839  29.490  -3.9710  0.00  0.00     0.000 C
ATOM     31   C  NAG B   2      -1.836  30.893  -4.5090  0.00  0.00     0.000 C
ATOM     32   O  NAG B   2      -1.612  29.278  -2.7970  0.00  0.00     0.000 OA
ENDBRANCH 18 30
BRANCH 17 33
ATOM     33  O4  GCU B   3      -0.665  27.483  -6.2630  0.00  0.00     0.000 O
BRANCH 33 37
ATOM     34  C1  GCU B   3       3.129  28.163  -7.8380  0.00  0.00     0.000 C
ATOM     35  C2  GCU B   3       2.336  26.976  -8.3850  0.00  0.00     0.000 C
ATOM     36  C3  GCU B   3       0.873  27.136  -8.0290  0.00  0.00     0.000 C
ATOM     37  C4  GCU B   3       0.730  27.317  -6.5240  0.00  0.00     0.000 C
ATOM     38  C5  GCU B   3       1.553  28.525  -6.0700  0.00  0.00     0.000 C
ATOM     39  O5  GCU B   3       2.921  28.305  -6.4300  0.00  0.00     0.000 O
ATOM     40   O  GCU B   3       2.496  26.927  -9.8050  0.00  0.00     0.000 O
ATOM     42  HD  GCU B   3       2.047  26.864 -10.5420  0.00  0.00     0.000 HD
ATOM     42   O  GCU B   3       0.106  26.000  -8.4660  0.00  0.00     0.000 O
ATOM     44  HD  GCU B   3      -0.343  25.936  -9.2030  0.00  0.00     0.000 HD
BRANCH 38 44
ATOM     44   C  GCU B   3       1.480  28.752  -4.5810  0.00  0.00     0.000 C
ATOM     45   O  GCU B   3       1.373  27.767  -3.8350  0.00  0.00     0.000 OA
ATOM     46   O  GCU B   3       1.532  29.912  -4.1300  0.00  0.00     0.000 OA
ENDBRANCH 38 44
BRANCH 34 47
ATOM     47  O3  NAG B   4       4.423  27.912  -7.9740  0.00  0.00     0.000 O
BRANCH 47 50
ATOM     48  C1  NAG B   4       6.423  30.869  -8.9800  0.00  0.00     0.000 C
ATOM     49  C2  NAG B   4       5.560  29.985  -8.0850  0.00  0.00     0.000 C
ATOM     50  C3  NAG B   4       5.561  28.541  -8.5610  0.00  0.00     0.000 C
ATOM     51  C4  NAG B   4       5.496  28.393 -10.0850  0.00  0.00     0.000 C
ATOM     52  C5  NAG B   4       6.678  29.072 -10.7560  0.00  0.00     0.000 C
ATOM     53  O5  NAG B   4       7.019  30.357 -10.1900  0.00  0.00     0.000 O
BRANCH 49 56
ATOM     54   N  NAG B   4       6.536  29.854  -6.9890  0.00  0.00     0.000 N
ATOM     56  HD  NAG B   4       7.332  29.519  -7.0580  0.00  0.00     0.000 HD
ATOM     56   C  NAG B   4       7.454  29.954  -4.7450  0.00  0.00     0.000 C
ATOM     57   O  NAG B   4       5.185  30.306  -5.2190  0.00  0.00     0.000 OA
ATOM     58   C  NAG B   4       6.287  30.046  -5.6790  0.00  0.00     0.000 C
ENDBRANCH 49 56
ATOM     59   O  NAG B   4       7.588  29.496 -13.0110  0.00  0.00     0.000 O
ATOM     61  HD  NAG B   4       7.101  29.762 -12.3470  0.00  0.00     0.000 HD
ATOM     61   O  NAG B   4       7.588  29.496 -13.0110  0.00  0.00     0.000 O
ATOM     63  HD  NAG B   4       7.101  29.762 -12.3470  0.00  0.00     0.000 HD
ENDBRANCH 47 50
ENDBRANCH 34 47
ENDBRANCH 33 37
ENDBRANCH 17 33
ENDBRANCH 16 19
ENDBRANCH 1 16
TORSDOF 10
ENDMDL
MODEL 11
REMARK VINA RESULT:      -8.7     10.923     17.554
ROOT
ATOM      1  C1  GCU B   1      -6.510  24.709   3.1950  0.00  0.00     0.000 C
ATOM      2  C2  GCU B   1      -8.006  24.986   3.2030  0.00  0.00     0.000 C
ATOM      3  C3  GCU B   1      -8.548  24.938   4.6240  0.00  0.00     0.000 C
ATOM      4  C4  GCU B   1      -8.124  23.646   5.3040  0.00  0.00     0.000 C
ATOM      5  C5  GCU B   1      -6.614  23.432   5.1870  0.00  0.00     0.000 C
ATOM      6  O5  GCU B   1      -6.246  23.434   3.8010  0.00  0.00     0.000 O
ATOM      7   O  GCU B   1      -8.211  26.272   2.6280  0.00  0.00     0.000 O
ATOM      9  HD  GCU B   1      -8.752  26.461   1.9790  0.00  0.00     0.000 HD
ATOM      9   O  GCU B   1      -9.974  25.039   4.6220  0.00  0.00     0.000 O
ATOM     11  HD  GCU B   1     -10.515  25.227   3.9730  0.00  0.00     0.000 HD
ATOM     11   O  GCU B   1      -8.498  23.705   6.6810  0.00  0.00     0.000 O
ATOM     13  HD  GCU B   1      -9.039  23.894   6.0320  0.00  0.00     0.000 HD
ENDROOT
BRANCH 5 13
ATOM     13   C  GCU B   1      -6.220  22.151   5.8830  0.00  0.00     0.000 C
ATOM     14   O  GCU B   1      -7.066  21.253   6.0770  0.00  0.00     0.000 OA
ATOM     15   O  GCU B   1      -5.028  22.024   6.2200  0.00  0.00     0.000 OA
ENDBRANCH 5 13
BRANCH 1 16
ATOM     16  O3  NAG B   2      -5.781  24.210   2.1950  0.00  0.00     0.000 O
BRANCH 16 19
ATOM     17  C1  NAG B   2      -2.125  24.356   1.2770  0.00  0.00     0.000 C
ATOM     18  C2  NAG B   2      -3.524  24.888   1.5650  0.00  0.00     0.000 C
ATOM     19  C3  NAG B   2      -4.419  23.768   2.0920  0.00  0.00     0.000 C
ATOM     20  C4  NAG B   2      -4.379  22.567   1.1480  0.00  0.00     0.000 C
ATOM     21  C5  NAG B   2      -2.938  22.123   0.9390  0.00  0.00     0.000 C
ATOM     22  O5  NAG B   2      -2.186  23.223   0.3970  0.00  0.00     0.000 O
ATOM     23   O  NAG B   2      -5.167  21.517   1.7190  0.00  0.00     0.000 O
ATOM     25  HD  NAG B   2      -5.467  21.888   0.9960  0.00  0.00     0.000 HD
ATOM     25   C  NAG B   2      -2.821  20.912   0.0150  0.00  0.00     0.000 C
ATOM     26   O  NAG B   2      -3.072  21.263  -1.3540  0.00  0.00     0.000 O
ATOM     28  HD  NAG B   2      -3.372  21.633  -2.0770  0.00  0.00     0.000 HD
BRANCH 18 30
ATOM     28   N  NAG B   2      -3.485  26.304   1.2490  0.00  0.00     0.000 N
ATOM     30  HD  NAG B   2      -3.545  26.296   2.1130  0.00  0.00     0.000 HD
ATOM     30   C  NAG B   2      -3.657  27.275   2.1550  0.00  0.00     0.000 C
ATOM     31   C  NAG B   2      -3.635  28.696   1.6650  0.00  0.00     0.000 C
ATOM     32   O  NAG B   2      -3.827  27.030   3.3320  0.00  0.00     0.000 OA
ENDBRANCH 18 30
BRANCH 17 33
ATOM     33  O4  GCU B   3      -1.343  25.448   0.7520  0.00  0.00     0.000 O
BRANCH 33 37
ATOM     34  C1  GCU B   3       2.768  26.102   0.8200  0.00  0.00     0.000 C
ATOM     35  C2  GCU B   3       2.191  25.334  -0.3700  0.00  0.00     0.000 C
ATOM     36  C3  GCU B   3       0.696  25.562  -0.4440  0.00  0.00     0.000 C
ATOM     37  C4  GCU B   3       0.055  25.188   0.8850  0.00  0.00     0.000 C
ATOM     38  C5  GCU B   3       0.692  26.005   2.0110  0.00  0.00     0.000 C
ATOM     39  O5  GCU B   3       2.097  25.738   2.0300  0.00  0.00     0.000 O
ATOM     40   O  GCU B   3       2.821  25.793  -1.5680  0.00  0.00     0.000 O
ATOM     42  HD  GCU B   3       2.647  26.076  -2.3680  0.00  0.00     0.000 HD
ATOM     42   O  GCU B   3       0.107  24.795  -1.5100  0.00  0.00     0.000 O
ATOM     44  HD  GCU B   3      -0.067  25.078  -2.3100  0.00  0.00     0.000 HD
BRANCH 38 44
ATOM     44   C  GCU B   3       0.123  25.670   3.3670  0.00  0.00     0.000 C
ATOM     45   O  GCU B   3       0.491  24.624   3.9230  0.00  0.00     0.000 OA
ATOM     46   O  GCU B   3      -0.696  26.442   3.9020  0.00  0.00     0.000 OA
ENDBRANCH 38 44
BRANCH 34 47
ATOM     47  O3  NAG B   4       4.028  25.732   0.9960  0.00  0.00     0.000 O
BRANCH 47 50
ATOM     48  C1  NAG B   4       7.480  25.775   2.3510  0.00  0.00     0.000 C
ATOM     49  C2  NAG B   4       6.303  26.182   1.4710  0.00  0.00     0.000 C
ATOM     50  C3  NAG B   4       4.981  25.715   2.0580  0.00  0.00     0.000 C
ATOM     51  C4  NAG B   4       5.038  24.309   2.6680  0.00  0.00     0.000 C
ATOM     52  C5  NAG B   4       6.061  24.237   3.7890  0.00  0.00     0.000 C
ATOM     53  O5  NAG B   4       7.297  24.929   3.5060  0.00  0.00     0.000 O
BRANCH 49 56
ATOM     54   N  NAG B   4       6.287  27.589   1.9070  0.00  0.00     0.000 N
ATOM     56  HD  NAG B   4       6.248  27.864   2.7280  0.00  0.00     0.000 HD
ATOM     56   C  NAG B   4       6.241  30.011   1.7560  0.00  0.00     0.000 C
ATOM     57   O  NAG B   4       5.923  28.604  -0.0930  0.00  0.00     0.000 OA
ATOM     58   C  NAG B   4       6.129  28.664   1.1100  0.00  0.00     0.000 C
ENDBRANCH 49 56
ATOM     59   O  NAG B   4       6.998  22.612   5.3940  0.00  0.00     0.000 O
ATOM     61  HD  NAG B   4       7.047  23.006   4.6250  0.00  0.00     0.000 HD
ATOM     61   O  NAG B   4       6.998  22.612   5.3940  0.00  0.00     0.000 O
ATOM     63  HD  NAG B   4       7.047  23.006   4.6250  0.00  0.00     0.000 HD
ENDBRANCH 47 50
ENDBRANCH 34 47
ENDBRANCH 33 37
ENDBRANCH 17 33
ENDBRANCH 16 19
ENDBRANCH 1 16
TORSDOF 10
ENDMDL
MODEL 12
REMARK VINA RESULT:      -8.7     10.224     13.790
ROOT
ATOM      1  C1  GCU B   1       4.668  26.416   1.1720  0.00  0.00     0.000 C
ATOM      2  C2  GCU B   1       6.064  25.831   1.3200  0.00  0.00     0.000 C
ATOM      3  C3  GCU B   1       6.994  26.836   1.9830  0.00  0.00     0.000 C
ATOM      4  C4  GCU B   1       6.925  28.172   1.2600  0.00  0.00     0.000 C
ATOM      5  C5  GCU B   1       5.477  28.641   1.1090  0.00  0.00     0.000 C
ATOM      6  O5  GCU B   1       4.727  27.636   0.4150  0.00  0.00     0.000 O
ATOM      7   O  GCU B   1       5.956  24.649   2.1060  0.00  0.00     0.000 O
ATOM      9  HD  GCU B   1       6.263  23.867   1.8970  0.00  0.00     0.000 HD
ATOM      9   O  GCU B   1       8.340  26.353   1.9800  0.00  0.00     0.000 O
ATOM     11  HD  GCU B   1       8.648  25.571   1.7720  0.00  0.00     0.000 HD
ATOM     11   O  GCU B   1       7.671  29.137   2.0020  0.00  0.00     0.000 O
ATOM     13  HD  GCU B   1       7.979  28.355   1.7930  0.00  0.00     0.000 HD
ENDROOT
BRANCH 5 13
ATOM     13   C  GCU B   1       5.440  29.975   0.4010  0.00  0.00     0.000 C
ATOM     14   O  GCU B   1       5.640  31.031   1.0350  0.00  0.00     0.000 OA
ATOM     15   O  GCU B   1       5.233  29.967  -0.8270  0.00  0.00     0.000 OA
ENDBRANCH 5 13
BRANCH 1 16
ATOM     16  O3  NAG B   2       3.739  26.086   0.2720  0.00  0.00     0.000 O
BRANCH 16 19
ATOM     17  C1  NAG B   2       0.236  24.758   0.7080  0.00  0.00     0.000 C
ATOM     18  C2  NAG B   2       1.749  24.811   0.8770  0.00  0.00     0.000 C
ATOM     19  C3  NAG B   2       2.303  26.105   0.2830  0.00  0.00     0.000 C
ATOM     20  C4  NAG B   2       1.819  26.281  -1.1560  0.00  0.00     0.000 C
ATOM     21  C5  NAG B   2       0.299  26.215  -1.2000  0.00  0.00     0.000 C
ATOM     22  O5  NAG B   2      -0.128  24.947  -0.6690  0.00  0.00     0.000 O
ATOM     23   O  NAG B   2       2.297  27.540  -1.6420  0.00  0.00     0.000 O
ATOM     25  HD  NAG B   2       2.632  26.825  -1.9990  0.00  0.00     0.000 HD
ATOM     25   C  NAG B   2      -0.260  26.400  -2.6090  0.00  0.00     0.000 C
ATOM     26   O  NAG B   2      -0.033  25.240  -3.4260  0.00  0.00     0.000 O
ATOM     28  HD  NAG B   2       0.302  24.526  -3.7830  0.00  0.00     0.000 HD
BRANCH 18 30
ATOM     28   N  NAG B   2       1.985  23.602   1.6440  0.00  0.00     0.000 N
ATOM     30  HD  NAG B   2       2.286  24.227   2.1620  0.00  0.00     0.000 HD
ATOM     30   C  NAG B   2       2.651  23.574   2.8040  0.00  0.00     0.000 C
ATOM     31   C  NAG B   2       2.853  22.236   3.4590  0.00  0.00     0.000 C
ATOM     32   O  NAG B   2       3.084  24.585   3.3200  0.00  0.00     0.000 OA
ENDBRANCH 18 30
BRANCH 17 33
ATOM     33  O4  GCU B   3      -0.220  23.503   1.2520  0.00  0.00     0.000 O
BRANCH 33 37
ATOM     34  C1  GCU B   3      -3.735  22.576   3.2810  0.00  0.00     0.000 C
ATOM     35  C2  GCU B   3      -3.715  22.372   1.7660  0.00  0.00     0.000 C
ATOM     36  C3  GCU B   3      -2.283  22.343   1.2770  0.00  0.00     0.000 C
ATOM     37  C4  GCU B   3      -1.564  23.607   1.7260  0.00  0.00     0.000 C
ATOM     38  C5  GCU B   3      -1.633  23.724   3.2500  0.00  0.00     0.000 C
ATOM     39  O5  GCU B   3      -3.009  23.754   3.6430  0.00  0.00     0.000 O
ATOM     40   O  GCU B   3      -4.368  21.138   1.4560  0.00  0.00     0.000 O
ATOM     42  HD  GCU B   3      -4.269  20.406   1.0050  0.00  0.00     0.000 HD
ATOM     42   O  GCU B   3      -2.227  22.225  -0.1560  0.00  0.00     0.000 O
ATOM     44  HD  GCU B   3      -2.128  21.492  -0.6070  0.00  0.00     0.000 HD
BRANCH 38 44
ATOM     44   C  GCU B   3      -0.961  24.971   3.7690  0.00  0.00     0.000 C
ATOM     45   O  GCU B   3      -1.427  26.074   3.4480  0.00  0.00     0.000 OA
ATOM     46   O  GCU B   3       0.038  24.873   4.5070  0.00  0.00     0.000 OA
ENDBRANCH 38 44
BRANCH 34 47
ATOM     47  O3  NAG B   4      -4.983  22.804   3.6650  0.00  0.00     0.000 O
BRANCH 47 50
ATOM     48  C1  NAG B   4      -8.074  24.829   3.3480  0.00  0.00     0.000 C
ATOM     49  C2  NAG B   4      -6.590  24.538   3.5410  0.00  0.00     0.000 C
ATOM     50  C3  NAG B   4      -6.226  23.145   3.0540  0.00  0.00     0.000 C
ATOM     51  C4  NAG B   4      -7.272  22.078   3.3980  0.00  0.00     0.000 C
ATOM     52  C5  NAG B   4      -8.622  22.413   2.7860  0.00  0.00     0.000 C
ATOM     53  O5  NAG B   4      -8.984  23.808   2.8870  0.00  0.00     0.000 O
BRANCH 49 56
ATOM     54   N  NAG B   4      -6.080  25.276   2.3730  0.00  0.00     0.000 N
ATOM     56  HD  NAG B   4      -6.211  25.064   1.5440  0.00  0.00     0.000 HD
ATOM     56   C  NAG B   4      -4.869  26.949   1.0970  0.00  0.00     0.000 C
ATOM     57   O  NAG B   4      -4.606  26.662   3.4100  0.00  0.00     0.000 OA
ATOM     58   C  NAG B   4      -5.172  26.273   2.3990  0.00  0.00     0.000 C
ENDBRANCH 49 56
ATOM     59   O  NAG B   4     -10.922  21.523   2.6710  0.00  0.00     0.000 O
ATOM     61  HD  NAG B   4     -10.346  22.040   3.0600  0.00  0.00     0.000 HD
ATOM     61   O  NAG B   4     -10.922  21.523   2.6710  0.00  0.00     0.000 O
ATOM     63  HD  NAG B   4     -10.346  22.040   3.0600  0.00  0.00     0.000 HD
ENDBRANCH 47 50
ENDBRANCH 34 47
ENDBRANCH 33 37
ENDBRANCH 17 33
ENDBRANCH 16 19
ENDBRANCH 1 16
TORSDOF 10
ENDMDL
MODEL 13
REMARK VINA RESULT:      -8.7     29.436     33.045
ROOT
ATOM      1  C1  GCU B   1     -14.850  50.154   6.8580  0.00  0.00     0.000 C
ATOM      2  C2  GCU B   1     -13.612  49.952   7.7190  0.00  0.00     0.000 C
ATOM      3  C3  GCU B   1     -14.004  49.496   9.1160  0.00  0.00     0.000 C
ATOM      4  C4  GCU B   1     -15.053  50.430   9.6980  0.00  0.00     0.000 C
ATOM      5  C5  GCU B   1     -16.224  50.613   8.7320  0.00  0.00     0.000 C
ATOM      6  O5  GCU B   1     -15.728  51.106   7.4800  0.00  0.00     0.000 O
ATOM      7   O  GCU B   1     -12.795  48.976   7.0800  0.00  0.00     0.000 O
ATOM      9  HD  GCU B   1     -11.955  49.061   6.8860  0.00  0.00     0.000 HD
ATOM      9   O  GCU B   1     -12.860  49.459   9.9730  0.00  0.00     0.000 O
ATOM     11  HD  GCU B   1     -12.020  49.543   9.7790  0.00  0.00     0.000 HD
ATOM     11   O  GCU B   1     -15.524  49.883  10.9310  0.00  0.00     0.000 O
ATOM     13  HD  GCU B   1     -14.685  49.967  10.7370  0.00  0.00     0.000 HD
ENDROOT
BRANCH 5 13
ATOM     13   C  GCU B   1     -17.255  51.532   9.3410  0.00  0.00     0.000 C
ATOM     14   O  GCU B   1     -16.901  52.563   9.9490  0.00  0.00     0.000 OA
ATOM     15   O  GCU B   1     -18.455  51.231   9.1870  0.00  0.00     0.000 OA
ENDBRANCH 5 13
BRANCH 1 16
ATOM     16  O3  NAG B   2     -14.983  50.957   5.8010  0.00  0.00     0.000 O
BRANCH 16 19
ATOM     17  C1  NAG B   2     -16.792  50.253   2.5660  0.00  0.00     0.000 C
ATOM     18  C2  NAG B   2     -15.851  49.990   3.7350  0.00  0.00     0.000 C
ATOM     19  C3  NAG B   2     -15.989  51.092   4.7840  0.00  0.00     0.000 C
ATOM     20  C4  NAG B   2     -15.829  52.467   4.1370  0.00  0.00     0.000 C
ATOM     21  C5  NAG B   2     -16.819  52.616   2.9910  0.00  0.00     0.000 C
ATOM     22  O5  NAG B   2     -16.582  51.570   2.0320  0.00  0.00     0.000 O
ATOM     23   O  NAG B   2     -16.043  53.466   5.1410  0.00  0.00     0.000 O
ATOM     25  HD  NAG B   2     -15.240  53.388   4.8260  0.00  0.00     0.000 HD
ATOM     25   C  NAG B   2     -16.727  53.977   2.3040  0.00  0.00     0.000 C
ATOM     26   O  NAG B   2     -15.544  54.086   1.4980  0.00  0.00     0.000 O
ATOM     28  HD  NAG B   2     -14.741  54.008   1.1830  0.00  0.00     0.000 HD
BRANCH 18 30
ATOM     28   N  NAG B   2     -15.028  48.806   3.5730  0.00  0.00     0.000 N
ATOM     30  HD  NAG B   2     -15.711  48.514   4.0200  0.00  0.00     0.000 HD
ATOM     30   C  NAG B   2     -15.297  47.628   4.1490  0.00  0.00     0.000 C
ATOM     31   C  NAG B   2     -14.324  46.504   3.9220  0.00  0.00     0.000 C
ATOM     32   O  NAG B   2     -16.286  47.459   4.8340  0.00  0.00     0.000 OA
ENDBRANCH 18 30
BRANCH 17 33
ATOM     33  O4  GCU B   3     -16.589  49.204   1.5980  0.00  0.00     0.000 O
BRANCH 33 37
ATOM     34  C1  GCU B   3     -19.295  47.638  -1.1500  0.00  0.00     0.000 C
ATOM     35  C2  GCU B   3     -18.206  48.571  -1.6790  0.00  0.00     0.000 C
ATOM     36  C3  GCU B   3     -17.097  48.689  -0.6550  0.00  0.00     0.000 C
ATOM     37  C4  GCU B   3     -17.680  49.135   0.6790  0.00  0.00     0.000 C
ATOM     38  C5  GCU B   3     -18.755  48.144   1.1280  0.00  0.00     0.000 C
ATOM     39  O5  GCU B   3     -19.771  48.087   0.1220  0.00  0.00     0.000 O
ATOM     40   O  GCU B   3     -17.693  48.037  -2.9020  0.00  0.00     0.000 O
ATOM     42  HD  GCU B   3     -16.953  47.838  -3.3060  0.00  0.00     0.000 HD
ATOM     42   O  GCU B   3     -16.087  49.617  -1.0890  0.00  0.00     0.000 O
ATOM     44  HD  GCU B   3     -15.347  49.418  -1.4930  0.00  0.00     0.000 HD
BRANCH 38 44
ATOM     44   C  GCU B   3     -19.398  48.536   2.4350  0.00  0.00     0.000 C
ATOM     45   O  GCU B   3     -20.029  49.602   2.4900  0.00  0.00     0.000 OA
ATOM     46   O  GCU B   3     -19.288  47.789   3.4260  0.00  0.00     0.000 OA
ENDBRANCH 38 44
BRANCH 34 47
ATOM     47  O3  NAG B   4     -20.345  47.705  -1.9570  0.00  0.00     0.000 O
BRANCH 47 50
ATOM     48  C1  NAG B   4     -23.397  46.926  -3.9140  0.00  0.00     0.000 C
ATOM     49  C2  NAG B   4     -22.027  47.524  -3.6120  0.00  0.00     0.000 C
ATOM     50  C3  NAG B   4     -21.361  46.827  -2.4370  0.00  0.00     0.000 C
ATOM     51  C4  NAG B   4     -22.324  46.489  -1.2930  0.00  0.00     0.000 C
ATOM     52  C5  NAG B   4     -23.441  45.573  -1.7650  0.00  0.00     0.000 C
ATOM     53  O5  NAG B   4     -23.983  45.922  -3.0570  0.00  0.00     0.000 O
BRANCH 49 56
ATOM     54   N  NAG B   4     -21.410  46.883  -4.7860  0.00  0.00     0.000 N
ATOM     56  HD  NAG B   4     -21.599  46.094  -5.0890  0.00  0.00     0.000 HD
ATOM     56   C  NAG B   4     -19.926  46.568  -6.6810  0.00  0.00     0.000 C
ATOM     57   O  NAG B   4     -19.673  48.308  -5.1300  0.00  0.00     0.000 OA
ATOM     58   C  NAG B   4     -20.326  47.327  -5.4530  0.00  0.00     0.000 C
ENDBRANCH 49 56
ATOM     59   O  NAG B   4     -25.458  44.445  -0.8980  0.00  0.00     0.000 O
ATOM     61  HD  NAG B   4     -25.103  45.132  -1.2880  0.00  0.00     0.000 HD
ATOM     61   O  NAG B   4     -25.458  44.445  -0.8980  0.00  0.00     0.000 O
ATOM     63  HD  NAG B   4     -25.103  45.132  -1.2880  0.00  0.00     0.000 HD
ENDBRANCH 47 50
ENDBRANCH 34 47
ENDBRANCH 33 37
ENDBRANCH 17 33
ENDBRANCH 16 19
ENDBRANCH 1 16
TORSDOF 10
ENDMDL
MODEL 14
REMARK VINA RESULT:      -8.6      9.866     13.609
ROOT
ATOM      1  C1  GCU B   1       5.183  26.550   0.0640  0.00  0.00     0.000 C
ATOM      2  C2  GCU B   1       6.589  26.126  -0.3340  0.00  0.00     0.000 C
ATOM      3  C3  GCU B   1       7.605  26.644   0.6710  0.00  0.00     0.000 C
ATOM      4  C4  GCU B   1       7.416  28.138   0.8880  0.00  0.00     0.000 C
ATOM      5  C5  GCU B   1       5.959  28.465   1.2220  0.00  0.00     0.000 C
ATOM      6  O5  GCU B   1       5.116  27.981   0.1680  0.00  0.00     0.000 O
ATOM      7   O  GCU B   1       6.612  24.703  -0.3870  0.00  0.00     0.000 O
ATOM      9  HD  GCU B   1       6.888  24.221  -1.0520  0.00  0.00     0.000 HD
ATOM      9   O  GCU B   1       8.937  26.386   0.2200  0.00  0.00     0.000 O
ATOM     11  HD  GCU B   1       9.213  25.904  -0.4440  0.00  0.00     0.000 HD
ATOM     11   O  GCU B   1       8.264  28.561   1.9560  0.00  0.00     0.000 O
ATOM     13  HD  GCU B   1       8.539  28.079   1.2920  0.00  0.00     0.000 HD
ENDROOT
BRANCH 5 13
ATOM     13   C  GCU B   1       5.804  29.950   1.4450  0.00  0.00     0.000 C
ATOM     14   O  GCU B   1       6.268  30.486   2.4720  0.00  0.00     0.000 OA
ATOM     15   O  GCU B   1       5.227  30.607   0.5560  0.00  0.00     0.000 OA
ENDBRANCH 5 13
BRANCH 1 16
ATOM     16  O3  NAG B   2       4.127  26.715  -0.7350  0.00  0.00     0.000 O
BRANCH 16 19
ATOM     17  C1  NAG B   2       0.754  25.407   0.3310  0.00  0.00     0.000 C
ATOM     18  C2  NAG B   2       2.274  25.481   0.2630  0.00  0.00     0.000 C
ATOM     19  C3  NAG B   2       2.709  26.726  -0.5070  0.00  0.00     0.000 C
ATOM     20  C4  NAG B   2       2.010  26.783  -1.8650  0.00  0.00     0.000 C
ATOM     21  C5  NAG B   2       0.502  26.706  -1.6720  0.00  0.00     0.000 C
ATOM     22  O5  NAG B   2       0.183  25.483  -0.9850  0.00  0.00     0.000 O
ATOM     23   O  NAG B   2       2.387  28.002  -2.5160  0.00  0.00     0.000 O
ATOM     25  HD  NAG B   2       2.677  27.263  -2.8620  0.00  0.00     0.000 HD
ATOM     25   C  NAG B   2      -0.266  26.773  -2.9910  0.00  0.00     0.000 C
ATOM     26   O  NAG B   2      -0.145  25.553  -3.7380  0.00  0.00     0.000 O
ATOM     28  HD  NAG B   2       0.144  24.814  -4.0850  0.00  0.00     0.000 HD
BRANCH 18 30
ATOM     28   N  NAG B   2       2.561  25.272   1.6700  0.00  0.00     0.000 N
ATOM     30  HD  NAG B   2       3.165  24.796   1.2710  0.00  0.00     0.000 HD
ATOM     30   C  NAG B   2       3.479  24.409   2.1230  0.00  0.00     0.000 C
ATOM     31   C  NAG B   2       3.630  24.271   3.6120  0.00  0.00     0.000 C
ATOM     32   O  NAG B   2       4.168  23.752   1.3690  0.00  0.00     0.000 OA
ENDBRANCH 18 30
BRANCH 17 33
ATOM     33  O4  GCU B   3       0.408  24.197   1.0360  0.00  0.00     0.000 O
BRANCH 33 37
ATOM     34  C1  GCU B   3      -3.189  22.970   2.7350  0.00  0.00     0.000 C
ATOM     35  C2  GCU B   3      -2.996  22.736   1.2360  0.00  0.00     0.000 C
ATOM     36  C3  GCU B   3      -1.525  22.839   0.8930  0.00  0.00     0.000 C
ATOM     37  C4  GCU B   3      -0.981  24.178   1.3710  0.00  0.00     0.000 C
ATOM     38  C5  GCU B   3      -1.216  24.321   2.8760  0.00  0.00     0.000 C
ATOM     39  O5  GCU B   3      -2.621  24.222   3.1290  0.00  0.00     0.000 O
ATOM     40   O  GCU B   3      -3.492  21.438   0.9020  0.00  0.00     0.000 O
ATOM     42  HD  GCU B   3      -3.277  20.709   0.4860  0.00  0.00     0.000 HD
ATOM     42   O  GCU B   3      -1.313  22.696  -0.5230  0.00  0.00     0.000 O
ATOM     44  HD  GCU B   3      -1.098  21.967  -0.9390  0.00  0.00     0.000 HD
BRANCH 38 44
ATOM     44   C  GCU B   3      -0.724  25.639   3.4190  0.00  0.00     0.000 C
ATOM     45   O  GCU B   3      -1.487  26.616   3.3870  0.00  0.00     0.000 OA
ATOM     46   O  GCU B   3       0.427  25.722   3.8880  0.00  0.00     0.000 OA
ENDBRANCH 38 44
BRANCH 34 47
ATOM     47  O3  NAG B   4      -4.486  23.082   2.9860  0.00  0.00     0.000 O
BRANCH 47 50
ATOM     48  C1  NAG B   4      -5.776  23.121   6.4630  0.00  0.00     0.000 C
ATOM     49  C2  NAG B   4      -5.223  23.677   5.1550  0.00  0.00     0.000 C
ATOM     50  C3  NAG B   4      -5.397  22.691   4.0110  0.00  0.00     0.000 C
ATOM     51  C4  NAG B   4      -5.125  21.235   4.4060  0.00  0.00     0.000 C
ATOM     52  C5  NAG B   4      -6.058  20.781   5.5160  0.00  0.00     0.000 C
ATOM     53  O5  NAG B   4      -6.257  21.763   6.5570  0.00  0.00     0.000 O
BRANCH 49 56
ATOM     54   N  NAG B   4      -6.366  24.582   4.9380  0.00  0.00     0.000 N
ATOM     56  HD  NAG B   4      -7.201  24.373   5.0290  0.00  0.00     0.000 HD
ATOM     56   C  NAG B   4      -7.585  26.595   4.3440  0.00  0.00     0.000 C
ATOM     57   O  NAG B   4      -5.296  26.311   3.9210  0.00  0.00     0.000 OA
ATOM     58   C  NAG B   4      -6.312  25.807   4.3780  0.00  0.00     0.000 C
ENDBRANCH 49 56
ATOM     59   O  NAG B   4      -6.525  18.791   6.9010  0.00  0.00     0.000 O
ATOM     61  HD  NAG B   4      -6.107  19.543   6.8010  0.00  0.00     0.000 HD
ATOM     61   O  NAG B   4      -6.525  18.791   6.9010  0.00  0.00     0.000 O
ATOM     63  HD  NAG B   4      -6.107  19.543   6.8010  0.00  0.00     0.000 HD
ENDBRANCH 47 50
ENDBRANCH 34 47
ENDBRANCH 33 37
ENDBRANCH 17 33
ENDBRANCH 16 19
ENDBRANCH 1 16
TORSDOF 10
ENDMDL
MODEL 15
REMARK VINA RESULT:      -8.6     23.750     29.369
ROOT
ATOM      1  C1  GCU B   1      -2.807  53.958   6.3700  0.00  0.00     0.000 C
ATOM      2  C2  GCU B   1      -2.569  55.131   7.3080  0.00  0.00     0.000 C
ATOM      3  C3  GCU B   1      -1.484  54.793   8.3190  0.00  0.00     0.000 C
ATOM      4  C4  GCU B   1      -1.796  53.471   9.0020  0.00  0.00     0.000 C
ATOM      5  C5  GCU B   1      -2.079  52.374   7.9730  0.00  0.00     0.000 C
ATOM      6  O5  GCU B   1      -3.160  52.790   7.1280  0.00  0.00     0.000 O
ATOM      7   O  GCU B   1      -2.188  56.250   6.5130  0.00  0.00     0.000 O
ATOM      9  HD  GCU B   1      -2.548  57.037   6.5320  0.00  0.00     0.000 HD
ATOM      9   O  GCU B   1      -1.368  55.828   9.2990  0.00  0.00     0.000 O
ATOM     11  HD  GCU B   1      -1.729  56.615   9.3180  0.00  0.00     0.000 HD
ATOM     11   O  GCU B   1      -0.683  53.097   9.8140  0.00  0.00     0.000 O
ATOM     13  HD  GCU B   1      -1.043  53.884   9.8330  0.00  0.00     0.000 HD
ENDROOT
BRANCH 5 13
ATOM     13   C  GCU B   1      -2.371  51.071   8.6790  0.00  0.00     0.000 C
ATOM     14   O  GCU B   1      -1.800  50.020   8.3240  0.00  0.00     0.000 OA
ATOM     15   O  GCU B   1      -3.173  51.102   9.6320  0.00  0.00     0.000 OA
ENDBRANCH 5 13
BRANCH 1 16
ATOM     16  O3  NAG B   2      -3.922  53.667   5.6970  0.00  0.00     0.000 O
BRANCH 16 19
ATOM     17  C1  NAG B   2      -4.945  53.737   2.0680  0.00  0.00     0.000 C
ATOM     18  C2  NAG B   2      -4.491  54.296   3.4100  0.00  0.00     0.000 C
ATOM     19  C3  NAG B   2      -4.176  53.158   4.3790  0.00  0.00     0.000 C
ATOM     20  C4  NAG B   2      -5.354  52.189   4.4610  0.00  0.00     0.000 C
ATOM     21  C5  NAG B   2      -5.714  51.695   3.0680  0.00  0.00     0.000 C
ATOM     22  O5  NAG B   2      -6.043  52.827   2.2430  0.00  0.00     0.000 O
ATOM     23   O  NAG B   2      -4.985  51.102   5.3180  0.00  0.00     0.000 O
ATOM     25  HD  NAG B   2      -5.599  51.640   5.6060  0.00  0.00     0.000 HD
ATOM     25   C  NAG B   2      -6.878  50.705   3.0740  0.00  0.00     0.000 C
ATOM     26   O  NAG B   2      -8.130  51.360   3.3320  0.00  0.00     0.000 O
ATOM     28  HD  NAG B   2      -8.744  51.899   3.6200  0.00  0.00     0.000 HD
BRANCH 18 30
ATOM     28   N  NAG B   2      -3.577  55.270   2.8430  0.00  0.00     0.000 N
ATOM     30  HD  NAG B   2      -3.858  55.659   3.5630  0.00  0.00     0.000 HD
ATOM     30   C  NAG B   2      -3.403  56.504   3.3330  0.00  0.00     0.000 C
ATOM     31   C  NAG B   2      -2.452  57.414   2.6070  0.00  0.00     0.000 C
ATOM     32   O  NAG B   2      -3.988  56.887   4.3260  0.00  0.00     0.000 OA
ENDBRANCH 18 30
BRANCH 17 33
ATOM     33  O4  GCU B   3      -5.260  54.855   1.2130  0.00  0.00     0.000 O
BRANCH 33 37
ATOM     34  C1  GCU B   3      -5.615  55.095  -2.9280  0.00  0.00     0.000 C
ATOM     35  C2  GCU B   3      -6.847  54.657  -2.1340  0.00  0.00     0.000 C
ATOM     36  C3  GCU B   3      -6.672  55.033  -0.6780  0.00  0.00     0.000 C
ATOM     37  C4  GCU B   3      -5.371  54.444  -0.1500  0.00  0.00     0.000 C
ATOM     38  C5  GCU B   3      -4.200  54.938  -1.0020  0.00  0.00     0.000 C
ATOM     39  O5  GCU B   3      -4.424  54.543  -2.3590  0.00  0.00     0.000 O
ATOM     40   O  GCU B   3      -8.001  55.302  -2.6760  0.00  0.00     0.000 O
ATOM     42  HD  GCU B   3      -8.697  55.765  -2.4480  0.00  0.00     0.000 HD
ATOM     42   O  GCU B   3      -7.781  54.571   0.1130  0.00  0.00     0.000 O
ATOM     44  HD  GCU B   3      -8.477  55.034   0.3410  0.00  0.00     0.000 HD
BRANCH 38 44
ATOM     44   C  GCU B   3      -2.875  54.374  -0.5520  0.00  0.00     0.000 C
ATOM     45   O  GCU B   3      -2.109  55.102   0.0960  0.00  0.00     0.000 OA
ATOM     46   O  GCU B   3      -2.577  53.198  -0.8340  0.00  0.00     0.000 OA
ENDBRANCH 38 44
BRANCH 34 47
ATOM     47  O3  NAG B   4      -5.688  54.580  -4.1470  0.00  0.00     0.000 O
BRANCH 47 50
ATOM     48  C1  NAG B   4      -4.591  53.965  -7.6360  0.00  0.00     0.000 C
ATOM     49  C2  NAG B   4      -5.143  54.741  -6.4450  0.00  0.00     0.000 C
ATOM     50  C3  NAG B   4      -4.788  54.069  -5.1280  0.00  0.00     0.000 C
ATOM     51  C4  NAG B   4      -4.893  52.540  -5.1680  0.00  0.00     0.000 C
ATOM     52  C5  NAG B   4      -3.968  51.951  -6.2200  0.00  0.00     0.000 C
ATOM     53  O5  NAG B   4      -3.947  52.685  -7.4640  0.00  0.00     0.000 O
BRANCH 49 56
ATOM     54   N  NAG B   4      -4.109  55.791  -6.4550  0.00  0.00     0.000 N
ATOM     56  HD  NAG B   4      -3.255  55.660  -6.3970  0.00  0.00     0.000 HD
ATOM     56   C  NAG B   4      -3.132  58.012  -6.4870  0.00  0.00     0.000 C
ATOM     57   O  NAG B   4      -5.425  57.625  -6.1880  0.00  0.00     0.000 OA
ATOM     58   C  NAG B   4      -4.326  57.118  -6.3560  0.00  0.00     0.000 C
ENDBRANCH 49 56
ATOM     59   O  NAG B   4      -3.322  49.762  -7.1620  0.00  0.00     0.000 O
ATOM     61  HD  NAG B   4      -3.827  50.465  -7.1990  0.00  0.00     0.000 HD
ATOM     61   O  NAG B   4      -3.322  49.762  -7.1620  0.00  0.00     0.000 O
ATOM     63  HD  NAG B   4      -3.827  50.465  -7.1990  0.00  0.00     0.000 HD
ENDBRANCH 47 50
ENDBRANCH 34 47
ENDBRANCH 33 37
ENDBRANCH 17 33
ENDBRANCH 16 19
ENDBRANCH 1 16
TORSDOF 10
ENDMDL
MODEL 16
REMARK VINA RESULT:      -8.6     29.299     32.978
ROOT
ATOM      1  C1  GCU B   1     -15.065  50.142   6.5520  0.00  0.00     0.000 C
ATOM      2  C2  GCU B   1     -13.763  49.872   7.2910  0.00  0.00     0.000 C
ATOM      3  C3  GCU B   1     -14.045  49.422   8.7160  0.00  0.00     0.000 C
ATOM      4  C4  GCU B   1     -14.987  50.400   9.4000  0.00  0.00     0.000 C
ATOM      5  C5  GCU B   1     -16.233  50.649   8.5480  0.00  0.00     0.000 C
ATOM      6  O5  GCU B   1     -15.832  51.129   7.2580  0.00  0.00     0.000 O
ATOM      7   O  GCU B   1     -13.059  48.863   6.5730  0.00  0.00     0.000 O
ATOM      9  HD  GCU B   1     -12.238  48.908   6.3020  0.00  0.00     0.000 HD
ATOM      9   O  GCU B   1     -12.829  49.320   9.4620  0.00  0.00     0.000 O
ATOM     11  HD  GCU B   1     -12.007  49.365   9.1900  0.00  0.00     0.000 HD
ATOM     11   O  GCU B   1     -15.367  49.866  10.6680  0.00  0.00     0.000 O
ATOM     13  HD  GCU B   1     -14.546  49.911  10.3970  0.00  0.00     0.000 HD
ENDROOT
BRANCH 5 13
ATOM     13   C  GCU B   1     -17.156  51.612   9.2570  0.00  0.00     0.000 C
ATOM     14   O  GCU B   1     -16.720  52.354  10.1610  0.00  0.00     0.000 OA
ATOM     15   O  GCU B   1     -18.344  51.649   8.8830  0.00  0.00     0.000 OA
ENDBRANCH 5 13
BRANCH 1 16
ATOM     16  O3  NAG B   2     -15.257  50.960   5.5150  0.00  0.00     0.000 O
BRANCH 16 19
ATOM     17  C1  NAG B   2     -17.064  50.070   2.3260  0.00  0.00     0.000 C
ATOM     18  C2  NAG B   2     -16.125  49.875   3.5100  0.00  0.00     0.000 C
ATOM     19  C3  NAG B   2     -16.261  51.038   4.4910  0.00  0.00     0.000 C
ATOM     20  C4  NAG B   2     -16.094  52.371   3.7620  0.00  0.00     0.000 C
ATOM     21  C5  NAG B   2     -17.083  52.454   2.6080  0.00  0.00     0.000 C
ATOM     22  O5  NAG B   2     -16.848  51.351   1.7140  0.00  0.00     0.000 O
ATOM     23   O  NAG B   2     -16.306  53.429   4.7030  0.00  0.00     0.000 O
ATOM     25  HD  NAG B   2     -15.503  53.329   4.3950  0.00  0.00     0.000 HD
ATOM     25   C  NAG B   2     -16.985  53.771   1.8410  0.00  0.00     0.000 C
ATOM     26   O  NAG B   2     -15.800  53.827   1.0310  0.00  0.00     0.000 O
ATOM     28  HD  NAG B   2     -14.997  53.727   0.7230  0.00  0.00     0.000 HD
BRANCH 18 30
ATOM     28   N  NAG B   2     -15.276  48.699   3.4710  0.00  0.00     0.000 N
ATOM     30  HD  NAG B   2     -15.992  48.412   3.8650  0.00  0.00     0.000 HD
ATOM     30   C  NAG B   2     -15.581  47.539   4.0660  0.00  0.00     0.000 C
ATOM     31   C  NAG B   2     -14.577  46.424   3.9740  0.00  0.00     0.000 C
ATOM     32   O  NAG B   2     -16.626  47.381   4.6650  0.00  0.00     0.000 OA
ENDBRANCH 18 30
BRANCH 17 33
ATOM     33  O4  GCU B   3     -16.863  48.963   1.4240  0.00  0.00     0.000 O
BRANCH 33 37
ATOM     34  C1  GCU B   3     -19.188  47.702  -1.7920  0.00  0.00     0.000 C
ATOM     35  C2  GCU B   3     -17.970  48.576  -2.0950  0.00  0.00     0.000 C
ATOM     36  C3  GCU B   3     -17.035  48.575  -0.9050  0.00  0.00     0.000 C
ATOM     37  C4  GCU B   3     -17.795  49.008   0.3420  0.00  0.00     0.000 C
ATOM     38  C5  GCU B   3     -18.989  48.078   0.5660  0.00  0.00     0.000 C
ATOM     39  O5  GCU B   3     -19.832  48.133  -0.5890  0.00  0.00     0.000 O
ATOM     40   O  GCU B   3     -17.303  48.056  -3.2480  0.00  0.00     0.000 O
ATOM     42  HD  GCU B   3     -16.522  47.822  -3.5390  0.00  0.00     0.000 HD
ATOM     42   O  GCU B   3     -15.912  49.446  -1.1270  0.00  0.00     0.000 O
ATOM     44  HD  GCU B   3     -15.131  49.212  -1.4190  0.00  0.00     0.000 HD
BRANCH 38 44
ATOM     44   C  GCU B   3     -19.807  48.462   1.7730  0.00  0.00     0.000 C
ATOM     45   O  GCU B   3     -20.510  49.482   1.7140  0.00  0.00     0.000 OA
ATOM     46   O  GCU B   3     -19.765  47.755   2.7980  0.00  0.00     0.000 OA
ENDBRANCH 38 44
BRANCH 34 47
ATOM     47  O3  NAG B   4     -20.087  47.875  -2.7490  0.00  0.00     0.000 O
BRANCH 47 50
ATOM     48  C1  NAG B   4     -21.707  48.577  -6.0110  0.00  0.00     0.000 C
ATOM     49  C2  NAG B   4     -21.298  48.802  -4.5590  0.00  0.00     0.000 C
ATOM     50  C3  NAG B   4     -20.108  47.939  -4.1740  0.00  0.00     0.000 C
ATOM     51  C4  NAG B   4     -20.164  46.519  -4.7480  0.00  0.00     0.000 C
ATOM     52  C5  NAG B   4     -20.213  46.539  -6.2660  0.00  0.00     0.000 C
ATOM     53  O5  NAG B   4     -21.086  47.551  -6.8150  0.00  0.00     0.000 O
BRANCH 49 56
ATOM     54   N  NAG B   4     -20.654  50.097  -4.8400  0.00  0.00     0.000 N
ATOM     56  HD  NAG B   4     -20.129  50.267  -5.5070  0.00  0.00     0.000 HD
ATOM     56   C  NAG B   4     -19.984  52.411  -4.5390  0.00  0.00     0.000 C
ATOM     57   O  NAG B   4     -21.067  51.162  -2.8750  0.00  0.00     0.000 OA
ATOM     58   C  NAG B   4     -20.612  51.158  -4.0090  0.00  0.00     0.000 C
ENDBRANCH 49 56
ATOM     59   O  NAG B   4     -20.337  44.981  -8.1780  0.00  0.00     0.000 O
ATOM     61  HD  NAG B   4     -20.746  45.484  -7.6030  0.00  0.00     0.000 HD
ATOM     61   O  NAG B   4     -20.337  44.981  -8.1780  0.00  0.00     0.000 O
ATOM     63  HD  NAG B   4     -20.746  45.484  -7.6030  0.00  0.00     0.000 HD
ENDBRANCH 47 50
ENDBRANCH 34 47
ENDBRANCH 33 37
ENDBRANCH 17 33
ENDBRANCH 16 19
ENDBRANCH 1 16
TORSDOF 10
ENDMDL
MODEL 17
REMARK VINA RESULT:      -8.6      1.706      2.058
ROOT
ATOM      1  C1  GCU B   1       7.872  29.178 -13.9340  0.00  0.00     0.000 C
ATOM      2  C2  GCU B   1       8.952  30.118 -14.4460  0.00  0.00     0.000 C
ATOM      3  C3  GCU B   1       8.878  30.241 -15.9600  0.00  0.00     0.000 C
ATOM      4  C4  GCU B   1       8.864  28.861 -16.5990  0.00  0.00     0.000 C
ATOM      5  C5  GCU B   1       7.784  27.976 -15.9730  0.00  0.00     0.000 C
ATOM      6  O5  GCU B   1       8.007  27.892 -14.5590  0.00  0.00     0.000 O
ATOM      7   O  GCU B   1       8.752  31.385 -13.8260  0.00  0.00     0.000 O
ATOM      9  HD  GCU B   1       9.348  31.843 -13.3970  0.00  0.00     0.000 HD
ATOM      9   O  GCU B   1       9.985  30.994 -16.4590  0.00  0.00     0.000 O
ATOM     11  HD  GCU B   1      10.582  31.453 -16.0300  0.00  0.00     0.000 HD
ATOM     11   O  GCU B   1       8.621  29.003 -17.9990  0.00  0.00     0.000 O
ATOM     13  HD  GCU B   1       9.217  29.462 -17.5700  0.00  0.00     0.000 HD
ENDROOT
BRANCH 5 13
ATOM     13   C  GCU B   1       7.784  26.619 -16.6360  0.00  0.00     0.000 C
ATOM     14   O  GCU B   1       8.784  26.229 -17.2740  0.00  0.00     0.000 OA
ATOM     15   O  GCU B   1       6.769  25.911 -16.4930  0.00  0.00     0.000 OA
ENDBRANCH 5 13
BRANCH 1 16
ATOM     16  O3  NAG B   2       7.884  28.459 -12.8100  0.00  0.00     0.000 O
BRANCH 16 19
ATOM     17  C1  NAG B   2       5.750  28.492  -9.7000  0.00  0.00     0.000 C
ATOM     18  C2  NAG B   2       6.696  29.042 -10.7600  0.00  0.00     0.000 C
ATOM     19  C3  NAG B   2       6.860  28.035 -11.8970  0.00  0.00     0.000 C
ATOM     20  C4  NAG B   2       7.252  26.666 -11.3440  0.00  0.00     0.000 C
ATOM     21  C5  NAG B   2       6.236  26.220 -10.3020  0.00  0.00     0.000 C
ATOM     22  O5  NAG B   2       6.187  27.200  -9.2500  0.00  0.00     0.000 O
ATOM     23   O  NAG B   2       7.317  25.740 -12.4350  0.00  0.00     0.000 O
ATOM     25  HD  NAG B   2       8.064  25.946 -12.0470  0.00  0.00     0.000 HD
ATOM     25   C  NAG B   2       6.557  24.847  -9.7150  0.00  0.00     0.000 C
ATOM     26   O  NAG B   2       7.678  24.901  -8.8200  0.00  0.00     0.000 O
ATOM     28  HD  NAG B   2       8.425  25.108  -8.4320  0.00  0.00     0.000 HD
BRANCH 18 30
ATOM     28   N  NAG B   2       6.088  30.357 -10.8290  0.00  0.00     0.000 N
ATOM     30  HD  NAG B   2       6.926  30.519 -10.9710  0.00  0.00     0.000 HD
ATOM     30   C  NAG B   2       6.782  31.495 -10.9450  0.00  0.00     0.000 C
ATOM     31   C  NAG B   2       6.010  32.784 -10.9590  0.00  0.00     0.000 C
ATOM     32   O  NAG B   2       7.994  31.500 -11.0350  0.00  0.00     0.000 OA
ENDBRANCH 18 30
BRANCH 17 33
ATOM     33  O4  GCU B   3       5.666  29.468  -8.6420  0.00  0.00     0.000 O
BRANCH 33 37
ATOM     34  C1  GCU B   3       2.802  29.934  -5.6570  0.00  0.00     0.000 C
ATOM     35  C2  GCU B   3       4.063  29.143  -5.3130  0.00  0.00     0.000 C
ATOM     36  C3  GCU B   3       5.141  29.436  -6.3350  0.00  0.00     0.000 C
ATOM     37  C4  GCU B   3       4.611  29.151  -7.7330  0.00  0.00     0.000 C
ATOM     38  C5  GCU B   3       3.355  29.986  -7.9880  0.00  0.00     0.000 C
ATOM     39  O5  GCU B   3       2.379  29.655  -6.9950  0.00  0.00     0.000 O
ATOM     40   O  GCU B   3       4.505  29.520  -4.0070  0.00  0.00     0.000 O
ATOM     42  HD  GCU B   3       5.207  29.775  -3.5690  0.00  0.00     0.000 HD
ATOM     42   O  GCU B   3       6.321  28.651  -6.0830  0.00  0.00     0.000 O
ATOM     44  HD  GCU B   3       7.023  28.906  -5.6450  0.00  0.00     0.000 HD
BRANCH 38 44
ATOM     44   C  GCU B   3       2.757  29.737  -9.3490  0.00  0.00     0.000 C
ATOM     45   O  GCU B   3       2.060  28.724  -9.5150  0.00  0.00     0.000 OA
ATOM     46   O  GCU B   3       2.966  30.545 -10.2740  0.00  0.00     0.000 OA
ENDBRANCH 38 44
BRANCH 34 47
ATOM     47  O3  NAG B   4       1.810  29.515  -4.8850  0.00  0.00     0.000 O
BRANCH 47 50
ATOM     48  C1  NAG B   4      -1.604  28.882  -3.5820  0.00  0.00     0.000 C
ATOM     49  C2  NAG B   4      -0.264  29.590  -3.7450  0.00  0.00     0.000 C
ATOM     50  C3  NAG B   4       0.432  29.178  -5.0320  0.00  0.00     0.000 C
ATOM     51  C4  NAG B   4       0.305  27.684  -5.3520  0.00  0.00     0.000 C
ATOM     52  C5  NAG B   4      -1.152  27.272  -5.4930  0.00  0.00     0.000 C
ATOM     53  O5  NAG B   4      -2.027  27.854  -4.5030  0.00  0.00     0.000 O
BRANCH 49 56
ATOM     54   N  NAG B   4      -0.391  31.058  -3.7230  0.00  0.00     0.000 N
ATOM     56  HD  NAG B   4       0.062  31.597  -3.2200  0.00  0.00     0.000 HD
ATOM     56   C  NAG B   4      -1.239  33.269  -4.2520  0.00  0.00     0.000 C
ATOM     57   O  NAG B   4      -2.301  31.292  -4.9340  0.00  0.00     0.000 OA
ATOM     58   C  NAG B   4      -1.358  31.778  -4.3250  0.00  0.00     0.000 C
ENDBRANCH 49 56
ATOM     59   O  NAG B   4      -2.516  25.266  -5.9450  0.00  0.00     0.000 O
ATOM     61  HD  NAG B   4      -2.143  25.794  -5.3690  0.00  0.00     0.000 HD
ATOM     61   O  NAG B   4      -2.516  25.266  -5.9450  0.00  0.00     0.000 O
ATOM     63  HD  NAG B   4      -2.143  25.794  -5.3690  0.00  0.00     0.000 HD
ENDBRANCH 47 50
ENDBRANCH 34 47
ENDBRANCH 33 37
ENDBRANCH 17 33
ENDBRANCH 16 19
ENDBRANCH 1 16
TORSDOF 10
ENDMDL
MODEL 18
REMARK VINA RESULT:      -8.5      3.318      6.605
ROOT
ATOM      1  C1  GCU B   1       5.609  29.920  -8.4480  0.00  0.00     0.000 C
ATOM      2  C2  GCU B   1       6.944  30.086  -9.1570  0.00  0.00     0.000 C
ATOM      3  C3  GCU B   1       7.100  31.508  -9.6720  0.00  0.00     0.000 C
ATOM      4  C4  GCU B   1       5.879  31.909 -10.4860  0.00  0.00     0.000 C
ATOM      5  C5  GCU B   1       4.589  31.646  -9.7080  0.00  0.00     0.000 C
ATOM      6  O5  GCU B   1       4.536  30.262  -9.3390  0.00  0.00     0.000 O
ATOM      7   O  GCU B   1       7.972  29.772  -8.2230  0.00  0.00     0.000 O
ATOM      9  HD  GCU B   1       8.619  29.209  -8.3450  0.00  0.00     0.000 HD
ATOM      9   O  GCU B   1       8.277  31.627 -10.4750  0.00  0.00     0.000 O
ATOM     11  HD  GCU B   1       8.923  31.064 -10.5970  0.00  0.00     0.000 HD
ATOM     11   O  GCU B   1       5.975  33.296 -10.8100  0.00  0.00     0.000 O
ATOM     13  HD  GCU B   1       6.621  32.733 -10.9310  0.00  0.00     0.000 HD
ENDROOT
BRANCH 5 13
ATOM     13   C  GCU B   1       3.396  32.066 -10.5340  0.00  0.00     0.000 C
ATOM     14   O  GCU B   1       3.241  33.262 -10.8560  0.00  0.00     0.000 OA
ATOM     15   O  GCU B   1       2.606  31.173 -10.8950  0.00  0.00     0.000 OA
ENDBRANCH 5 13
BRANCH 1 16
ATOM     16  O3  NAG B   2       4.908  28.796  -8.2860  0.00  0.00     0.000 O
BRANCH 16 19
ATOM     17  C1  NAG B   2       1.986  27.906  -6.0730  0.00  0.00     0.000 C
ATOM     18  C2  NAG B   2       3.391  28.380  -6.4200  0.00  0.00     0.000 C
ATOM     19  C3  NAG B   2       3.542  28.527  -7.9330  0.00  0.00     0.000 C
ATOM     20  C4  NAG B   2       3.114  27.240  -8.6380  0.00  0.00     0.000 C
ATOM     21  C5  NAG B   2       1.699  26.868  -8.2190  0.00  0.00     0.000 C
ATOM     22  O5  NAG B   2       1.665  26.703  -6.7900  0.00  0.00     0.000 O
ATOM     23   O  NAG B   2       3.198  27.450 -10.0510  0.00  0.00     0.000 O
ATOM     25  HD  NAG B   2       3.763  26.895  -9.7000  0.00  0.00     0.000 HD
ATOM     25   C  NAG B   2       1.197  25.596  -8.8980  0.00  0.00     0.000 C
ATOM     26   O  NAG B   2       1.827  24.423  -8.3600  0.00  0.00     0.000 O
ATOM     28  HD  NAG B   2       2.392  23.868  -8.0090  0.00  0.00     0.000 HD
BRANCH 18 30
ATOM     28   N  NAG B   2       3.406  29.219  -5.2370  0.00  0.00     0.000 N
ATOM     30  HD  NAG B   2       4.231  29.234  -5.5000  0.00  0.00     0.000 HD
ATOM     30   C  NAG B   2       4.521  29.724  -4.6940  0.00  0.00     0.000 C
ATOM     31   C  NAG B   2       4.377  30.540  -3.4400  0.00  0.00     0.000 C
ATOM     32   O  NAG B   2       5.615  29.535  -5.1860  0.00  0.00     0.000 OA
ENDBRANCH 18 30
BRANCH 17 33
ATOM     33  O4  GCU B   3       1.919  27.754  -4.6410  0.00  0.00     0.000 O
BRANCH 33 37
ATOM     34  C1  GCU B   3      -1.303  26.907  -2.1430  0.00  0.00     0.000 C
ATOM     35  C2  GCU B   3      -0.590  25.728  -2.8060  0.00  0.00     0.000 C
ATOM     36  C3  GCU B   3       0.768  26.173  -3.3070  0.00  0.00     0.000 C
ATOM     37  C4  GCU B   3       0.605  27.376  -4.2250  0.00  0.00     0.000 C
ATOM     38  C5  GCU B   3      -0.113  28.501  -3.4770  0.00  0.00     0.000 C
ATOM     39  O5  GCU B   3      -1.387  28.017  -3.0400  0.00  0.00     0.000 O
ATOM     40   O  GCU B   3      -0.444  24.677  -1.8490  0.00  0.00     0.000 O
ATOM     42  HD  GCU B   3       0.141  24.133  -1.5140  0.00  0.00     0.000 HD
ATOM     42   O  GCU B   3       1.438  25.106  -4.0030  0.00  0.00     0.000 O
ATOM     44  HD  GCU B   3       2.022  24.562  -3.6670  0.00  0.00     0.000 HD
BRANCH 38 44
ATOM     44   C  GCU B   3      -0.333  29.722  -4.3350  0.00  0.00     0.000 C
ATOM     45   O  GCU B   3      -1.469  29.934  -4.7860  0.00  0.00     0.000 OA
ATOM     46   O  GCU B   3       0.618  30.491  -4.5710  0.00  0.00     0.000 OA
ENDBRANCH 38 44
BRANCH 34 47
ATOM     47  O3  NAG B   4      -2.559  26.563  -1.8960  0.00  0.00     0.000 O
BRANCH 47 50
ATOM     48  C1  NAG B   4      -5.190  25.850   0.6180  0.00  0.00     0.000 C
ATOM     49  C2  NAG B   4      -3.831  25.762  -0.0680  0.00  0.00     0.000 C
ATOM     50  C3  NAG B   4      -3.596  26.944  -0.9940  0.00  0.00     0.000 C
ATOM     51  C4  NAG B   4      -4.838  27.360  -1.7920  0.00  0.00     0.000 C
ATOM     52  C5  NAG B   4      -5.980  27.751  -0.8690  0.00  0.00     0.000 C
ATOM     53  O5  NAG B   4      -6.140  26.881   0.2730  0.00  0.00     0.000 O
BRANCH 49 56
ATOM     54   N  NAG B   4      -3.078  26.181   1.1270  0.00  0.00     0.000 N
ATOM     56  HD  NAG B   4      -3.273  26.854   1.6370  0.00  0.00     0.000 HD
ATOM     56   C  NAG B   4      -1.331  26.216   2.8110  0.00  0.00     0.000 C
ATOM     57   O  NAG B   4      -1.208  24.917   0.8620  0.00  0.00     0.000 OA
ATOM     58   C  NAG B   4      -1.870  25.719   1.5050  0.00  0.00     0.000 C
ENDBRANCH 49 56
ATOM     59   O  NAG B   4      -8.323  28.521  -0.9780  0.00  0.00     0.000 O
ATOM     61  HD  NAG B   4      -7.760  27.865  -0.9160  0.00  0.00     0.000 HD
ATOM     61   O  NAG B   4      -8.323  28.521  -0.9780  0.00  0.00     0.000 O
ATOM     63  HD  NAG B   4      -7.760  27.865  -0.9160  0.00  0.00     0.000 HD
ENDBRANCH 47 50
ENDBRANCH 34 47
ENDBRANCH 33 37
ENDBRANCH 17 33
ENDBRANCH 16 19
ENDBRANCH 1 16
TORSDOF 10
ENDMDL
MODEL 19
REMARK VINA RESULT:      -8.5     12.995     17.370
ROOT
ATOM      1  C1  GCU B   1      -5.560  27.243   1.9980  0.00  0.00     0.000 C
ATOM      2  C2  GCU B   1      -6.274  28.558   1.7270  0.00  0.00     0.000 C
ATOM      3  C3  GCU B   1      -7.150  28.941   2.9100  0.00  0.00     0.000 C
ATOM      4  C4  GCU B   1      -8.054  27.780   3.2920  0.00  0.00     0.000 C
ATOM      5  C5  GCU B   1      -7.248  26.494   3.4820  0.00  0.00     0.000 C
ATOM      6  O5  GCU B   1      -6.522  26.213   2.2780  0.00  0.00     0.000 O
ATOM      7   O  GCU B   1      -5.280  29.550   1.4930  0.00  0.00     0.000 O
ATOM      9  HD  GCU B   1      -5.239  30.082   0.8110  0.00  0.00     0.000 HD
ATOM      9   O  GCU B   1      -7.943  30.089   2.5980  0.00  0.00     0.000 O
ATOM     11  HD  GCU B   1      -7.903  30.621   1.9160  0.00  0.00     0.000 HD
ATOM     11   O  GCU B   1      -8.737  28.105   4.5040  0.00  0.00     0.000 O
ATOM     13  HD  GCU B   1      -8.696  28.638   3.8210  0.00  0.00     0.000 HD
ENDROOT
BRANCH 5 13
ATOM     13   C  GCU B   1      -8.168  25.363   3.8740  0.00  0.00     0.000 C
ATOM     14   O  GCU B   1      -7.749  24.427   4.5860  0.00  0.00     0.000 OA
ATOM     15   O  GCU B   1      -9.350  25.423   3.4840  0.00  0.00     0.000 OA
ENDBRANCH 5 13
BRANCH 1 16
ATOM     16  O3  NAG B   2      -5.110  26.362   1.1020  0.00  0.00     0.000 O
BRANCH 16 19
ATOM     17  C1  NAG B   2      -1.945  24.320   1.3070  0.00  0.00     0.000 C
ATOM     18  C2  NAG B   2      -2.824  25.561   1.3990  0.00  0.00     0.000 C
ATOM     19  C3  NAG B   2      -4.292  25.186   1.1990  0.00  0.00     0.000 C
ATOM     20  C4  NAG B   2      -4.464  24.379  -0.0870  0.00  0.00     0.000 C
ATOM     21  C5  NAG B   2      -3.543  23.167  -0.0640  0.00  0.00     0.000 C
ATOM     22  O5  NAG B   2      -2.185  23.618   0.0770  0.00  0.00     0.000 O
ATOM     23   O  NAG B   2      -5.837  23.985  -0.1920  0.00  0.00     0.000 O
ATOM     25  HD  NAG B   2      -5.547  24.562  -0.7680  0.00  0.00     0.000 HD
ATOM     25   C  NAG B   2      -3.674  22.302  -1.3160  0.00  0.00     0.000 C
ATOM     26   O  NAG B   2      -3.072  22.929  -2.4590  0.00  0.00     0.000 O
ATOM     28  HD  NAG B   2      -2.782  23.507  -3.0350  0.00  0.00     0.000 HD
BRANCH 18 30
ATOM     28   N  NAG B   2      -1.924  26.111   2.3950  0.00  0.00     0.000 N
ATOM     30  HD  NAG B   2      -2.476  26.761   2.2460  0.00  0.00     0.000 HD
ATOM     30   C  NAG B   2      -1.953  27.385   2.8030  0.00  0.00     0.000 C
ATOM     31   C  NAG B   2      -0.924  27.818   3.8100  0.00  0.00     0.000 C
ATOM     32   O  NAG B   2      -2.773  28.175   2.3800  0.00  0.00     0.000 OA
ENDBRANCH 18 30
BRANCH 17 33
ATOM     33  O4  GCU B   3      -0.576  24.744   1.4670  0.00  0.00     0.000 O
BRANCH 33 37
ATOM     34  C1  GCU B   3       2.821  22.594   2.5490  0.00  0.00     0.000 C
ATOM     35  C2  GCU B   3       2.432  22.609   1.0710  0.00  0.00     0.000 C
ATOM     36  C3  GCU B   3       1.468  23.748   0.8110  0.00  0.00     0.000 C
ATOM     37  C4  GCU B   3       0.276  23.632   1.7500  0.00  0.00     0.000 C
ATOM     38  C5  GCU B   3       0.761  23.628   3.2010  0.00  0.00     0.000 C
ATOM     39  O5  GCU B   3       1.658  22.526   3.3780  0.00  0.00     0.000 O
ATOM     40   O  GCU B   3       3.613  22.772   0.2820  0.00  0.00     0.000 O
ATOM     42  HD  GCU B   3       3.944  23.242  -0.3650  0.00  0.00     0.000 HD
ATOM     42   O  GCU B   3       1.023  23.749  -0.5570  0.00  0.00     0.000 O
ATOM     44  HD  GCU B   3       1.355  24.219  -1.2040  0.00  0.00     0.000 HD
BRANCH 38 44
ATOM     44   C  GCU B   3      -0.368  23.489   4.1910  0.00  0.00     0.000 C
ATOM     45   O  GCU B   3      -0.840  22.361   4.4000  0.00  0.00     0.000 OA
ATOM     46   O  GCU B   3      -0.801  24.499   4.7800  0.00  0.00     0.000 OA
ENDBRANCH 38 44
BRANCH 34 47
ATOM     47  O3  NAG B   4       3.494  21.481   2.8020  0.00  0.00     0.000 O
BRANCH 47 50
ATOM     48  C1  NAG B   4       7.101  20.659   3.0670  0.00  0.00     0.000 C
ATOM     49  C2  NAG B   4       5.854  21.423   2.6340  0.00  0.00     0.000 C
ATOM     50  C3  NAG B   4       4.665  21.099   3.5230  0.00  0.00     0.000 C
ATOM     51  C4  NAG B   4       4.566  19.619   3.9080  0.00  0.00     0.000 C
ATOM     52  C5  NAG B   4       5.807  19.161   4.6580  0.00  0.00     0.000 C
ATOM     53  O5  NAG B   4       7.046  19.662   4.1090  0.00  0.00     0.000 O
BRANCH 49 56
ATOM     54   N  NAG B   4       6.221  22.716   3.2390  0.00  0.00     0.000 N
ATOM     56  HD  NAG B   4       6.347  22.861   4.0840  0.00  0.00     0.000 HD
ATOM     56   C  NAG B   4       6.726  25.084   3.3990  0.00  0.00     0.000 C
ATOM     57   O  NAG B   4       5.865  24.085   1.4600  0.00  0.00     0.000 OA
ATOM     58   C  NAG B   4       6.224  23.911   2.6150  0.00  0.00     0.000 C
ENDBRANCH 49 56
ATOM     59   O  NAG B   4       6.749  17.129   5.6960  0.00  0.00     0.000 O
ATOM     61  HD  NAG B   4       6.679  17.642   5.0020  0.00  0.00     0.000 HD
ATOM     61   O  NAG B   4       6.749  17.129   5.6960  0.00  0.00     0.000 O
ATOM     63  HD  NAG B   4       6.679  17.642   5.0020  0.00  0.00     0.000 HD
ENDBRANCH 47 50
ENDBRANCH 34 47
ENDBRANCH 33 37
ENDBRANCH 17 33
ENDBRANCH 16 19
ENDBRANCH 1 16
TORSDOF 10
ENDMDL
MODEL 20
REMARK VINA RESULT:      -8.4     15.053     21.301
ROOT
ATOM      1  C1  GCU B   1      -5.823  25.402   1.3240  0.00  0.00     0.000 C
ATOM      2  C2  GCU B   1      -5.483  26.403   0.2310  0.00  0.00     0.000 C
ATOM      3  C3  GCU B   1      -5.393  27.808   0.8060  0.00  0.00     0.000 C
ATOM      4  C4  GCU B   1      -6.643  28.128   1.6120  0.00  0.00     0.000 C
ATOM      5  C5  GCU B   1      -6.929  27.032   2.6400  0.00  0.00     0.000 C
ATOM      6  O5  GCU B   1      -7.055  25.774   1.9620  0.00  0.00     0.000 O
ATOM      7   O  GCU B   1      -4.240  26.012  -0.3430  0.00  0.00     0.000 O
ATOM      9  HD  GCU B   1      -4.082  25.893  -1.1860  0.00  0.00     0.000 HD
ATOM      9   O  GCU B   1      -5.232  28.771  -0.2390  0.00  0.00     0.000 O
ATOM     11  HD  GCU B   1      -5.074  28.652  -1.0820  0.00  0.00     0.000 HD
ATOM     11   O  GCU B   1      -6.456  29.377   2.2770  0.00  0.00     0.000 O
ATOM     13  HD  GCU B   1      -6.298  29.258   1.4340  0.00  0.00     0.000 HD
ENDROOT
BRANCH 5 13
ATOM     13   C  GCU B   1      -8.165  27.382   3.4330  0.00  0.00     0.000 C
ATOM     14   O  GCU B   1      -8.359  28.554   3.8150  0.00  0.00     0.000 OA
ATOM     15   O  GCU B   1      -8.981  26.467   3.6590  0.00  0.00     0.000 OA
ENDBRANCH 5 13
BRANCH 1 16
ATOM     16  O3  NAG B   2      -6.432  24.222   1.1860  0.00  0.00     0.000 O
BRANCH 16 19
ATOM     17  C1  NAG B   2      -7.024  21.373   3.5850  0.00  0.00     0.000 C
ATOM     18  C2  NAG B   2      -6.222  22.387   2.7810  0.00  0.00     0.000 C
ATOM     19  C3  NAG B   2      -7.160  23.376   2.0900  0.00  0.00     0.000 C
ATOM     20  C4  NAG B   2      -8.224  22.627   1.2870  0.00  0.00     0.000 C
ATOM     21  C5  NAG B   2      -8.959  21.650   2.1920  0.00  0.00     0.000 C
ATOM     22  O5  NAG B   2      -8.007  20.731   2.7570  0.00  0.00     0.000 O
ATOM     23   O  NAG B   2      -9.122  23.589   0.7230  0.00  0.00     0.000 O
ATOM     25  HD  NAG B   2      -8.614  23.154   0.1730  0.00  0.00     0.000 HD
ATOM     25   C  NAG B   2     -10.052  20.875   1.4580  0.00  0.00     0.000 C
ATOM     26   O  NAG B   2      -9.501  19.883   0.5790  0.00  0.00     0.000 O
ATOM     28  HD  NAG B   2      -8.992  19.448   0.0300  0.00  0.00     0.000 HD
BRANCH 18 30
ATOM     28   N  NAG B   2      -4.811  22.086   2.9260  0.00  0.00     0.000 N
ATOM     30  HD  NAG B   2      -4.920  22.774   3.4410  0.00  0.00     0.000 HD
ATOM     30   C  NAG B   2      -3.951  22.851   3.6100  0.00  0.00     0.000 C
ATOM     31   C  NAG B   2      -2.508  22.430   3.6310  0.00  0.00     0.000 C
ATOM     32   O  NAG B   2      -4.310  23.854   4.1940  0.00  0.00     0.000 OA
ENDBRANCH 18 30
BRANCH 17 33
ATOM     33  O4  GCU B   3      -6.089  20.451   4.1810  0.00  0.00     0.000 O
BRANCH 33 37
ATOM     34  C1  GCU B   3      -6.413  18.063   7.5760  0.00  0.00     0.000 C
ATOM     35  C2  GCU B   3      -6.970  17.510   6.2630  0.00  0.00     0.000 C
ATOM     36  C3  GCU B   3      -6.397  18.292   5.1000  0.00  0.00     0.000 C
ATOM     37  C4  GCU B   3      -6.672  19.776   5.2960  0.00  0.00     0.000 C
ATOM     38  C5  GCU B   3      -6.079  20.238   6.6290  0.00  0.00     0.000 C
ATOM     39  O5  GCU B   3      -6.667  19.467   7.6810  0.00  0.00     0.000 O
ATOM     40   O  GCU B   3      -6.614  16.130   6.1540  0.00  0.00     0.000 O
ATOM     42  HD  GCU B   3      -6.262  15.555   5.6110  0.00  0.00     0.000 HD
ATOM     42   O  GCU B   3      -6.955  17.846   3.8510  0.00  0.00     0.000 O
ATOM     44  HD  GCU B   3      -6.603  17.271   3.3080  0.00  0.00     0.000 HD
BRANCH 38 44
ATOM     44   C  GCU B   3      -6.335  21.698   6.9050  0.00  0.00     0.000 C
ATOM     45   O  GCU B   3      -7.491  22.057   7.1760  0.00  0.00     0.000 OA
ATOM     46   O  GCU B   3      -5.392  22.511   6.8600  0.00  0.00     0.000 OA
ENDBRANCH 38 44
BRANCH 34 47
ATOM     47  O3  NAG B   4      -7.074  17.514   8.5850  0.00  0.00     0.000 O
BRANCH 47 50
ATOM     48  C1  NAG B   4      -7.182  17.071  12.2660  0.00  0.00     0.000 C
ATOM     49  C2  NAG B   4      -7.702  17.365  10.8620  0.00  0.00     0.000 C
ATOM     50  C3  NAG B   4      -6.763  16.826   9.7950  0.00  0.00     0.000 C
ATOM     51  C4  NAG B   4      -5.278  17.020  10.1240  0.00  0.00     0.000 C
ATOM     52  C5  NAG B   4      -4.906  16.323  11.4230  0.00  0.00     0.000 C
ATOM     53  O5  NAG B   4      -5.883  16.478  12.4760  0.00  0.00     0.000 O
BRANCH 49 56
ATOM     54   N  NAG B   4      -8.732  16.358  10.5560  0.00  0.00     0.000 N
ATOM     56  HD  NAG B   4      -8.650  15.706   9.9910  0.00  0.00     0.000 HD
ATOM     56   C  NAG B   4     -10.874  15.216  10.6020  0.00  0.00     0.000 C
ATOM     57   O  NAG B   4     -10.522  17.322  11.5720  0.00  0.00     0.000 OA
ATOM     58   C  NAG B   4     -10.022  16.399  10.9470  0.00  0.00     0.000 C
ENDBRANCH 49 56
ATOM     59   O  NAG B   4      -2.952  15.971  12.8900  0.00  0.00     0.000 O
ATOM     61  HD  NAG B   4      -3.656  16.435  12.6920  0.00  0.00     0.000 HD
ATOM     61   O  NAG B   4      -2.952  15.971  12.8900  0.00  0.00     0.000 O
ATOM     63  HD  NAG B   4      -3.656  16.435  12.6920  0.00  0.00     0.000 HD
ENDBRANCH 47 50
ENDBRANCH 34 47
ENDBRANCH 33 37
ENDBRANCH 17 33
ENDBRANCH 16 19
ENDBRANCH 1 16
TORSDOF 10
ENDMDL
MODEL 21
REMARK VINA RESULT:      -8.4      3.480      5.352
ROOT
ATOM      1  C1  GCU B   1       8.136  31.906  -7.7490  0.00  0.00     0.000 C
ATOM      2  C2  GCU B   1       9.634  31.970  -7.4940  0.00  0.00     0.000 C
ATOM      3  C3  GCU B   1      10.108  33.415  -7.4750  0.00  0.00     0.000 C
ATOM      4  C4  GCU B   1       9.632  34.141  -8.7230  0.00  0.00     0.000 C
ATOM      5  C5  GCU B   1       8.126  33.964  -8.9220  0.00  0.00     0.000 C
ATOM      6  O5  GCU B   1       7.822  32.564  -8.9870  0.00  0.00     0.000 O
ATOM      7   O  GCU B   1       9.887  31.339  -6.2430  0.00  0.00     0.000 O
ATOM      9  HD  GCU B   1      10.460  30.707  -6.0960  0.00  0.00     0.000 HD
ATOM      9   O  GCU B   1      11.535  33.476  -7.3940  0.00  0.00     0.000 O
ATOM     11  HD  GCU B   1      12.108  32.844  -7.2480  0.00  0.00     0.000 HD
ATOM     11   O  GCU B   1       9.942  35.529  -8.5960  0.00  0.00     0.000 O
ATOM     13  HD  GCU B   1      10.516  34.897  -8.4500  0.00  0.00     0.000 HD
ENDROOT
BRANCH 5 13
ATOM     13   C  GCU B   1       7.679  34.706 -10.1590  0.00  0.00     0.000 C
ATOM     14   O  GCU B   1       7.475  34.090 -11.2250  0.00  0.00     0.000 OA
ATOM     15   O  GCU B   1       7.500  35.935 -10.0570  0.00  0.00     0.000 OA
ENDBRANCH 5 13
BRANCH 1 16
ATOM     16  O3  NAG B   2       7.445  30.899  -8.2910  0.00  0.00     0.000 O
BRANCH 16 19
ATOM     17  C1  NAG B   2       4.523  28.927  -6.9510  0.00  0.00     0.000 C
ATOM     18  C2  NAG B   2       5.917  29.540  -6.9600  0.00  0.00     0.000 C
ATOM     19  C3  NAG B   2       6.084  30.459  -8.1690  0.00  0.00     0.000 C
ATOM     20  C4  NAG B   2       5.707  29.721  -9.4540  0.00  0.00     0.000 C
ATOM     21  C5  NAG B   2       4.298  29.158  -9.3300  0.00  0.00     0.000 C
ATOM     22  O5  NAG B   2       4.250  28.270  -8.1990  0.00  0.00     0.000 O
ATOM     23   O  NAG B   2       5.803  30.641 -10.5470  0.00  0.00     0.000 O
ATOM     25  HD  NAG B   2       6.380  29.996 -10.5210  0.00  0.00     0.000 HD
ATOM     25   C  NAG B   2       3.846  28.419 -10.5880  0.00  0.00     0.000 C
ATOM     26   O  NAG B   2       4.505  27.150 -10.7240  0.00  0.00     0.000 O
ATOM     28  HD  NAG B   2       5.083  26.505 -10.6980  0.00  0.00     0.000 HD
BRANCH 18 30
ATOM     28   N  NAG B   2       5.911  29.902  -5.5550  0.00  0.00     0.000 N
ATOM     30  HD  NAG B   2       6.745  29.725  -5.7100  0.00  0.00     0.000 HD
ATOM     30   C  NAG B   2       6.980  29.806  -4.7550  0.00  0.00     0.000 C
ATOM     31   C  NAG B   2       6.804  30.176  -3.3090  0.00  0.00     0.000 C
ATOM     32   O  NAG B   2       8.059  29.432  -5.1700  0.00  0.00     0.000 OA
ENDBRANCH 18 30
BRANCH 17 33
ATOM     33  O4  GCU B   3       4.441  28.047  -5.8120  0.00  0.00     0.000 O
BRANCH 33 37
ATOM     34  C1  GCU B   3       1.155  26.301  -3.9440  0.00  0.00     0.000 C
ATOM     35  C2  GCU B   3       1.694  25.628  -5.2070  0.00  0.00     0.000 C
ATOM     36  C3  GCU B   3       3.096  26.127  -5.4880  0.00  0.00     0.000 C
ATOM     37  C4  GCU B   3       3.092  27.647  -5.5680  0.00  0.00     0.000 C
ATOM     38  C5  GCU B   3       2.541  28.228  -4.2640  0.00  0.00     0.000 C
ATOM     39  O5  GCU B   3       1.216  27.725  -4.0640  0.00  0.00     0.000 O
ATOM     40   O  GCU B   3       1.703  24.213  -5.0100  0.00  0.00     0.000 O
ATOM     42  HD  GCU B   3       2.210  23.515  -5.0830  0.00  0.00     0.000 HD
ATOM     42   O  GCU B   3       3.608  25.569  -6.7120  0.00  0.00     0.000 O
ATOM     44  HD  GCU B   3       4.115  24.871  -6.7850  0.00  0.00     0.000 HD
BRANCH 38 44
ATOM     44   C  GCU B   3       2.483  29.735  -4.2780  0.00  0.00     0.000 C
ATOM     45   O  GCU B   3       3.354  30.369  -3.6620  0.00  0.00     0.000 OA
ATOM     46   O  GCU B   3       1.573  30.313  -4.9040  0.00  0.00     0.000 OA
ENDBRANCH 38 44
BRANCH 34 47
ATOM     47  O3  NAG B   4      -0.134  26.017  -3.8260  0.00  0.00     0.000 O
BRANCH 47 50
ATOM     48  C1  NAG B   4      -3.764  26.548  -4.3730  0.00  0.00     0.000 C
ATOM     49  C2  NAG B   4      -2.363  26.814  -3.8320  0.00  0.00     0.000 C
ATOM     50  C3  NAG B   4      -1.304  26.081  -4.6390  0.00  0.00     0.000 C
ATOM     51  C4  NAG B   4      -1.714  24.663  -5.0540  0.00  0.00     0.000 C
ATOM     52  C5  NAG B   4      -2.974  24.680  -5.9030  0.00  0.00     0.000 C
ATOM     53  O5  NAG B   4      -3.989  25.595  -5.4340  0.00  0.00     0.000 O
BRANCH 49 56
ATOM     54   N  NAG B   4      -2.164  28.145  -4.4310  0.00  0.00     0.000 N
ATOM     56  HD  NAG B   4      -2.093  28.313  -5.2770  0.00  0.00     0.000 HD
ATOM     56   C  NAG B   4      -1.800  30.541  -4.5650  0.00  0.00     0.000 C
ATOM     57   O  NAG B   4      -1.661  29.333  -2.5600  0.00  0.00     0.000 OA
ATOM     58   C  NAG B   4      -1.863  29.277  -3.7640  0.00  0.00     0.000 C
ENDBRANCH 49 56
ATOM     59   O  NAG B   4      -4.500  23.121  -7.0590  0.00  0.00     0.000 O
ATOM     61  HD  NAG B   4      -4.304  23.577  -6.3490  0.00  0.00     0.000 HD
ATOM     61   O  NAG B   4      -4.500  23.121  -7.0590  0.00  0.00     0.000 O
ATOM     63  HD  NAG B   4      -4.304  23.577  -6.3490  0.00  0.00     0.000 HD
ENDBRANCH 47 50
ENDBRANCH 34 47
ENDBRANCH 33 37
ENDBRANCH 17 33
ENDBRANCH 16 19
ENDBRANCH 1 16
TORSDOF 10
ENDMDL
MODEL 22
REMARK VINA RESULT:      -8.4      4.702      7.760
ROOT
ATOM      1  C1  GCU B   1      11.172  30.989  -3.2590  0.00  0.00     0.000 C
ATOM      2  C2  GCU B   1      12.354  30.233  -2.6740  0.00  0.00     0.000 C
ATOM      3  C3  GCU B   1      13.117  31.112  -1.6950  0.00  0.00     0.000 C
ATOM      4  C4  GCU B   1      13.456  32.446  -2.3420  0.00  0.00     0.000 C
ATOM      5  C5  GCU B   1      12.212  33.094  -2.9520  0.00  0.00     0.000 C
ATOM      6  O5  GCU B   1      11.628  32.190  -3.9000  0.00  0.00     0.000 O
ATOM      7   O  GCU B   1      11.847  29.074  -2.0210  0.00  0.00     0.000 O
ATOM      9  HD  GCU B   1      12.112  28.259  -2.1460  0.00  0.00     0.000 HD
ATOM      9   O  GCU B   1      14.316  30.465  -1.2640  0.00  0.00     0.000 O
ATOM     11  HD  GCU B   1      14.581  29.650  -1.3900  0.00  0.00     0.000 HD
ATOM     11   O  GCU B   1      14.015  33.310  -1.3520  0.00  0.00     0.000 O
ATOM     13  HD  GCU B   1      14.280  32.496  -1.4780  0.00  0.00     0.000 HD
ENDROOT
BRANCH 5 13
ATOM     13   C  GCU B   1      12.576  34.421  -3.5740  0.00  0.00     0.000 C
ATOM     14   O  GCU B   1      11.860  35.426  -3.3810  0.00  0.00     0.000 OA
ATOM     15   O  GCU B   1      13.620  34.470  -4.2520  0.00  0.00     0.000 OA
ENDBRANCH 5 13
BRANCH 1 16
ATOM     16  O3  NAG B   2      10.571  30.778  -4.4320  0.00  0.00     0.000 O
BRANCH 16 19
ATOM     17  C1  NAG B   2       6.959  30.066  -5.2550  0.00  0.00     0.000 C
ATOM     18  C2  NAG B   2       8.306  29.880  -4.5690  0.00  0.00     0.000 C
ATOM     19  C3  NAG B   2       9.245  31.031  -4.9230  0.00  0.00     0.000 C
ATOM     20  C4  NAG B   2       9.325  31.207  -6.4390  0.00  0.00     0.000 C
ATOM     21  C5  NAG B   2       7.926  31.388  -7.0110  0.00  0.00     0.000 C
ATOM     22  O5  NAG B   2       7.131  30.238  -6.6710  0.00  0.00     0.000 O
ATOM     23   O  NAG B   2      10.151  32.342  -6.7190  0.00  0.00     0.000 O
ATOM     25  HD  NAG B   2      10.460  31.564  -6.9410  0.00  0.00     0.000 HD
ATOM     25   C  NAG B   2       7.929  31.586  -8.5250  0.00  0.00     0.000 C
ATOM     26   O  NAG B   2       8.219  30.363  -9.2190  0.00  0.00     0.000 O
ATOM     28  HD  NAG B   2       8.528  29.585  -9.4420  0.00  0.00     0.000 HD
BRANCH 18 30
ATOM     28   N  NAG B   2       7.763  29.563  -3.2620  0.00  0.00     0.000 N
ATOM     30  HD  NAG B   2       8.479  29.077  -3.3010  0.00  0.00     0.000 HD
ATOM     30   C  NAG B   2       8.261  28.617  -2.4550  0.00  0.00     0.000 C
ATOM     31   C  NAG B   2       7.559  28.375  -1.1490  0.00  0.00     0.000 C
ATOM     32   O  NAG B   2       9.244  27.970  -2.7580  0.00  0.00     0.000 OA
ENDBRANCH 18 30
BRANCH 17 33
ATOM     33  O4  GCU B   3       6.135  28.934  -4.9120  0.00  0.00     0.000 O
BRANCH 33 37
ATOM     34  C1  GCU B   3       2.044  28.305  -5.3580  0.00  0.00     0.000 C
ATOM     35  C2  GCU B   3       2.885  28.430  -6.6290  0.00  0.00     0.000 C
ATOM     36  C3  GCU B   3       4.347  28.225  -6.2910  0.00  0.00     0.000 C
ATOM     37  C4  GCU B   3       4.759  29.197  -5.1940  0.00  0.00     0.000 C
ATOM     38  C5  GCU B   3       3.867  28.997  -3.9670  0.00  0.00     0.000 C
ATOM     39  O5  GCU B   3       2.506  29.213  -4.3540  0.00  0.00     0.000 O
ATOM     40   O  GCU B   3       2.452  27.445  -7.5700  0.00  0.00     0.000 O
ATOM     42  HD  GCU B   3       2.748  26.821  -8.0920  0.00  0.00     0.000 HD
ATOM     42   O  GCU B   3       5.177  28.408  -7.4520  0.00  0.00     0.000 O
ATOM     44  HD  GCU B   3       5.472  27.784  -7.9750  0.00  0.00     0.000 HD
BRANCH 38 44
ATOM     44   C  GCU B   3       4.202  29.946  -2.8440  0.00  0.00     0.000 C
ATOM     45   O  GCU B   3       4.485  31.121  -3.1240  0.00  0.00     0.000 OA
ATOM     46   O  GCU B   3       4.185  29.540  -1.6660  0.00  0.00     0.000 OA
ENDBRANCH 38 44
BRANCH 34 47
ATOM     47  O3  NAG B   4       0.804  28.688  -5.6280  0.00  0.00     0.000 O
BRANCH 47 50
ATOM     48  C1  NAG B   4      -1.567  28.747  -2.7750  0.00  0.00     0.000 C
ATOM     49  C2  NAG B   4      -0.430  29.216  -3.6780  0.00  0.00     0.000 C
ATOM     50  C3  NAG B   4      -0.490  28.550  -5.0430  0.00  0.00     0.000 C
ATOM     51  C4  NAG B   4      -0.870  27.066  -4.9900  0.00  0.00     0.000 C
ATOM     52  C5  NAG B   4      -2.234  26.869  -4.3490  0.00  0.00     0.000 C
ATOM     53  O5  NAG B   4      -2.464  27.693  -3.1850  0.00  0.00     0.000 O
BRANCH 49 56
ATOM     54   N  NAG B   4      -0.475  30.688  -3.7330  0.00  0.00     0.000 N
ATOM     56  HD  NAG B   4       0.052  31.226  -3.3060  0.00  0.00     0.000 HD
ATOM     56   C  NAG B   4      -1.248  32.914  -4.3160  0.00  0.00     0.000 C
ATOM     57   O  NAG B   4      -2.474  30.969  -4.7770  0.00  0.00     0.000 OA
ATOM     58   C  NAG B   4      -1.454  31.430  -4.2870  0.00  0.00     0.000 C
ENDBRANCH 49 56
ATOM     59   O  NAG B   4      -3.792  25.056  -3.7330  0.00  0.00     0.000 O
ATOM     61  HD  NAG B   4      -3.146  25.586  -3.5080  0.00  0.00     0.000 HD
ATOM     61   O  NAG B   4      -3.792  25.056  -3.7330  0.00  0.00     0.000 O
ATOM     63  HD  NAG B   4      -3.146  25.586  -3.5080  0.00  0.00     0.000 HD
ENDBRANCH 47 50
ENDBRANCH 34 47
ENDBRANCH 33 37
ENDBRANCH 17 33
ENDBRANCH 16 19
ENDBRANCH 1 16
TORSDOF 10
ENDMDL
MODEL 23
REMARK VINA RESULT:      -8.4     14.266     18.947
ROOT
ATOM      1  C1  GCU B   1      -3.688  25.213   1.4270  0.00  0.00     0.000 C
ATOM      2  C2  GCU B   1      -2.487  26.002   1.9260  0.00  0.00     0.000 C
ATOM      3  C3  GCU B   1      -2.924  27.360   2.4530  0.00  0.00     0.000 C
ATOM      4  C4  GCU B   1      -3.783  28.072   1.4200  0.00  0.00     0.000 C
ATOM      5  C5  GCU B   1      -4.924  27.174   0.9390  0.00  0.00     0.000 C
ATOM      6  O5  GCU B   1      -4.374  25.960   0.4100  0.00  0.00     0.000 O
ATOM      7   O  GCU B   1      -1.865  25.238   2.9550  0.00  0.00     0.000 O
ATOM      9  HD  GCU B   1      -1.028  25.022   2.9960  0.00  0.00     0.000 HD
ATOM      9   O  GCU B   1      -1.787  28.165   2.7750  0.00  0.00     0.000 O
ATOM     11  HD  GCU B   1      -0.950  27.949   2.8150  0.00  0.00     0.000 HD
ATOM     11   O  GCU B   1      -4.318  29.261   2.0040  0.00  0.00     0.000 O
ATOM     13  HD  GCU B   1      -3.480  29.045   2.0450  0.00  0.00     0.000 HD
ENDROOT
BRANCH 5 13
ATOM     13   C  GCU B   1      -5.767  27.911  -0.0740  0.00  0.00     0.000 C
ATOM     14   O  GCU B   1      -7.001  27.729  -0.1200  0.00  0.00     0.000 OA
ATOM     15   O  GCU B   1      -5.186  28.715  -0.8280  0.00  0.00     0.000 OA
ENDBRANCH 5 13
BRANCH 1 16
ATOM     16  O3  NAG B   2      -3.701  24.247   0.5070  0.00  0.00     0.000 O
BRANCH 16 19
ATOM     17  C1  NAG B   2      -6.343  21.616  -0.0610  0.00  0.00     0.000 C
ATOM     18  C2  NAG B   2      -5.366  22.477   0.7280  0.00  0.00     0.000 C
ATOM     19  C3  NAG B   2      -4.753  23.546  -0.1740  0.00  0.00     0.000 C
ATOM     20  C4  NAG B   2      -4.163  22.907  -1.4310  0.00  0.00     0.000 C
ATOM     21  C5  NAG B   2      -5.227  22.078  -2.1360  0.00  0.00     0.000 C
ATOM     22  O5  NAG B   2      -5.709  21.070  -1.2290  0.00  0.00     0.000 O
ATOM     23   O  NAG B   2      -3.672  23.950  -2.2800  0.00  0.00     0.000 O
ATOM     25  HD  NAG B   2      -3.085  23.427  -1.9170  0.00  0.00     0.000 HD
ATOM     25   C  NAG B   2      -4.711  21.419  -3.4140  0.00  0.00     0.000 C
ATOM     26   O  NAG B   2      -3.829  20.323  -3.1270  0.00  0.00     0.000 O
ATOM     28  HD  NAG B   2      -3.243  19.800  -2.7650  0.00  0.00     0.000 HD
BRANCH 18 30
ATOM     28   N  NAG B   2      -5.398  21.970   2.0870  0.00  0.00     0.000 N
ATOM     30  HD  NAG B   2      -5.790  22.739   2.1540  0.00  0.00     0.000 HD
ATOM     30   C  NAG B   2      -5.828  22.678   3.1380  0.00  0.00     0.000 C
ATOM     31   C  NAG B   2      -5.757  22.028   4.4920  0.00  0.00     0.000 C
ATOM     32   O  NAG B   2      -6.259  23.807   3.0170  0.00  0.00     0.000 OA
ENDBRANCH 18 30
BRANCH 17 33
ATOM     33  O4  GCU B   3      -6.858  20.609   0.8330  0.00  0.00     0.000 O
BRANCH 33 37
ATOM     34  C1  GCU B   3     -10.595  18.786   1.0360  0.00  0.00     0.000 C
ATOM     35  C2  GCU B   3      -9.624  18.296  -0.0390  0.00  0.00     0.000 C
ATOM     36  C3  GCU B   3      -8.219  18.747   0.3030  0.00  0.00     0.000 C
ATOM     37  C4  GCU B   3      -8.200  20.257   0.4930  0.00  0.00     0.000 C
ATOM     38  C5  GCU B   3      -9.197  20.652   1.5850  0.00  0.00     0.000 C
ATOM     39  O5  GCU B   3     -10.499  20.204   1.1960  0.00  0.00     0.000 O
ATOM     40   O  GCU B   3      -9.683  16.869  -0.1010  0.00  0.00     0.000 O
ATOM     42  HD  GCU B   3      -9.182  16.163  -0.1040  0.00  0.00     0.000 HD
ATOM     42   O  GCU B   3      -7.288  18.365  -0.7250  0.00  0.00     0.000 O
ATOM     44  HD  GCU B   3      -6.787  17.659  -0.7280  0.00  0.00     0.000 HD
BRANCH 38 44
ATOM     44   C  GCU B   3      -9.251  22.141   1.8120  0.00  0.00     0.000 C
ATOM     45   O  GCU B   3      -9.257  22.564   2.9780  0.00  0.00     0.000 OA
ATOM     46   O  GCU B   3      -9.286  22.915   0.8360  0.00  0.00     0.000 OA
ENDBRANCH 38 44
BRANCH 34 47
ATOM     47  O3  NAG B   4     -11.835  18.565   0.6230  0.00  0.00     0.000 O
BRANCH 47 50
ATOM     48  C1  NAG B   4     -15.525  18.203   0.6910  0.00  0.00     0.000 C
ATOM     49  C2  NAG B   4     -14.120  18.236   0.1000  0.00  0.00     0.000 C
ATOM     50  C3  NAG B   4     -13.058  18.083   1.1770  0.00  0.00     0.000 C
ATOM     51  C4  NAG B   4     -13.371  18.851   2.4660  0.00  0.00     0.000 C
ATOM     52  C5  NAG B   4     -14.682  18.387   3.0800  0.00  0.00     0.000 C
ATOM     53  O5  NAG B   4     -15.739  18.171   2.1180  0.00  0.00     0.000 O
BRANCH 49 56
ATOM     54   N  NAG B   4     -14.235  16.875  -0.4500  0.00  0.00     0.000 N
ATOM     56  HD  NAG B   4     -14.625  16.204  -0.0640  0.00  0.00     0.000 HD
ATOM     56   C  NAG B   4     -13.933  15.010  -1.9750  0.00  0.00     0.000 C
ATOM     57   O  NAG B   4     -12.774  17.039  -2.1840  0.00  0.00     0.000 OA
ATOM     58   C  NAG B   4     -13.592  16.402  -1.5360  0.00  0.00     0.000 C
ENDBRANCH 49 56
ATOM     59   O  NAG B   4     -16.140  18.864   5.0130  0.00  0.00     0.000 O
ATOM     61  HD  NAG B   4     -15.938  19.010   4.1840  0.00  0.00     0.000 HD
ATOM     61   O  NAG B   4     -16.140  18.864   5.0130  0.00  0.00     0.000 O
ATOM     63  HD  NAG B   4     -15.938  19.010   4.1840  0.00  0.00     0.000 HD
ENDBRANCH 47 50
ENDBRANCH 34 47
ENDBRANCH 33 37
ENDBRANCH 17 33
ENDBRANCH 16 19
ENDBRANCH 1 16
TORSDOF 10
ENDMDL
MODEL 24
REMARK VINA RESULT:      -8.4     17.269     21.726
ROOT
ATOM      1  C1  GCU B   1      10.059  45.269 -12.1690  0.00  0.00     0.000 C
ATOM      2  C2  GCU B   1      11.480  44.745 -12.0240  0.00  0.00     0.000 C
ATOM      3  C3  GCU B   1      11.716  43.579 -12.9720  0.00  0.00     0.000 C
ATOM      4  C4  GCU B   1      10.620  42.537 -12.8050  0.00  0.00     0.000 C
ATOM      5  C5  GCU B   1       9.234  43.175 -12.9060  0.00  0.00     0.000 C
ATOM      6  O5  GCU B   1       9.120  44.210 -11.9210  0.00  0.00     0.000 O
ATOM      7   O  GCU B   1      12.369  45.819 -12.3150  0.00  0.00     0.000 O
ATOM      9  HD  GCU B   1      13.021  46.092 -11.8150  0.00  0.00     0.000 HD
ATOM      9   O  GCU B   1      12.992  42.982 -12.7280  0.00  0.00     0.000 O
ATOM     11  HD  GCU B   1      13.644  43.255 -12.2280  0.00  0.00     0.000 HD
ATOM     11   O  GCU B   1      10.770  41.543 -13.8190  0.00  0.00     0.000 O
ATOM     13  HD  GCU B   1      11.423  41.816 -13.3190  0.00  0.00     0.000 HD
ENDROOT
BRANCH 5 13
ATOM     13   C  GCU B   1       8.168  42.116 -12.7510  0.00  0.00     0.000 C
ATOM     14   O  GCU B   1       7.125  42.166 -13.4340  0.00  0.00     0.000 OA
ATOM     15   O  GCU B   1       8.390  41.193 -11.9440  0.00  0.00     0.000 OA
ENDBRANCH 5 13
BRANCH 1 16
ATOM     16  O3  NAG B   2       9.334  45.915 -11.2540  0.00  0.00     0.000 O
BRANCH 16 19
ATOM     17  C1  NAG B   2       7.573  49.155 -12.0480  0.00  0.00     0.000 C
ATOM     18  C2  NAG B   2       8.659  48.090 -12.1300  0.00  0.00     0.000 C
ATOM     19  C3  NAG B   2       8.248  46.852 -11.3370  0.00  0.00     0.000 C
ATOM     20  C4  NAG B   2       7.846  47.240  -9.9140  0.00  0.00     0.000 C
ATOM     21  C5  NAG B   2       6.757  48.302  -9.9580  0.00  0.00     0.000 C
ATOM     22  O5  NAG B   2       7.249  49.445 -10.6790  0.00  0.00     0.000 O
ATOM     23   O  NAG B   2       7.396  46.062  -9.2350  0.00  0.00     0.000 O
ATOM     25  HD  NAG B   2       8.138  46.416  -8.9630  0.00  0.00     0.000 HD
ATOM     25   C  NAG B   2       6.292  48.729  -8.5670  0.00  0.00     0.000 C
ATOM     26   O  NAG B   2       7.273  49.544  -7.9070  0.00  0.00     0.000 O
ATOM     28  HD  NAG B   2       8.015  49.897  -7.6350  0.00  0.00     0.000 HD
BRANCH 18 30
ATOM     28   N  NAG B   2       8.852  48.067 -13.5680  0.00  0.00     0.000 N
ATOM     30  HD  NAG B   2       9.661  48.043 -13.2600  0.00  0.00     0.000 HD
ATOM     30   C  NAG B   2      10.050  48.139 -14.1610  0.00  0.00     0.000 C
ATOM     31   C  NAG B   2      10.084  48.149 -15.6640  0.00  0.00     0.000 C
ATOM     32   O  NAG B   2      11.080  48.198 -13.5200  0.00  0.00     0.000 OA
ENDBRANCH 18 30
BRANCH 17 33
ATOM     33  O4  GCU B   3       8.034  50.306 -12.7830  0.00  0.00     0.000 O
BRANCH 33 37
ATOM     34  C1  GCU B   3       5.925  53.482 -14.4560  0.00  0.00     0.000 C
ATOM     35  C2  GCU B   3       6.334  53.597 -12.9870  0.00  0.00     0.000 C
ATOM     36  C3  GCU B   3       7.424  52.591 -12.6840  0.00  0.00     0.000 C
ATOM     37  C4  GCU B   3       6.955  51.196 -13.0740  0.00  0.00     0.000 C
ATOM     38  C5  GCU B   3       6.572  51.178 -14.5550  0.00  0.00     0.000 C
ATOM     39  O5  GCU B   3       5.536  52.142 -14.7700  0.00  0.00     0.000 O
ATOM     40   O  GCU B   3       6.803  54.924 -12.7390  0.00  0.00     0.000 O
ATOM     42  HD  GCU B   3       7.462  55.362 -12.3880  0.00  0.00     0.000 HD
ATOM     42   O  GCU B   3       7.783  52.620 -11.2910  0.00  0.00     0.000 O
ATOM     44  HD  GCU B   3       8.442  53.059 -10.9400  0.00  0.00     0.000 HD
BRANCH 38 44
ATOM     44   C  GCU B   3       6.072  49.830 -15.0100  0.00  0.00     0.000 C
ATOM     45   O  GCU B   3       4.898  49.517 -14.7600  0.00  0.00     0.000 OA
ATOM     46   O  GCU B   3       6.836  49.063 -15.6260  0.00  0.00     0.000 OA
ENDBRANCH 38 44
BRANCH 34 47
ATOM     47  O3  NAG B   4       4.839  54.215 -14.6560  0.00  0.00     0.000 O
BRANCH 47 50
ATOM     48  C1  NAG B   4       2.050  55.840 -16.4820  0.00  0.00     0.000 C
ATOM     49  C2  NAG B   4       3.465  55.646 -15.9480  0.00  0.00     0.000 C
ATOM     50  C3  NAG B   4       3.709  54.206 -15.5260  0.00  0.00     0.000 C
ATOM     51  C4  NAG B   4       2.518  53.563 -14.8070  0.00  0.00     0.000 C
ATOM     52  C5  NAG B   4       1.281  53.553 -15.6900  0.00  0.00     0.000 C
ATOM     53  O5  NAG B   4       1.076  54.777 -16.4300  0.00  0.00     0.000 O
BRANCH 49 56
ATOM     54   N  NAG B   4       4.069  55.696 -17.2910  0.00  0.00     0.000 N
ATOM     56  HD  NAG B   4       3.742  55.334 -18.0060  0.00  0.00     0.000 HD
ATOM     56   C  NAG B   4       5.683  56.188 -19.0360  0.00  0.00     0.000 C
ATOM     57   O  NAG B   4       6.125  56.503 -16.7550  0.00  0.00     0.000 OA
ATOM     58   C  NAG B   4       5.309  56.135 -17.5860  0.00  0.00     0.000 C
ENDBRANCH 49 56
ATOM     59   O  NAG B   4      -1.085  52.852 -15.6260  0.00  0.00     0.000 O
ATOM     61  HD  NAG B   4      -0.493  53.472 -15.5090  0.00  0.00     0.000 HD
ATOM     61   O  NAG B   4      -1.085  52.852 -15.6260  0.00  0.00     0.000 O
ATOM     63  HD  NAG B   4      -0.493  53.472 -15.5090  0.00  0.00     0.000 HD
ENDBRANCH 47 50
ENDBRANCH 34 47
ENDBRANCH 33 37
ENDBRANCH 17 33
ENDBRANCH 16 19
ENDBRANCH 1 16
TORSDOF 10
ENDMDL
MODEL 25
REMARK VINA RESULT:      -8.4     10.296     13.317
ROOT
ATOM      1  C1  GCU B   1       4.873  28.332  -2.5600  0.00  0.00     0.000 C
ATOM      2  C2  GCU B   1       3.609  29.131  -2.8350  0.00  0.00     0.000 C
ATOM      3  C3  GCU B   1       3.517  29.489  -4.3100  0.00  0.00     0.000 C
ATOM      4  C4  GCU B   1       4.810  30.143  -4.7740  0.00  0.00     0.000 C
ATOM      5  C5  GCU B   1       6.023  29.291  -4.3950  0.00  0.00     0.000 C
ATOM      6  O5  GCU B   1       6.026  29.082  -2.9770  0.00  0.00     0.000 O
ATOM      7   O  GCU B   1       2.498  28.332  -2.4400  0.00  0.00     0.000 O
ATOM      9  HD  GCU B   1       1.858  28.573  -1.9090  0.00  0.00     0.000 HD
ATOM      9   O  GCU B   1       2.417  30.372  -4.5470  0.00  0.00     0.000 O
ATOM     11  HD  GCU B   1       1.777  30.614  -4.0150  0.00  0.00     0.000 HD
ATOM     11   O  GCU B   1       4.760  30.310  -6.1910  0.00  0.00     0.000 O
ATOM     13  HD  GCU B   1       4.120  30.552  -5.6600  0.00  0.00     0.000 HD
ENDROOT
BRANCH 5 13
ATOM     13   C  GCU B   1       7.289  29.956  -4.8800  0.00  0.00     0.000 C
ATOM     14   O  GCU B   1       7.958  30.675  -4.1100  0.00  0.00     0.000 OA
ATOM     15   O  GCU B   1       7.641  29.733  -6.0540  0.00  0.00     0.000 OA
ENDBRANCH 5 13
BRANCH 1 16
ATOM     16  O3  NAG B   2       5.544  28.241  -1.4090  0.00  0.00     0.000 O
BRANCH 16 19
ATOM     17  C1  NAG B   2       6.176  25.409   1.0010  0.00  0.00     0.000 C
ATOM     18  C2  NAG B   2       5.359  26.405   0.1870  0.00  0.00     0.000 C
ATOM     19  C3  NAG B   2       6.266  27.177  -0.7690  0.00  0.00     0.000 C
ATOM     20  C4  NAG B   2       7.441  27.791  -0.0090  0.00  0.00     0.000 C
ATOM     21  C5  NAG B   2       8.182  26.706   0.7590  0.00  0.00     0.000 C
ATOM     22  O5  NAG B   2       7.265  26.069   1.6660  0.00  0.00     0.000 O
ATOM     23   O  NAG B   2       8.302  28.437  -0.9540  0.00  0.00     0.000 O
ATOM     25  HD  NAG B   2       7.871  28.945  -0.4010  0.00  0.00     0.000 HD
ATOM     25   C  NAG B   2       9.383  27.246   1.5330  0.00  0.00     0.000 C
ATOM     26   O  NAG B   2       8.977  27.998   2.6860  0.00  0.00     0.000 O
ATOM     28  HD  NAG B   2       8.546  28.507   3.2390  0.00  0.00     0.000 HD
BRANCH 18 30
ATOM     28   N  NAG B   2       4.299  25.465  -0.1250  0.00  0.00     0.000 N
ATOM     30  HD  NAG B   2       3.887  26.226  -0.0990  0.00  0.00     0.000 HD
ATOM     30   C  NAG B   2       3.004  25.797  -0.1900  0.00  0.00     0.000 C
ATOM     31   C  NAG B   2       2.018  24.700  -0.4810  0.00  0.00     0.000 C
ATOM     32   O  NAG B   2       2.625  26.938  -0.0190  0.00  0.00     0.000 OA
ENDBRANCH 18 30
BRANCH 17 33
ATOM     33  O4  GCU B   3       5.274  24.741   1.9050  0.00  0.00     0.000 O
BRANCH 33 37
ATOM     34  C1  GCU B   3       5.593  21.027   3.7590  0.00  0.00     0.000 C
ATOM     35  C2  GCU B   3       6.097  22.249   4.5270  0.00  0.00     0.000 C
ATOM     36  C3  GCU B   3       5.525  23.507   3.9090  0.00  0.00     0.000 C
ATOM     37  C4  GCU B   3       5.859  23.546   2.4250  0.00  0.00     0.000 C
ATOM     38  C5  GCU B   3       5.315  22.289   1.7420  0.00  0.00     0.000 C
ATOM     39  O5  GCU B   3       5.900  21.142   2.3670  0.00  0.00     0.000 O
ATOM     40   O  GCU B   3       5.689  22.139   5.8920  0.00  0.00     0.000 O
ATOM     42  HD  GCU B   3       5.303  22.581   6.5290  0.00  0.00     0.000 HD
ATOM     42   O  GCU B   3       6.036  24.683   4.5620  0.00  0.00     0.000 O
ATOM     44  HD  GCU B   3       5.650  25.125   5.1990  0.00  0.00     0.000 HD
BRANCH 38 44
ATOM     44   C  GCU B   3       5.632  22.244   0.2680  0.00  0.00     0.000 C
ATOM     45   O  GCU B   3       6.760  21.869  -0.0860  0.00  0.00     0.000 OA
ATOM     46   O  GCU B   3       4.763  22.578  -0.5600  0.00  0.00     0.000 OA
ENDBRANCH 38 44
BRANCH 34 47
ATOM     47  O3  NAG B   4       6.257  19.957   4.1740  0.00  0.00     0.000 O
BRANCH 47 50
ATOM     48  C1  NAG B   4       6.741  16.303   4.5810  0.00  0.00     0.000 C
ATOM     49  C2  NAG B   4       7.126  17.772   4.4410  0.00  0.00     0.000 C
ATOM     50  C3  NAG B   4       5.953  18.688   4.7500  0.00  0.00     0.000 C
ATOM     51  C4  NAG B   4       4.615  18.185   4.1960  0.00  0.00     0.000 C
ATOM     52  C5  NAG B   4       4.261  16.820   4.7640  0.00  0.00     0.000 C
ATOM     53  O5  NAG B   4       5.377  15.906   4.8380  0.00  0.00     0.000 O
BRANCH 49 56
ATOM     54   N  NAG B   4       7.844  17.853   5.7250  0.00  0.00     0.000 N
ATOM     56  HD  NAG B   4       7.521  17.641   6.5000  0.00  0.00     0.000 HD
ATOM     56   C  NAG B   4       9.628  18.329   7.3010  0.00  0.00     0.000 C
ATOM     57   O  NAG B   4       9.657  19.059   5.0720  0.00  0.00     0.000 OA
ATOM     58   C  NAG B   4       9.035  18.451   5.9300  0.00  0.00     0.000 C
ENDBRANCH 49 56
ATOM     59   O  NAG B   4       2.491  15.107   4.6110  0.00  0.00     0.000 O
ATOM     61  HD  NAG B   4       3.253  15.412   4.3350  0.00  0.00     0.000 HD
ATOM     61   O  NAG B   4       2.491  15.107   4.6110  0.00  0.00     0.000 O
ATOM     63  HD  NAG B   4       3.253  15.412   4.3350  0.00  0.00     0.000 HD
ENDBRANCH 47 50
ENDBRANCH 34 47
ENDBRANCH 33 37
ENDBRANCH 17 33
ENDBRANCH 16 19
ENDBRANCH 1 16
TORSDOF 10
ENDMDL
MODEL 26
REMARK VINA RESULT:      -8.4      2.675     11.484
ROOT
ATOM      1  C1  GCU B   1       0.532  27.334  -5.5870  0.00  0.00     0.000 C
ATOM      2  C2  GCU B   1      -0.063  25.938  -5.4770  0.00  0.00     0.000 C
ATOM      3  C3  GCU B   1      -1.564  25.979  -5.7140  0.00  0.00     0.000 C
ATOM      4  C4  GCU B   1      -2.209  27.030  -4.8240  0.00  0.00     0.000 C
ATOM      5  C5  GCU B   1      -1.500  28.379  -4.9630  0.00  0.00     0.000 C
ATOM      6  O5  GCU B   1      -0.110  28.214  -4.6510  0.00  0.00     0.000 O
ATOM      7   O  GCU B   1       0.579  25.117  -6.4470  0.00  0.00     0.000 O
ATOM      9  HD  GCU B   1       0.960  24.353  -6.2990  0.00  0.00     0.000 HD
ATOM      9   O  GCU B   1      -2.151  24.701  -5.4560  0.00  0.00     0.000 O
ATOM     11  HD  GCU B   1      -1.770  23.937  -5.3080  0.00  0.00     0.000 HD
ATOM     11   O  GCU B   1      -3.582  27.166  -5.1890  0.00  0.00     0.000 O
ATOM     13  HD  GCU B   1      -3.202  26.402  -5.0410  0.00  0.00     0.000 HD
ENDROOT
BRANCH 5 13
ATOM     13   C  GCU B   1      -2.169  29.404  -4.0800  0.00  0.00     0.000 C
ATOM     14   O  GCU B   1      -2.301  30.583  -4.4690  0.00  0.00     0.000 OA
ATOM     15   O  GCU B   1      -2.599  29.018  -2.9760  0.00  0.00     0.000 OA
ENDBRANCH 5 13
BRANCH 1 16
ATOM     16  O3  NAG B   2       1.647  27.791  -5.0130  0.00  0.00     0.000 O
BRANCH 16 19
ATOM     17  C1  NAG B   2       4.445  29.780  -6.5740  0.00  0.00     0.000 C
ATOM     18  C2  NAG B   2       3.426  28.656  -6.4400  0.00  0.00     0.000 C
ATOM     19  C3  NAG B   2       2.492  28.924  -5.2620  0.00  0.00     0.000 C
ATOM     20  C4  NAG B   2       3.301  29.202  -3.9950  0.00  0.00     0.000 C
ATOM     21  C5  NAG B   2       4.277  30.342  -4.2460  0.00  0.00     0.000 C
ATOM     22  O5  NAG B   2       5.145  29.980  -5.3350  0.00  0.00     0.000 O
ATOM     23   O  NAG B   2       2.388  29.524  -2.9390  0.00  0.00     0.000 O
ATOM     25  HD  NAG B   2       2.821  28.776  -2.8730  0.00  0.00     0.000 HD
ATOM     25   C  NAG B   2       5.111  30.687  -3.0140  0.00  0.00     0.000 C
ATOM     26   O  NAG B   2       6.108  29.687  -2.7510  0.00  0.00     0.000 O
ATOM     28  HD  NAG B   2       6.541  28.940  -2.6850  0.00  0.00     0.000 HD
BRANCH 18 30
ATOM     28   N  NAG B   2       3.717  27.751  -7.5360  0.00  0.00     0.000 N
ATOM     30  HD  NAG B   2       2.950  28.088  -7.7570  0.00  0.00     0.000 HD
ATOM     30   C  NAG B   2       2.858  27.477  -8.5260  0.00  0.00     0.000 C
ATOM     31   C  NAG B   2       3.289  26.483  -9.5670  0.00  0.00     0.000 C
ATOM     32   O  NAG B   2       1.766  28.004  -8.5900  0.00  0.00     0.000 OA
ENDBRANCH 18 30
BRANCH 17 33
ATOM     33  O4  GCU B   3       5.315  29.452  -7.6760  0.00  0.00     0.000 O
BRANCH 33 37
ATOM     34  C1  GCU B   3       7.095  31.860 -10.5680  0.00  0.00     0.000 C
ATOM     35  C2  GCU B   3       7.698  31.875  -9.1630  0.00  0.00     0.000 C
ATOM     36  C3  GCU B   3       7.218  30.664  -8.3920  0.00  0.00     0.000 C
ATOM     37  C4  GCU B   3       5.696  30.624  -8.3970  0.00  0.00     0.000 C
ATOM     38  C5  GCU B   3       5.186  30.609  -9.8390  0.00  0.00     0.000 C
ATOM     39  O5  GCU B   3       5.668  31.781 -10.5050  0.00  0.00     0.000 O
ATOM     40   O  GCU B   3       9.123  31.860  -9.2700  0.00  0.00     0.000 O
ATOM     42  HD  GCU B   3       9.827  31.453  -8.9730  0.00  0.00     0.000 HD
ATOM     42   O  GCU B   3       7.708  30.683  -7.0390  0.00  0.00     0.000 O
ATOM     44  HD  GCU B   3       8.412  30.276  -6.7430  0.00  0.00     0.000 HD
BRANCH 38 44
ATOM     44   C  GCU B   3       3.681  30.596  -9.9240  0.00  0.00     0.000 C
ATOM     45   O  GCU B   3       3.035  31.300  -9.1330  0.00  0.00     0.000 OA
ATOM     46   O  GCU B   3       3.116  29.888 -10.7810  0.00  0.00     0.000 OA
ENDBRANCH 38 44
BRANCH 34 47
ATOM     47  O3  NAG B   4       7.353  33.019 -11.1560  0.00  0.00     0.000 O
BRANCH 47 50
ATOM     48  C1  NAG B   4       9.139  35.897 -12.6690  0.00  0.00     0.000 C
ATOM     49  C2  NAG B   4       8.370  35.107 -11.6140  0.00  0.00     0.000 C
ATOM     50  C3  NAG B   4       8.425  33.613 -11.8870  0.00  0.00     0.000 C
ATOM     51  C4  NAG B   4       8.292  33.250 -13.3700  0.00  0.00     0.000 C
ATOM     52  C5  NAG B   4       9.401  33.883 -14.1940  0.00  0.00     0.000 C
ATOM     53  O5  NAG B   4       9.700  35.249 -13.8300  0.00  0.00     0.000 O
BRANCH 49 56
ATOM     54   N  NAG B   4       9.419  35.266 -10.5910  0.00  0.00     0.000 N
ATOM     56  HD  NAG B   4      10.270  35.175 -10.7210  0.00  0.00     0.000 HD
ATOM     56   C  NAG B   4      10.428  35.630  -8.4140  0.00  0.00     0.000 C
ATOM     57   O  NAG B   4       8.125  35.310  -8.7230  0.00  0.00     0.000 OA
ATOM     58   C  NAG B   4       9.219  35.380  -9.2630  0.00  0.00     0.000 C
ENDBRANCH 49 56
ATOM     59   O  NAG B   4      10.174  34.030 -16.5340  0.00  0.00     0.000 O
ATOM     61  HD  NAG B   4       9.706  34.363 -15.8850  0.00  0.00     0.000 HD
ATOM     61   O  NAG B   4      10.174  34.030 -16.5340  0.00  0.00     0.000 O
ATOM     63  HD  NAG B   4       9.706  34.363 -15.8850  0.00  0.00     0.000 HD
ENDBRANCH 47 50
ENDBRANCH 34 47
ENDBRANCH 33 37
ENDBRANCH 17 33
ENDBRANCH 16 19
ENDBRANCH 1 16
TORSDOF 10
ENDMDL
MODEL 27
REMARK VINA RESULT:      -8.4     10.039     15.515
ROOT
ATOM      1  C1  GCU B   1       9.666  35.681 -12.8700  0.00  0.00     0.000 C
ATOM      2  C2  GCU B   1       9.890  34.438 -13.7180  0.00  0.00     0.000 C
ATOM      3  C3  GCU B   1       8.639  33.574 -13.7360  0.00  0.00     0.000 C
ATOM      4  C4  GCU B   1       8.160  33.313 -12.3160  0.00  0.00     0.000 C
ATOM      5  C5  GCU B   1       8.026  34.619 -11.5320  0.00  0.00     0.000 C
ATOM      6  O5  GCU B   1       9.286  35.302 -11.5370  0.00  0.00     0.000 O
ATOM      7   O  GCU B   1      10.226  34.867 -15.0330  0.00  0.00     0.000 O
ATOM      9  HD  GCU B   1      10.917  34.615 -15.4920  0.00  0.00     0.000 HD
ATOM      9   O  GCU B   1       8.893  32.332 -14.3970  0.00  0.00     0.000 O
ATOM     11  HD  GCU B   1       9.584  32.081 -14.8550  0.00  0.00     0.000 HD
ATOM     11   O  GCU B   1       6.896  32.649 -12.3700  0.00  0.00     0.000 O
ATOM     13  HD  GCU B   1       7.587  32.398 -12.8280  0.00  0.00     0.000 HD
ENDROOT
BRANCH 5 13
ATOM     13   C  GCU B   1       7.536  34.331 -10.1330  0.00  0.00     0.000 C
ATOM     14   O  GCU B   1       7.536  33.163  -9.6930  0.00  0.00     0.000 OA
ATOM     15   O  GCU B   1       7.166  35.300  -9.4430  0.00  0.00     0.000 OA
ENDBRANCH 5 13
BRANCH 1 16
ATOM     16  O3  NAG B   2      10.587  36.408 -12.2330  0.00  0.00     0.000 O
BRANCH 16 19
ATOM     17  C1  NAG B   2      10.765  40.168 -11.9970  0.00  0.00     0.000 C
ATOM     18  C2  NAG B   2      10.593  38.810 -12.6640  0.00  0.00     0.000 C
ATOM     19  C3  NAG B   2      10.566  37.703 -11.6120  0.00  0.00     0.000 C
ATOM     20  C4  NAG B   2      11.784  37.810 -10.6950  0.00  0.00     0.000 C
ATOM     21  C5  NAG B   2      11.850  39.202 -10.0850  0.00  0.00     0.000 C
ATOM     22  O5  NAG B   2      11.922  40.172 -11.1450  0.00  0.00     0.000 O
ATOM     23   O  NAG B   2      11.676  36.804  -9.6820  0.00  0.00     0.000 O
ATOM     25  HD  NAG B   2      12.309  36.710 -10.2660  0.00  0.00     0.000 HD
ATOM     25   C  NAG B   2      13.038  39.378  -9.1420  0.00  0.00     0.000 C
ATOM     26   O  NAG B   2      14.278  39.469  -9.8610  0.00  0.00     0.000 O
ATOM     28  HD  NAG B   2      14.910  39.375 -10.4450  0.00  0.00     0.000 HD
BRANCH 18 30
ATOM     28   N  NAG B   2       9.497  39.194 -13.5330  0.00  0.00     0.000 N
ATOM     30  HD  NAG B   2       9.949  38.637 -14.0190  0.00  0.00     0.000 HD
ATOM     30   C  NAG B   2       9.396  38.821 -14.8150  0.00  0.00     0.000 C
ATOM     31   C  NAG B   2       8.223  39.338 -15.6000  0.00  0.00     0.000 C
ATOM     32   O  NAG B   2      10.216  38.094 -15.3380  0.00  0.00     0.000 OA
ENDBRANCH 18 30
BRANCH 17 33
ATOM     33  O4  GCU B   3      10.819  41.162 -13.0400  0.00  0.00     0.000 O
BRANCH 33 37
ATOM     34  C1  GCU B   3       9.928  45.229 -12.9920  0.00  0.00     0.000 C
ATOM     35  C2  GCU B   3      11.210  44.775 -12.2930  0.00  0.00     0.000 C
ATOM     36  C3  GCU B   3      11.582  43.386 -12.7680  0.00  0.00     0.000 C
ATOM     37  C4  GCU B   3      10.409  42.441 -12.5520  0.00  0.00     0.000 C
ATOM     38  C5  GCU B   3       9.177  42.973 -13.2870  0.00  0.00     0.000 C
ATOM     39  O5  GCU B   3       8.877  44.280 -12.7870  0.00  0.00     0.000 O
ATOM     40   O  GCU B   3      12.257  45.698 -12.6000  0.00  0.00     0.000 O
ATOM     42  HD  GCU B   3      13.075  45.737 -12.8810  0.00  0.00     0.000 HD
ATOM     42   O  GCU B   3      12.745  42.897 -12.0770  0.00  0.00     0.000 O
ATOM     44  HD  GCU B   3      13.563  42.935 -12.3580  0.00  0.00     0.000 HD
BRANCH 38 44
ATOM     44   C  GCU B   3       7.963  42.099 -13.0980  0.00  0.00     0.000 C
ATOM     45   O  GCU B   3       7.044  42.170 -13.9290  0.00  0.00     0.000 OA
ATOM     46   O  GCU B   3       7.905  41.325 -12.1230  0.00  0.00     0.000 OA
ENDBRANCH 38 44
BRANCH 34 47
ATOM     47  O3  NAG B   4       9.504  46.347 -12.4210  0.00  0.00     0.000 O
BRANCH 47 50
ATOM     48  C1  NAG B   4       6.699  48.620 -13.2730  0.00  0.00     0.000 C
ATOM     49  C2  NAG B   4       7.479  47.572 -12.4860  0.00  0.00     0.000 C
ATOM     50  C3  NAG B   4       8.958  47.598 -12.8350  0.00  0.00     0.000 C
ATOM     51  C4  NAG B   4       9.237  47.806 -14.3280  0.00  0.00     0.000 C
ATOM     52  C5  NAG B   4       8.650  49.119 -14.8200  0.00  0.00     0.000 C
ATOM     53  O5  NAG B   4       7.330  49.404 -14.3070  0.00  0.00     0.000 O
BRANCH 49 56
ATOM     54   N  NAG B   4       7.491  48.342 -11.2290  0.00  0.00     0.000 N
ATOM     56  HD  NAG B   4       7.738  49.168 -11.1450  0.00  0.00     0.000 HD
ATOM     56   C  NAG B   4       7.270  48.822  -8.8610  0.00  0.00     0.000 C
ATOM     57   O  NAG B   4       7.174  46.651  -9.7430  0.00  0.00     0.000 OA
ATOM     58   C  NAG B   4       7.316  47.840  -9.9910  0.00  0.00     0.000 C
ENDBRANCH 49 56
ATOM     59   O  NAG B   4       8.448  50.442 -16.8950  0.00  0.00     0.000 O
ATOM     61  HD  NAG B   4       8.113  49.853 -16.3560  0.00  0.00     0.000 HD
ATOM     61   O  NAG B   4       8.448  50.442 -16.8950  0.00  0.00     0.000 O
ATOM     63  HD  NAG B   4       8.113  49.853 -16.3560  0.00  0.00     0.000 HD
ENDBRANCH 47 50
ENDBRANCH 34 47
ENDBRANCH 33 37
ENDBRANCH 17 33
ENDBRANCH 16 19
ENDBRANCH 1 16
TORSDOF 10
ENDMDL
MODEL 28
REMARK VINA RESULT:      -8.3      1.893      2.678
ROOT
ATOM      1  C1  GCU B   1       8.500  31.239 -13.8120  0.00  0.00     0.000 C
ATOM      2  C2  GCU B   1       9.288  32.467 -14.2420  0.00  0.00     0.000 C
ATOM      3  C3  GCU B   1       9.198  32.655 -15.7490  0.00  0.00     0.000 C
ATOM      4  C4  GCU B   1       9.568  31.364 -16.4630  0.00  0.00     0.000 C
ATOM      5  C5  GCU B   1       8.765  30.183 -15.9150  0.00  0.00     0.000 C
ATOM      6  O5  GCU B   1       8.988  30.078 -14.5030  0.00  0.00     0.000 O
ATOM      7   O  GCU B   1       8.743  33.591 -13.5600  0.00  0.00     0.000 O
ATOM      9  HD  GCU B   1       9.187  34.168 -13.0900  0.00  0.00     0.000 HD
ATOM      9   O  GCU B   1      10.063  33.710 -16.1770  0.00  0.00     0.000 O
ATOM     11  HD  GCU B   1      10.507  34.287 -15.7070  0.00  0.00     0.000 HD
ATOM     11   O  GCU B   1       9.311  31.519 -17.8590  0.00  0.00     0.000 O
ATOM     13  HD  GCU B   1       9.754  32.096 -17.3890  0.00  0.00     0.000 HD
ENDROOT
BRANCH 5 13
ATOM     13   C  GCU B   1       9.143  28.920 -16.6510  0.00  0.00     0.000 C
ATOM     14   O  GCU B   1       8.549  28.600 -17.7020  0.00  0.00     0.000 OA
ATOM     15   O  GCU B   1      10.077  28.241 -16.1840  0.00  0.00     0.000 OA
ENDBRANCH 5 13
BRANCH 1 16
ATOM     16  O3  NAG B   2       8.697  30.484 -12.7290  0.00  0.00     0.000 O
BRANCH 16 19
ATOM     17  C1  NAG B   2       6.346  29.774  -9.8660  0.00  0.00     0.000 C
ATOM     18  C2  NAG B   2       7.119  30.617 -10.8720  0.00  0.00     0.000 C
ATOM     19  C3  NAG B   2       7.822  29.717 -11.8880  0.00  0.00     0.000 C
ATOM     20  C4  NAG B   2       8.659  28.658 -11.1710  0.00  0.00     0.000 C
ATOM     21  C5  NAG B   2       7.783  27.880 -10.1990  0.00  0.00     0.000 C
ATOM     22  O5  NAG B   2       7.206  28.799  -9.2540  0.00  0.00     0.000 O
ATOM     23   O  NAG B   2       9.233  27.794 -12.1580  0.00  0.00     0.000 O
ATOM     25  HD  NAG B   2       9.775  28.307 -11.7180  0.00  0.00     0.000 HD
ATOM     25   C  NAG B   2       8.552  26.789  -9.4560  0.00  0.00     0.000 C
ATOM     26   O  NAG B   2       9.429  27.342  -8.4620  0.00  0.00     0.000 O
ATOM     28  HD  NAG B   2       9.971  27.855  -8.0220  0.00  0.00     0.000 HD
BRANCH 18 30
ATOM     28   N  NAG B   2       6.068  31.548 -11.2360  0.00  0.00     0.000 N
ATOM     30  HD  NAG B   2       6.766  32.056 -11.1650  0.00  0.00     0.000 HD
ATOM     30   C  NAG B   2       6.230  32.876 -11.2790  0.00  0.00     0.000 C
ATOM     31   C  NAG B   2       5.032  33.713 -11.6310  0.00  0.00     0.000 C
ATOM     32   O  NAG B   2       7.300  33.399 -11.0410  0.00  0.00     0.000 OA
ENDBRANCH 18 30
BRANCH 17 33
ATOM     33  O4  GCU B   3       5.739  30.675  -8.9180  0.00  0.00     0.000 O
BRANCH 33 37
ATOM     34  C1  GCU B   3       2.386  30.200  -6.4970  0.00  0.00     0.000 C
ATOM     35  C2  GCU B   3       3.733  29.738  -5.9420  0.00  0.00     0.000 C
ATOM     36  C3  GCU B   3       4.854  30.362  -6.7450  0.00  0.00     0.000 C
ATOM     37  C4  GCU B   3       4.666  30.041  -8.2210  0.00  0.00     0.000 C
ATOM     38  C5  GCU B   3       3.296  30.541  -8.6860  0.00  0.00     0.000 C
ATOM     39  O5  GCU B   3       2.287  29.907  -7.8930  0.00  0.00     0.000 O
ATOM     40   O  GCU B   3       3.829  30.132  -4.5710  0.00  0.00     0.000 O
ATOM     42  HD  GCU B   3       4.354  30.530  -4.0080  0.00  0.00     0.000 HD
ATOM     42   O  GCU B   3       6.138  29.892  -6.2960  0.00  0.00     0.000 O
ATOM     44  HD  GCU B   3       6.662  30.290  -5.7330  0.00  0.00     0.000 HD
BRANCH 38 44
ATOM     44   C  GCU B   3       3.027  30.234 -10.1380  0.00  0.00     0.000 C
ATOM     45   O  GCU B   3       2.870  31.179 -10.9250  0.00  0.00     0.000 OA
ATOM     46   O  GCU B   3       2.971  29.049 -10.5190  0.00  0.00     0.000 OA
ENDBRANCH 38 44
BRANCH 34 47
ATOM     47  O3  NAG B   4       1.422  29.492  -5.9240  0.00  0.00     0.000 O
BRANCH 47 50
ATOM     48  C1  NAG B   4      -0.377  26.337  -5.1730  0.00  0.00     0.000 C
ATOM     49  C2  NAG B   4       0.180  27.479  -6.0160  0.00  0.00     0.000 C
ATOM     50  C3  NAG B   4       1.286  28.224  -5.2860  0.00  0.00     0.000 C
ATOM     51  C4  NAG B   4       1.010  28.432  -3.7930  0.00  0.00     0.000 C
ATOM     52  C5  NAG B   4       0.832  27.104  -3.0750  0.00  0.00     0.000 C
ATOM     53  O5  NAG B   4       0.044  26.139  -3.8070  0.00  0.00     0.000 O
BRANCH 49 56
ATOM     54   N  NAG B   4       1.125  26.887  -6.9790  0.00  0.00     0.000 N
ATOM     56  HD  NAG B   4       1.987  26.960  -6.9510  0.00  0.00     0.000 HD
ATOM     56   C  NAG B   4       1.918  25.686  -8.9340  0.00  0.00     0.000 C
ATOM     57   O  NAG B   4      -0.333  26.256  -8.6050  0.00  0.00     0.000 OA
ATOM     58   C  NAG B   4       0.802  26.312  -8.1550  0.00  0.00     0.000 C
ENDBRANCH 49 56
ATOM     59   O  NAG B   4       0.355  26.220  -0.8200  0.00  0.00     0.000 O
ATOM     61  HD  NAG B   4       0.061  26.475  -1.5940  0.00  0.00     0.000 HD
ATOM     61   O  NAG B   4       0.355  26.220  -0.8200  0.00  0.00     0.000 O
ATOM     63  HD  NAG B   4       0.061  26.475  -1.5940  0.00  0.00     0.000 HD
ENDBRANCH 47 50
ENDBRANCH 34 47
ENDBRANCH 33 37
ENDBRANCH 17 33
ENDBRANCH 16 19
ENDBRANCH 1 16
TORSDOF 10
ENDMDL
MODEL 29
REMARK VINA RESULT:      -8.3      9.878     15.253
ROOT
ATOM      1  C1  GCU B   1       9.517  35.266 -13.0710  0.00  0.00     0.000 C
ATOM      2  C2  GCU B   1       9.650  33.959 -13.8380  0.00  0.00     0.000 C
ATOM      3  C3  GCU B   1       8.330  33.202 -13.8320  0.00  0.00     0.000 C
ATOM      4  C4  GCU B   1       7.808  33.068 -12.4100  0.00  0.00     0.000 C
ATOM      5  C5  GCU B   1       7.771  34.427 -11.7080  0.00  0.00     0.000 C
ATOM      6  O5  GCU B   1       9.085  35.001 -11.7270  0.00  0.00     0.000 O
ATOM      7   O  GCU B   1      10.043  34.277 -15.1700  0.00  0.00     0.000 O
ATOM      9  HD  GCU B   1      10.717  33.942 -15.5970  0.00  0.00     0.000 HD
ATOM      9   O  GCU B   1       8.491  31.905 -14.4130  0.00  0.00     0.000 O
ATOM     11  HD  GCU B   1       9.165  31.570 -14.8400  0.00  0.00     0.000 HD
ATOM     11   O  GCU B   1       6.494  32.510 -12.4520  0.00  0.00     0.000 O
ATOM     13  HD  GCU B   1       7.169  32.174 -12.8790  0.00  0.00     0.000 HD
ENDROOT
BRANCH 5 13
ATOM     13   C  GCU B   1       7.236  34.266 -10.3050  0.00  0.00     0.000 C
ATOM     14   O  GCU B   1       6.889  33.142  -9.8870  0.00  0.00     0.000 OA
ATOM     15   O  GCU B   1       7.186  35.284  -9.5900  0.00  0.00     0.000 OA
ENDBRANCH 5 13
BRANCH 1 16
ATOM     16  O3  NAG B   2      10.484  35.951 -12.4590  0.00  0.00     0.000 O
BRANCH 16 19
ATOM     17  C1  NAG B   2      10.709  39.663 -11.8290  0.00  0.00     0.000 C
ATOM     18  C2  NAG B   2      10.495  38.385 -12.6300  0.00  0.00     0.000 C
ATOM     19  C3  NAG B   2      10.502  37.172 -11.7020  0.00  0.00     0.000 C
ATOM     20  C4  NAG B   2      11.760  37.174 -10.8330  0.00  0.00     0.000 C
ATOM     21  C5  NAG B   2      11.864  38.492 -10.0810  0.00  0.00     0.000 C
ATOM     22  O5  NAG B   2      11.901  39.570 -11.0330  0.00  0.00     0.000 O
ATOM     23   O  NAG B   2      11.685  36.065  -9.9290  0.00  0.00     0.000 O
ATOM     25  HD  NAG B   2      12.291  36.031 -10.5470  0.00  0.00     0.000 HD
ATOM     25   C  NAG B   2      13.093  38.560  -9.1760  0.00  0.00     0.000 C
ATOM     26   O  NAG B   2      14.302  38.721  -9.9340  0.00  0.00     0.000 O
ATOM     28  HD  NAG B   2      14.908  38.687 -10.5520  0.00  0.00     0.000 HD
BRANCH 18 30
ATOM     28   N  NAG B   2      10.354  38.737 -14.0300  0.00  0.00     0.000 N
ATOM     30  HD  NAG B   2       9.542  38.559 -13.7880  0.00  0.00     0.000 HD
ATOM     30   C  NAG B   2       9.208  38.634 -14.7140  0.00  0.00     0.000 C
ATOM     31   C  NAG B   2       9.232  38.995 -16.1720  0.00  0.00     0.000 C
ATOM     32   O  NAG B   2       8.180  38.259 -14.1870  0.00  0.00     0.000 OA
ENDBRANCH 18 30
BRANCH 17 33
ATOM     33  O4  GCU B   3      10.728  40.763 -12.7610  0.00  0.00     0.000 O
BRANCH 33 37
ATOM     34  C1  GCU B   3       9.637  44.754 -12.2930  0.00  0.00     0.000 C
ATOM     35  C2  GCU B   3      10.838  44.247 -11.4920  0.00  0.00     0.000 C
ATOM     36  C3  GCU B   3      11.337  42.950 -12.0930  0.00  0.00     0.000 C
ATOM     37  C4  GCU B   3      10.194  41.948 -12.1680  0.00  0.00     0.000 C
ATOM     38  C5  GCU B   3       9.044  42.539 -12.9870  0.00  0.00     0.000 C
ATOM     39  O5  GCU B   3       8.617  43.753 -12.3620  0.00  0.00     0.000 O
ATOM     40   O  GCU B   3      11.868  45.237 -11.5270  0.00  0.00     0.000 O
ATOM     42  HD  GCU B   3      12.713  45.340 -11.6850  0.00  0.00     0.000 HD
ATOM     42   O  GCU B   3      12.422  42.406 -11.3210  0.00  0.00     0.000 O
ATOM     44  HD  GCU B   3      13.268  42.510 -11.4800  0.00  0.00     0.000 HD
BRANCH 38 44
ATOM     44   C  GCU B   3       7.861  41.609 -13.0840  0.00  0.00     0.000 C
ATOM     45   O  GCU B   3       7.161  41.644 -14.1070  0.00  0.00     0.000 OA
ATOM     46   O  GCU B   3       7.612  40.827 -12.1470  0.00  0.00     0.000 OA
ENDBRANCH 38 44
BRANCH 34 47
ATOM     47  O3  NAG B   4       9.086  45.768 -11.6410  0.00  0.00     0.000 O
BRANCH 47 50
ATOM     48  C1  NAG B   4       9.407  49.436 -12.0830  0.00  0.00     0.000 C
ATOM     49  C2  NAG B   4       9.776  47.961 -12.2030  0.00  0.00     0.000 C
ATOM     50  C3  NAG B   4       8.576  47.064 -11.9490  0.00  0.00     0.000 C
ATOM     51  C4  NAG B   4       7.677  47.543 -10.8040  0.00  0.00     0.000 C
ATOM     52  C5  NAG B   4       7.129  48.934 -11.0780  0.00  0.00     0.000 C
ATOM     53  O5  NAG B   4       8.096  49.848 -11.6400  0.00  0.00     0.000 O
BRANCH 49 56
ATOM     54   N  NAG B   4       9.775  47.896 -13.6750  0.00  0.00     0.000 N
ATOM     56  HD  NAG B   4       9.091  48.040 -14.1870  0.00  0.00     0.000 HD
ATOM     56   C  NAG B   4      10.594  47.533 -15.9300  0.00  0.00     0.000 C
ATOM     57   O  NAG B   4      11.794  46.909 -14.0140  0.00  0.00     0.000 OA
ATOM     58   C  NAG B   4      10.768  47.413 -14.4470  0.00  0.00     0.000 C
ENDBRANCH 49 56
ATOM     59   O  NAG B   4       5.689  50.642 -10.0280  0.00  0.00     0.000 O
ATOM     61  HD  NAG B   4       6.483  50.323 -10.1630  0.00  0.00     0.000 HD
ATOM     61   O  NAG B   4       5.689  50.642 -10.0280  0.00  0.00     0.000 O
ATOM     63  HD  NAG B   4       6.483  50.323 -10.1630  0.00  0.00     0.000 HD
ENDBRANCH 47 50
ENDBRANCH 34 47
ENDBRANCH 33 37
ENDBRANCH 17 33
ENDBRANCH 16 19
ENDBRANCH 1 16
TORSDOF 10
ENDMDL
MODEL 30
REMARK VINA RESULT:      -8.3     16.019     21.388
ROOT
ATOM      1  C1  GCU B   1       4.996  52.556 -12.8900  0.00  0.00     0.000 C
ATOM      2  C2  GCU B   1       3.970  52.748 -13.9970  0.00  0.00     0.000 C
ATOM      3  C3  GCU B   1       3.652  54.224 -14.1770  0.00  0.00     0.000 C
ATOM      4  C4  GCU B   1       3.289  54.851 -12.8400  0.00  0.00     0.000 C
ATOM      5  C5  GCU B   1       4.352  54.548 -11.7830  0.00  0.00     0.000 C
ATOM      6  O5  GCU B   1       4.508  53.128 -11.6660  0.00  0.00     0.000 O
ATOM      7   O  GCU B   1       4.515  52.200 -15.1920  0.00  0.00     0.000 O
ATOM      9  HD  GCU B   1       4.132  51.622 -15.7110  0.00  0.00     0.000 HD
ATOM      9   O  GCU B   1       2.576  54.399 -15.1020  0.00  0.00     0.000 O
ATOM     11  HD  GCU B   1       2.192  53.821 -15.6200  0.00  0.00     0.000 HD
ATOM     11   O  GCU B   1       3.164  56.263 -13.0100  0.00  0.00     0.000 O
ATOM     13  HD  GCU B   1       2.781  55.685 -13.5280  0.00  0.00     0.000 HD
ENDROOT
BRANCH 5 13
ATOM     13   C  GCU B   1       3.972  55.193 -10.4720  0.00  0.00     0.000 C
ATOM     14   O  GCU B   1       4.165  56.413 -10.2890  0.00  0.00     0.000 OA
ATOM     15   O  GCU B   1       3.440  54.468  -9.6090  0.00  0.00     0.000 OA
ENDBRANCH 5 13
BRANCH 1 16
ATOM     16  O3  NAG B   2       5.179  51.475 -12.1290  0.00  0.00     0.000 O
BRANCH 16 19
ATOM     17  C1  NAG B   2       7.909  48.896 -11.7770  0.00  0.00     0.000 C
ATOM     18  C2  NAG B   2       6.797  49.679 -12.4630  0.00  0.00     0.000 C
ATOM     19  C3  NAG B   2       6.344  50.840 -11.5800  0.00  0.00     0.000 C
ATOM     20  C4  NAG B   2       5.995  50.338 -10.1790  0.00  0.00     0.000 C
ATOM     21  C5  NAG B   2       7.177  49.578  -9.5950  0.00  0.00     0.000 C
ATOM     22  O5  NAG B   2       7.500  48.479 -10.4650  0.00  0.00     0.000 O
ATOM     23   O  NAG B   2       5.652  51.467  -9.3670  0.00  0.00     0.000 O
ATOM     25  HD  NAG B   2       5.016  50.914  -9.5630  0.00  0.00     0.000 HD
ATOM     25   C  NAG B   2       6.906  49.059  -8.1840  0.00  0.00     0.000 C
ATOM     26   O  NAG B   2       5.999  47.945  -8.1940  0.00  0.00     0.000 O
ATOM     28  HD  NAG B   2       5.363  47.392  -8.3900  0.00  0.00     0.000 HD
BRANCH 18 30
ATOM     28   N  NAG B   2       7.448  49.792 -13.7550  0.00  0.00     0.000 N
ATOM     30  HD  NAG B   2       6.612  49.697 -13.9620  0.00  0.00     0.000 HD
ATOM     30   C  NAG B   2       6.817  49.627 -14.9250  0.00  0.00     0.000 C
ATOM     31   C  NAG B   2       7.638  49.731 -16.1790  0.00  0.00     0.000 C
ATOM     32   O  NAG B   2       5.626  49.399 -14.9840  0.00  0.00     0.000 OA
ENDBRANCH 18 30
BRANCH 17 33
ATOM     33  O4  GCU B   3       8.266  47.798 -12.6410  0.00  0.00     0.000 O
BRANCH 33 37
ATOM     34  C1  GCU B   3      11.191  44.863 -12.2400  0.00  0.00     0.000 C
ATOM     35  C2  GCU B   3      10.082  44.908 -11.1880  0.00  0.00     0.000 C
ATOM     36  C3  GCU B   3       8.918  45.721 -11.7140  0.00  0.00     0.000 C
ATOM     37  C4  GCU B   3       9.405  47.099 -12.1380  0.00  0.00     0.000 C
ATOM     38  C5  GCU B   3      10.507  46.954 -13.1900  0.00  0.00     0.000 C
ATOM     39  O5  GCU B   3      11.576  46.186 -12.6270  0.00  0.00     0.000 O
ATOM     40   O  GCU B   3       9.663  43.573 -10.9000  0.00  0.00     0.000 O
ATOM     42  HD  GCU B   3       8.956  43.077 -10.8300  0.00  0.00     0.000 HD
ATOM     42   O  GCU B   3       7.883  45.845 -10.7210  0.00  0.00     0.000 O
ATOM     44  HD  GCU B   3       7.177  45.350 -10.6510  0.00  0.00     0.000 HD
BRANCH 38 44
ATOM     44   C  GCU B   3      11.060  48.282 -13.6410  0.00  0.00     0.000 C
ATOM     45   O  GCU B   3      12.053  48.742 -13.0570  0.00  0.00     0.000 OA
ATOM     46   O  GCU B   3      10.517  48.888 -14.5850  0.00  0.00     0.000 OA
ENDBRANCH 38 44
BRANCH 34 47
ATOM     47  O3  NAG B   4      12.276  44.331 -11.6950  0.00  0.00     0.000 O
BRANCH 47 50
ATOM     48  C1  NAG B   4      14.043  41.121 -11.1240  0.00  0.00     0.000 C
ATOM     49  C2  NAG B   4      12.868  42.087 -11.2270  0.00  0.00     0.000 C
ATOM     50  C3  NAG B   4      13.235  43.329 -12.0240  0.00  0.00     0.000 C
ATOM     51  C4  NAG B   4      14.645  43.856 -11.7310  0.00  0.00     0.000 C
ATOM     52  C5  NAG B   4      15.701  42.810 -12.0450  0.00  0.00     0.000 C
ATOM     53  O5  NAG B   4      15.351  41.473 -11.6220  0.00  0.00     0.000 O
BRANCH 49 56
ATOM     54   N  NAG B   4      12.087  41.469 -12.3130  0.00  0.00     0.000 N
ATOM     56  HD  NAG B   4      12.242  41.555 -13.1600  0.00  0.00     0.000 HD
ATOM     56   C  NAG B   4      10.330  40.199 -13.4050  0.00  0.00     0.000 C
ATOM     57   O  NAG B   4      10.288  40.748 -11.1250  0.00  0.00     0.000 OA
ATOM     58   C  NAG B   4      10.902  40.840 -12.1780  0.00  0.00     0.000 C
ENDBRANCH 49 56
ATOM     59   O  NAG B   4      18.150  42.508 -11.9620  0.00  0.00     0.000 O
ATOM     61  HD  NAG B   4      17.379  42.419 -11.5780  0.00  0.00     0.000 HD
ATOM     61   O  NAG B   4      18.150  42.508 -11.9620  0.00  0.00     0.000 O
ATOM     63  HD  NAG B   4      17.379  42.419 -11.5780  0.00  0.00     0.000 HD
ENDBRANCH 47 50
ENDBRANCH 34 47
ENDBRANCH 33 37
ENDBRANCH 17 33
ENDBRANCH 16 19
ENDBRANCH 1 16
TORSDOF 10
ENDMDL
MODEL 31
REMARK VINA RESULT:      -8.3     26.957     29.808
ROOT
ATOM      1  C1  GCU B   1      -2.917  55.416   4.2390  0.00  0.00     0.000 C
ATOM      2  C2  GCU B   1      -3.259  56.360   3.0970  0.00  0.00     0.000 C
ATOM      3  C3  GCU B   1      -4.743  56.288   2.7720  0.00  0.00     0.000 C
ATOM      4  C4  GCU B   1      -5.165  54.841   2.5650  0.00  0.00     0.000 C
ATOM      5  C5  GCU B   1      -4.722  53.965   3.7380  0.00  0.00     0.000 C
ATOM      6  O5  GCU B   1      -3.300  54.074   3.8950  0.00  0.00     0.000 O
ATOM      7   O  GCU B   1      -2.895  57.677   3.5010  0.00  0.00     0.000 O
ATOM      9  HD  GCU B   1      -2.395  58.227   3.0580  0.00  0.00     0.000 HD
ATOM      9   O  GCU B   1      -5.040  57.051   1.6010  0.00  0.00     0.000 O
ATOM     11  HD  GCU B   1      -4.540  57.602   1.1570  0.00  0.00     0.000 HD
ATOM     11   O  GCU B   1      -6.586  54.790   2.4330  0.00  0.00     0.000 O
ATOM     13  HD  GCU B   1      -6.086  55.340   1.9890  0.00  0.00     0.000 HD
ENDROOT
BRANCH 5 13
ATOM     13   C  GCU B   1      -5.166  52.540   3.5120  0.00  0.00     0.000 C
ATOM     14   O  GCU B   1      -5.248  51.745   4.4700  0.00  0.00     0.000 OA
ATOM     15   O  GCU B   1      -5.467  52.211   2.3480  0.00  0.00     0.000 OA
ENDBRANCH 5 13
BRANCH 1 16
ATOM     16  O3  NAG B   2      -1.738  54.845   4.4980  0.00  0.00     0.000 O
BRANCH 16 19
ATOM     17  C1  NAG B   2      -0.644  52.816   7.4840  0.00  0.00     0.000 C
ATOM     18  C2  NAG B   2      -1.243  53.998   6.7320  0.00  0.00     0.000 C
ATOM     19  C3  NAG B   2      -1.348  53.681   5.2420  0.00  0.00     0.000 C
ATOM     20  C4  NAG B   2       0.001  53.203   4.7030  0.00  0.00     0.000 C
ATOM     21  C5  NAG B   2       0.495  52.022   5.5250  0.00  0.00     0.000 C
ATOM     22  O5  NAG B   2       0.610  52.427   6.9010  0.00  0.00     0.000 O
ATOM     23   O  NAG B   2      -0.165  52.844   3.3270  0.00  0.00     0.000 O
ATOM     25  HD  NAG B   2       0.318  53.542   3.4970  0.00  0.00     0.000 HD
ATOM     25   C  NAG B   2       1.835  51.479   5.0330  0.00  0.00     0.000 C
ATOM     26   O  NAG B   2       2.919  52.361   5.3650  0.00  0.00     0.000 O
ATOM     28  HD  NAG B   2       3.402  53.059   5.5360  0.00  0.00     0.000 HD
BRANCH 18 30
ATOM     28   N  NAG B   2      -2.324  54.224   7.6730  0.00  0.00     0.000 N
ATOM     30  HD  NAG B   2      -2.142  55.021   7.3870  0.00  0.00     0.000 HD
ATOM     30   C  NAG B   2      -2.755  55.438   8.0380  0.00  0.00     0.000 C
ATOM     31   C  NAG B   2      -3.856  55.509   9.0580  0.00  0.00     0.000 C
ATOM     32   O  NAG B   2      -2.279  56.453   7.5710  0.00  0.00     0.000 OA
ENDBRANCH 18 30
BRANCH 17 33
ATOM     33  O4  GCU B   3      -0.538  53.191   8.8720  0.00  0.00     0.000 O
BRANCH 33 37
ATOM     34  C1  GCU B   3       0.445  50.916  12.2170  0.00  0.00     0.000 C
ATOM     35  C2  GCU B   3       1.587  51.591  11.4570  0.00  0.00     0.000 C
ATOM     36  C3  GCU B   3       1.030  52.684  10.5710  0.00  0.00     0.000 C
ATOM     37  C4  GCU B   3      -0.044  52.106   9.6600  0.00  0.00     0.000 C
ATOM     38  C5  GCU B   3      -1.141  51.457  10.5060  0.00  0.00     0.000 C
ATOM     39  O5  GCU B   3      -0.549  50.432  11.3100  0.00  0.00     0.000 O
ATOM     40   O  GCU B   3       2.510  52.141  12.4000  0.00  0.00     0.000 O
ATOM     42  HD  GCU B   3       2.940  52.868  12.5930  0.00  0.00     0.000 HD
ATOM     42   O  GCU B   3       2.070  53.294   9.7850  0.00  0.00     0.000 O
ATOM     44  HD  GCU B   3       2.500  54.021   9.9780  0.00  0.00     0.000 HD
BRANCH 38 44
ATOM     44   C  GCU B   3      -2.232  50.838   9.6680  0.00  0.00     0.000 C
ATOM     45   O  GCU B   3      -1.954  49.856   8.9630  0.00  0.00     0.000 OA
ATOM     46   O  GCU B   3      -3.382  51.316   9.7000  0.00  0.00     0.000 OA
ENDBRANCH 38 44
BRANCH 34 47
ATOM     47  O3  NAG B   4       0.916  49.836  12.8250  0.00  0.00     0.000 O
BRANCH 47 50
ATOM     48  C1  NAG B   4       2.123  47.524  15.4620  0.00  0.00     0.000 C
ATOM     49  C2  NAG B   4       2.207  48.540  14.3280  0.00  0.00     0.000 C
ATOM     50  C3  NAG B   4       0.887  49.269  14.1340  0.00  0.00     0.000 C
ATOM     51  C4  NAG B   4      -0.344  48.365  14.2700  0.00  0.00     0.000 C
ATOM     52  C5  NAG B   4      -0.402  47.718  15.6440  0.00  0.00     0.000 C
ATOM     53  O5  NAG B   4       0.874  47.243  16.1270  0.00  0.00     0.000 O
BRANCH 49 56
ATOM     54   N  NAG B   4       2.934  49.562  15.1010  0.00  0.00     0.000 N
ATOM     56  HD  NAG B   4       2.678  49.902  15.8560  0.00  0.00     0.000 HD
ATOM     56   C  NAG B   4       4.642  51.191  15.6650  0.00  0.00     0.000 C
ATOM     57   O  NAG B   4       4.470  50.193  13.5500  0.00  0.00     0.000 OA
ATOM     58   C  NAG B   4       3.998  50.271  14.6740  0.00  0.00     0.000 C
ENDBRANCH 49 56
ATOM     59   O  NAG B   4      -1.805  46.155  16.9420  0.00  0.00     0.000 O
ATOM     61  HD  NAG B   4      -1.127  46.282  16.4180  0.00  0.00     0.000 HD
ATOM     61   O  NAG B   4      -1.805  46.155  16.9420  0.00  0.00     0.000 O
ATOM     63  HD  NAG B   4      -1.127  46.282  16.4180  0.00  0.00     0.000 HD
ENDBRANCH 47 50
ENDBRANCH 34 47
ENDBRANCH 33 37
ENDBRANCH 17 33
ENDBRANCH 16 19
ENDBRANCH 1 16
TORSDOF 10
ENDMDL
MODEL 32
REMARK VINA RESULT:      -8.2      9.832     13.026
ROOT
ATOM      1  C1  GCU B   1       4.515  28.287  -3.0410  0.00  0.00     0.000 C
ATOM      2  C2  GCU B   1       3.298  29.158  -3.3100  0.00  0.00     0.000 C
ATOM      3  C3  GCU B   1       3.125  29.384  -4.8040  0.00  0.00     0.000 C
ATOM      4  C4  GCU B   1       4.426  29.883  -5.4140  0.00  0.00     0.000 C
ATOM      5  C5  GCU B   1       5.596  28.974  -5.0340  0.00  0.00     0.000 C
ATOM      6  O5  GCU B   1       5.687  28.898  -3.6050  0.00  0.00     0.000 O
ATOM      7   O  GCU B   1       2.162  28.493  -2.7660  0.00  0.00     0.000 O
ATOM      9  HD  GCU B   1       1.583  28.835  -2.2200  0.00  0.00     0.000 HD
ATOM      9   O  GCU B   1       2.080  30.329  -5.0530  0.00  0.00     0.000 O
ATOM     11  HD  GCU B   1       1.502  30.670  -4.5070  0.00  0.00     0.000 HD
ATOM     11   O  GCU B   1       4.285  29.922  -6.8340  0.00  0.00     0.000 O
ATOM     13  HD  GCU B   1       3.706  30.264  -6.2880  0.00  0.00     0.000 HD
ENDROOT
BRANCH 5 13
ATOM     13   C  GCU B   1       6.869  29.485  -5.6640  0.00  0.00     0.000 C
ATOM     14   O  GCU B   1       7.863  28.737  -5.7750  0.00  0.00     0.000 OA
ATOM     15   O  GCU B   1       6.870  30.657  -6.0860  0.00  0.00     0.000 OA
ENDBRANCH 5 13
BRANCH 1 16
ATOM     16  O3  NAG B   2       5.260  28.248  -1.9340  0.00  0.00     0.000 O
BRANCH 16 19
ATOM     17  C1  NAG B   2       5.814  25.475   0.5620  0.00  0.00     0.000 C
ATOM     18  C2  NAG B   2       5.024  26.456  -0.2950  0.00  0.00     0.000 C
ATOM     19  C3  NAG B   2       5.959  27.196  -1.2510  0.00  0.00     0.000 C
ATOM     20  C4  NAG B   2       7.122  27.821  -0.4800  0.00  0.00     0.000 C
ATOM     21  C5  NAG B   2       7.836  26.750   0.3320  0.00  0.00     0.000 C
ATOM     22  O5  NAG B   2       6.893  26.144   1.2350  0.00  0.00     0.000 O
ATOM     23   O  NAG B   2       8.008  28.435  -1.4220  0.00  0.00     0.000 O
ATOM     25  HD  NAG B   2       7.569  28.961  -0.8920  0.00  0.00     0.000 HD
ATOM     25   C  NAG B   2       9.024  27.300   1.1190  0.00  0.00     0.000 C
ATOM     26   O  NAG B   2       8.598  28.086   2.2430  0.00  0.00     0.000 O
ATOM     28  HD  NAG B   2       8.159  28.612   2.7730  0.00  0.00     0.000 HD
BRANCH 18 30
ATOM     28   N  NAG B   2       3.977  25.556  -0.7410  0.00  0.00     0.000 N
ATOM     30  HD  NAG B   2       3.548  26.289  -0.5680  0.00  0.00     0.000 HD
ATOM     30   C  NAG B   2       2.673  25.857  -0.7100  0.00  0.00     0.000 C
ATOM     31   C  NAG B   2       1.704  24.801  -1.1640  0.00  0.00     0.000 C
ATOM     32   O  NAG B   2       2.273  26.938  -0.3290  0.00  0.00     0.000 OA
ENDBRANCH 18 30
BRANCH 17 33
ATOM     33  O4  GCU B   3       4.886  24.838   1.4620  0.00  0.00     0.000 O
BRANCH 33 37
ATOM     34  C1  GCU B   3       5.245  21.383   3.7570  0.00  0.00     0.000 C
ATOM     35  C2  GCU B   3       5.892  22.660   4.2920  0.00  0.00     0.000 C
ATOM     36  C3  GCU B   3       5.311  23.861   3.5760  0.00  0.00     0.000 C
ATOM     37  C4  GCU B   3       5.472  23.686   2.0720  0.00  0.00     0.000 C
ATOM     38  C5  GCU B   3       4.794  22.388   1.6300  0.00  0.00     0.000 C
ATOM     39  O5  GCU B   3       5.393  21.297   2.3370  0.00  0.00     0.000 O
ATOM     40   O  GCU B   3       5.641  22.754   5.6960  0.00  0.00     0.000 O
ATOM     42  HD  GCU B   3       5.353  23.298   6.3060  0.00  0.00     0.000 HD
ATOM     42   O  GCU B   3       5.950  25.078   4.0030  0.00  0.00     0.000 O
ATOM     44  HD  GCU B   3       5.662  25.622   4.6130  0.00  0.00     0.000 HD
BRANCH 38 44
ATOM     44   C  GCU B   3       4.933  22.133   0.1500  0.00  0.00     0.000 C
ATOM     45   O  GCU B   3       3.977  22.404  -0.5920  0.00  0.00     0.000 OA
ATOM     46   O  GCU B   3       5.997  21.664  -0.2980  0.00  0.00     0.000 OA
ENDBRANCH 38 44
BRANCH 34 47
ATOM     47  O3  NAG B   4       5.902  20.337   4.2390  0.00  0.00     0.000 O
BRANCH 47 50
ATOM     48  C1  NAG B   4       8.976  18.267   4.0860  0.00  0.00     0.000 C
ATOM     49  C2  NAG B   4       7.762  19.034   3.5720  0.00  0.00     0.000 C
ATOM     50  C3  NAG B   4       7.242  20.016   4.6080  0.00  0.00     0.000 C
ATOM     51  C4  NAG B   4       7.258  19.469   6.0400  0.00  0.00     0.000 C
ATOM     52  C5  NAG B   4       8.666  19.089   6.4690  0.00  0.00     0.000 C
ATOM     53  O5  NAG B   4       9.429  18.407   5.4490  0.00  0.00     0.000 O
BRANCH 49 56
ATOM     54   N  NAG B   4       8.274  20.113   2.7090  0.00  0.00     0.000 N
ATOM     56  HD  NAG B   4       8.297  20.954   2.9110  0.00  0.00     0.000 HD
ATOM     56   C  NAG B   4       9.194  21.205   0.7460  0.00  0.00     0.000 C
ATOM     57   O  NAG B   4       8.460  18.977   0.7480  0.00  0.00     0.000 OA
ATOM     58   C  NAG B   4       8.600  19.998   1.4060  0.00  0.00     0.000 C
ENDBRANCH 49 56
ATOM     59   O  NAG B   4       9.863  18.143   8.4100  0.00  0.00     0.000 O
ATOM     61  HD  NAG B   4       9.461  18.016   7.6530  0.00  0.00     0.000 HD
ATOM     61   O  NAG B   4       9.863  18.143   8.4100  0.00  0.00     0.000 O
ATOM     63  HD  NAG B   4       9.461  18.016   7.6530  0.00  0.00     0.000 HD
ENDBRANCH 47 50
ENDBRANCH 34 47
ENDBRANCH 33 37
ENDBRANCH 17 33
ENDBRANCH 16 19
ENDBRANCH 1 16
TORSDOF 10
ENDMDL
MODEL 33
REMARK VINA RESULT:      -8.2      9.925     13.635
ROOT
ATOM      1  C1  GCU B   1       4.305  26.457   0.9410  0.00  0.00     0.000 C
ATOM      2  C2  GCU B   1       5.653  25.810   1.2190  0.00  0.00     0.000 C
ATOM      3  C3  GCU B   1       6.573  26.784   1.9370  0.00  0.00     0.000 C
ATOM      4  C4  GCU B   1       6.631  28.104   1.1840  0.00  0.00     0.000 C
ATOM      5  C5  GCU B   1       5.226  28.639   0.9010  0.00  0.00     0.000 C
ATOM      6  O5  GCU B   1       4.488  27.653   0.1660  0.00  0.00     0.000 O
ATOM      7   O  GCU B   1       5.421  24.653   2.0170  0.00  0.00     0.000 O
ATOM      9  HD  GCU B   1       5.705  23.852   1.8510  0.00  0.00     0.000 HD
ATOM      9   O  GCU B   1       7.889  26.238   2.0590  0.00  0.00     0.000 O
ATOM     11  HD  GCU B   1       8.173  25.437   1.8930  0.00  0.00     0.000 HD
ATOM     11   O  GCU B   1       7.360  29.051   1.9660  0.00  0.00     0.000 O
ATOM     13  HD  GCU B   1       7.645  28.250   1.8000  0.00  0.00     0.000 HD
ENDROOT
BRANCH 5 13
ATOM     13   C  GCU B   1       5.316  29.954   0.1660  0.00  0.00     0.000 C
ATOM     14   O  GCU B   1       5.465  31.021   0.7960  0.00  0.00     0.000 OA
ATOM     15   O  GCU B   1       5.263  29.921  -1.0790  0.00  0.00     0.000 OA
ENDBRANCH 5 13
BRANCH 1 16
ATOM     16  O3  NAG B   2       3.439  26.150  -0.0280  0.00  0.00     0.000 O
BRANCH 16 19
ATOM     17  C1  NAG B   2      -0.117  24.897   0.0540  0.00  0.00     0.000 C
ATOM     18  C2  NAG B   2       1.378  24.898   0.3430  0.00  0.00     0.000 C
ATOM     19  C3  NAG B   2       2.008  26.208  -0.1270  0.00  0.00     0.000 C
ATOM     20  C4  NAG B   2       1.643  26.480  -1.5860  0.00  0.00     0.000 C
ATOM     21  C5  NAG B   2       0.131  26.458  -1.7520  0.00  0.00     0.000 C
ATOM     22  O5  NAG B   2      -0.366  25.175  -1.3330  0.00  0.00     0.000 O
ATOM     23   O  NAG B   2       2.188  27.751  -1.9580  0.00  0.00     0.000 O
ATOM     25  HD  NAG B   2       2.534  27.049  -2.3300  0.00  0.00     0.000 HD
ATOM     25   C  NAG B   2      -0.310  26.740  -3.1870  0.00  0.00     0.000 C
ATOM     26   O  NAG B   2      -0.046  25.623  -4.0520  0.00  0.00     0.000 O
ATOM     28  HD  NAG B   2       0.299  24.922  -4.4230  0.00  0.00     0.000 HD
BRANCH 18 30
ATOM     28   N  NAG B   2       1.236  24.382   1.6910  0.00  0.00     0.000 N
ATOM     30  HD  NAG B   2       2.008  24.077   1.4440  0.00  0.00     0.000 HD
ATOM     30   C  NAG B   2       2.096  23.527   2.2580  0.00  0.00     0.000 C
ATOM     31   C  NAG B   2       1.788  23.047   3.6490  0.00  0.00     0.000 C
ATOM     32   O  NAG B   2       3.093  23.143   1.6790  0.00  0.00     0.000 OA
ENDBRANCH 18 30
BRANCH 17 33
ATOM     33  O4  GCU B   3      -0.644  23.626   0.4860  0.00  0.00     0.000 O
BRANCH 33 37
ATOM     34  C1  GCU B   3      -4.549  22.442   1.3090  0.00  0.00     0.000 C
ATOM     35  C2  GCU B   3      -4.075  22.363  -0.1420  0.00  0.00     0.000 C
ATOM     36  C3  GCU B   3      -2.562  22.413  -0.1850  0.00  0.00     0.000 C
ATOM     37  C4  GCU B   3      -2.071  23.655   0.5460  0.00  0.00     0.000 C
ATOM     38  C5  GCU B   3      -2.591  23.645   1.9840  0.00  0.00     0.000 C
ATOM     39  O5  GCU B   3      -4.021  23.606   1.9510  0.00  0.00     0.000 O
ATOM     40   O  GCU B   3      -4.546  21.143  -0.7180  0.00  0.00     0.000 O
ATOM     42  HD  GCU B   3      -4.282  20.453  -1.1700  0.00  0.00     0.000 HD
ATOM     42   O  GCU B   3      -2.082  22.414  -1.5410  0.00  0.00     0.000 O
ATOM     44  HD  GCU B   3      -1.819  21.723  -1.9930  0.00  0.00     0.000 HD
BRANCH 38 44
ATOM     44   C  GCU B   3      -2.164  24.863   2.7660  0.00  0.00     0.000 C
ATOM     45   O  GCU B   3      -1.353  24.718   3.6930  0.00  0.00     0.000 OA
ATOM     46   O  GCU B   3      -2.624  25.981   2.4670  0.00  0.00     0.000 OA
ENDBRANCH 38 44
BRANCH 34 47
ATOM     47  O3  NAG B   4      -5.865  22.606   1.3200  0.00  0.00     0.000 O
BRANCH 47 50
ATOM     48  C1  NAG B   4      -8.996  23.952   2.7830  0.00  0.00     0.000 C
ATOM     49  C2  NAG B   4      -7.703  23.146   2.7100  0.00  0.00     0.000 C
ATOM     50  C3  NAG B   4      -6.792  23.652   1.6030  0.00  0.00     0.000 C
ATOM     51  C4  NAG B   4      -7.536  24.035   0.3180  0.00  0.00     0.000 C
ATOM     52  C5  NAG B   4      -8.555  25.132   0.5770  0.00  0.00     0.000 C
ATOM     53  O5  NAG B   4      -9.308  24.960   1.7980  0.00  0.00     0.000 O
BRANCH 49 56
ATOM     54   N  NAG B   4      -7.135  23.788   3.9080  0.00  0.00     0.000 N
ATOM     56  HD  NAG B   4      -7.190  24.629   4.1060  0.00  0.00     0.000 HD
ATOM     56   C  NAG B   4      -5.902  24.026   5.9860  0.00  0.00     0.000 C
ATOM     57   O  NAG B   4      -5.813  22.096   4.6560  0.00  0.00     0.000 OA
ATOM     58   C  NAG B   4      -6.278  23.220   4.7810  0.00  0.00     0.000 C
ENDBRANCH 49 56
ATOM     59   O  NAG B   4     -10.251  26.463  -0.6260  0.00  0.00     0.000 O
ATOM     61  HD  NAG B   4     -10.056  25.764  -0.1520  0.00  0.00     0.000 HD
ATOM     61   O  NAG B   4     -10.251  26.463  -0.6260  0.00  0.00     0.000 O
ATOM     63  HD  NAG B   4     -10.056  25.764  -0.1520  0.00  0.00     0.000 HD
ENDBRANCH 47 50
ENDBRANCH 34 47
ENDBRANCH 33 37
ENDBRANCH 17 33
ENDBRANCH 16 19
ENDBRANCH 1 16
TORSDOF 10
ENDMDL
MODEL 34
REMARK VINA RESULT:      -8.2      6.919     17.244
ROOT
ATOM      1  C1  GCU B   1      -6.078  22.938   3.8650  0.00  0.00     0.000 C
ATOM      2  C2  GCU B   1      -5.934  22.824   5.3750  0.00  0.00     0.000 C
ATOM      3  C3  GCU B   1      -6.184  21.393   5.8260  0.00  0.00     0.000 C
ATOM      4  C4  GCU B   1      -7.502  20.887   5.2610  0.00  0.00     0.000 C
ATOM      5  C5  GCU B   1      -7.571  21.104   3.7480  0.00  0.00     0.000 C
ATOM      6  O5  GCU B   1      -7.385  22.497   3.4640  0.00  0.00     0.000 O
ATOM      7   O  GCU B   1      -4.614  23.237   5.7160  0.00  0.00     0.000 O
ATOM      9  HD  GCU B   1      -4.402  23.832   6.3080  0.00  0.00     0.000 HD
ATOM      9   O  GCU B   1      -6.207  21.312   7.2540  0.00  0.00     0.000 O
ATOM     11  HD  GCU B   1      -5.995  21.907   7.8460  0.00  0.00     0.000 HD
ATOM     11   O  GCU B   1      -7.627  19.496   5.5560  0.00  0.00     0.000 O
ATOM     13  HD  GCU B   1      -7.415  20.091   6.1480  0.00  0.00     0.000 HD
ENDROOT
BRANCH 5 13
ATOM     13   C  GCU B   1      -8.882  20.580   3.2130  0.00  0.00     0.000 C
ATOM     14   O  GCU B   1      -9.817  21.366   2.9530  0.00  0.00     0.000 OA
ATOM     15   O  GCU B   1      -8.974  19.352   3.0210  0.00  0.00     0.000 OA
ENDBRANCH 5 13
BRANCH 1 16
ATOM     16  O3  NAG B   2      -6.399  24.024   3.1590  0.00  0.00     0.000 O
BRANCH 16 19
ATOM     17  C1  NAG B   2      -4.526  25.477   0.2250  0.00  0.00     0.000 C
ATOM     18  C2  NAG B   2      -4.716  24.877   1.6120  0.00  0.00     0.000 C
ATOM     19  C3  NAG B   2      -6.163  24.424   1.8000  0.00  0.00     0.000 C
ATOM     20  C4  NAG B   2      -7.124  25.564   1.4650  0.00  0.00     0.000 C
ATOM     21  C5  NAG B   2      -6.845  26.079   0.0610  0.00  0.00     0.000 C
ATOM     22  O5  NAG B   2      -5.479  26.527  -0.0070  0.00  0.00     0.000 O
ATOM     23   O  NAG B   2      -8.464  25.072   1.5800  0.00  0.00     0.000 O
ATOM     25  HD  NAG B   2      -8.207  25.658   2.1640  0.00  0.00     0.000 HD
ATOM     25   C  NAG B   2      -7.782  27.213  -0.3500  0.00  0.00     0.000 C
ATOM     26   O  NAG B   2      -7.462  28.437   0.3280  0.00  0.00     0.000 O
ATOM     28  HD  NAG B   2      -7.205  29.023   0.9110  0.00  0.00     0.000 HD
BRANCH 18 30
ATOM     28   N  NAG B   2      -3.566  23.993   1.5910  0.00  0.00     0.000 N
ATOM     30  HD  NAG B   2      -3.577  24.282   2.4070  0.00  0.00     0.000 HD
ATOM     30   C  NAG B   2      -2.714  23.851   2.6140  0.00  0.00     0.000 C
ATOM     31   C  NAG B   2      -1.542  22.930   2.4230  0.00  0.00     0.000 C
ATOM     32   O  NAG B   2      -2.869  24.443   3.6630  0.00  0.00     0.000 OA
ENDBRANCH 18 30
BRANCH 17 33
ATOM     33  O4  GCU B   3      -3.156  25.916   0.1240  0.00  0.00     0.000 O
BRANCH 33 37
ATOM     34  C1  GCU B   3      -0.847  26.916  -3.1930  0.00  0.00     0.000 C
ATOM     35  C2  GCU B   3      -1.836  27.961  -2.6750  0.00  0.00     0.000 C
ATOM     36  C3  GCU B   3      -2.255  27.608  -1.2640  0.00  0.00     0.000 C
ATOM     37  C4  GCU B   3      -2.804  26.188  -1.2330  0.00  0.00     0.000 C
ATOM     38  C5  GCU B   3      -1.748  25.217  -1.7640  0.00  0.00     0.000 C
ATOM     39  O5  GCU B   3      -1.405  25.602  -3.1000  0.00  0.00     0.000 O
ATOM     40   O  GCU B   3      -1.207  29.244  -2.6980  0.00  0.00     0.000 O
ATOM     42  HD  GCU B   3      -1.058  29.942  -2.2080  0.00  0.00     0.000 HD
ATOM     42   O  GCU B   3      -3.242  28.531  -0.7710  0.00  0.00     0.000 O
ATOM     44  HD  GCU B   3      -3.092  29.229  -0.2800  0.00  0.00     0.000 HD
BRANCH 38 44
ATOM     44   C  GCU B   3      -2.231  23.788  -1.7880  0.00  0.00     0.000 C
ATOM     45   O  GCU B   3      -2.963  23.425  -2.7210  0.00  0.00     0.000 OA
ATOM     46   O  GCU B   3      -1.888  23.005  -0.8820  0.00  0.00     0.000 OA
ENDBRANCH 38 44
BRANCH 34 47
ATOM     47  O3  NAG B   4      -0.650  27.118  -4.4880  0.00  0.00     0.000 O
BRANCH 47 50
ATOM     48  C1  NAG B   4       1.712  28.650  -6.9020  0.00  0.00     0.000 C
ATOM     49  C2  NAG B   4       0.890  28.510  -5.6260  0.00  0.00     0.000 C
ATOM     50  C3  NAG B   4       0.442  27.075  -5.4050  0.00  0.00     0.000 C
ATOM     51  C4  NAG B   4       0.000  26.362  -6.6890  0.00  0.00     0.000 C
ATOM     52  C5  NAG B   4       1.127  26.314  -7.7080  0.00  0.00     0.000 C
ATOM     53  O5  NAG B   4       1.880  27.542  -7.8120  0.00  0.00     0.000 O
BRANCH 49 56
ATOM     54   N  NAG B   4       1.659  28.593  -4.3720  0.00  0.00     0.000 N
ATOM     56  HD  NAG B   4       1.422  28.256  -3.6100  0.00  0.00     0.000 HD
ATOM     56   C  NAG B   4       3.428  29.221  -2.8320  0.00  0.00     0.000 C
ATOM     57   O  NAG B   4       3.202  30.150  -4.9730  0.00  0.00     0.000 OA
ATOM     58   C  NAG B   4       2.743  29.366  -4.1560  0.00  0.00     0.000 C
ENDBRANCH 49 56
ATOM     59   O  NAG B   4       1.577  25.501  -9.9950  0.00  0.00     0.000 O
ATOM     61  HD  NAG B   4       1.330  26.146  -9.4730  0.00  0.00     0.000 HD
ATOM     61   O  NAG B   4       1.577  25.501  -9.9950  0.00  0.00     0.000 O
ATOM     63  HD  NAG B   4       1.330  26.146  -9.4730  0.00  0.00     0.000 HD
ENDBRANCH 47 50
ENDBRANCH 34 47
ENDBRANCH 33 37
ENDBRANCH 17 33
ENDBRANCH 16 19
ENDBRANCH 1 16
TORSDOF 10
ENDMDL
MODEL 35
REMARK VINA RESULT:      -8.2      3.823      6.429
ROOT
ATOM      1  C1  GCU B   1       9.798  31.918  -5.6700  0.00  0.00     0.000 C
ATOM      2  C2  GCU B   1      11.289  31.870  -5.3750  0.00  0.00     0.000 C
ATOM      3  C3  GCU B   1      11.714  33.095  -4.5800  0.00  0.00     0.000 C
ATOM      4  C4  GCU B   1      11.231  34.362  -5.2690  0.00  0.00     0.000 C
ATOM      5  C5  GCU B   1       9.734  34.284  -5.5760  0.00  0.00     0.000 C
ATOM      6  O5  GCU B   1       9.479  33.125  -6.3810  0.00  0.00     0.000 O
ATOM      7   O  GCU B   1      11.546  30.678  -4.6400  0.00  0.00     0.000 O
ATOM      9  HD  GCU B   1      12.139  30.076  -4.8320  0.00  0.00     0.000 HD
ATOM      9   O  GCU B   1      13.136  33.135  -4.4380  0.00  0.00     0.000 O
ATOM     11  HD  GCU B   1      13.729  32.533  -4.6310  0.00  0.00     0.000 HD
ATOM     11   O  GCU B   1      11.492  35.478  -4.4190  0.00  0.00     0.000 O
ATOM     13  HD  GCU B   1      12.085  34.877  -4.6110  0.00  0.00     0.000 HD
ENDROOT
BRANCH 5 13
ATOM     13   C  GCU B   1       9.280  35.558  -6.2460  0.00  0.00     0.000 C
ATOM     14   O  GCU B   1       9.557  35.775  -7.4430  0.00  0.00     0.000 OA
ATOM     15   O  GCU B   1       8.604  36.354  -5.5660  0.00  0.00     0.000 OA
ENDBRANCH 5 13
BRANCH 1 16
ATOM     16  O3  NAG B   2       9.149  31.337  -6.6810  0.00  0.00     0.000 O
BRANCH 16 19
ATOM     17  C1  NAG B   2       5.711  29.818  -6.9920  0.00  0.00     0.000 C
ATOM     18  C2  NAG B   2       7.120  30.002  -6.4450  0.00  0.00     0.000 C
ATOM     19  C3  NAG B   2       7.763  31.251  -7.0460  0.00  0.00     0.000 C
ATOM     20  C4  NAG B   2       7.674  31.214  -8.5710  0.00  0.00     0.000 C
ATOM     21  C5  NAG B   2       6.225  31.031  -8.9990  0.00  0.00     0.000 C
ATOM     22  O5  NAG B   2       5.721  29.810  -8.4280  0.00  0.00     0.000 O
ATOM     23   O  NAG B   2       8.217  32.435  -9.0840  0.00  0.00     0.000 O
ATOM     25  HD  NAG B   2       8.662  31.709  -9.2410  0.00  0.00     0.000 HD
ATOM     25   C  NAG B   2       6.057  31.001 -10.5160  0.00  0.00     0.000 C
ATOM     26   O  NAG B   2       6.537  29.770 -11.0790  0.00  0.00     0.000 O
ATOM     28  HD  NAG B   2       6.982  29.044 -11.2350  0.00  0.00     0.000 HD
BRANCH 18 30
ATOM     28   N  NAG B   2       6.823  29.859  -5.0320  0.00  0.00     0.000 N
ATOM     30  HD  NAG B   2       7.561  29.416  -5.1240  0.00  0.00     0.000 HD
ATOM     30   C  NAG B   2       7.522  29.080  -4.1980  0.00  0.00     0.000 C
ATOM     31   C  NAG B   2       7.063  29.001  -2.7690  0.00  0.00     0.000 C
ATOM     32   O  NAG B   2       8.492  28.451  -4.5700  0.00  0.00     0.000 OA
ENDBRANCH 18 30
BRANCH 17 33
ATOM     33  O4  GCU B   3       5.174  28.609  -6.4170  0.00  0.00     0.000 O
BRANCH 33 37
ATOM     34  C1  GCU B   3       1.384  26.908  -6.6770  0.00  0.00     0.000 C
ATOM     35  C2  GCU B   3       2.326  26.727  -7.8670  0.00  0.00     0.000 C
ATOM     36  C3  GCU B   3       3.748  27.020  -7.4380  0.00  0.00     0.000 C
ATOM     37  C4  GCU B   3       3.818  28.408  -6.8170  0.00  0.00     0.000 C
ATOM     38  C5  GCU B   3       2.847  28.494  -5.6380  0.00  0.00     0.000 C
ATOM     39  O5  GCU B   3       1.526  28.215  -6.1130  0.00  0.00     0.000 O
ATOM     40   O  GCU B   3       2.221  25.382  -8.3410  0.00  0.00     0.000 O
ATOM     42  HD  GCU B   3       2.699  24.694  -8.5590  0.00  0.00     0.000 HD
ATOM     42   O  GCU B   3       4.654  26.930  -8.5520  0.00  0.00     0.000 O
ATOM     44  HD  GCU B   3       5.132  26.242  -8.7700  0.00  0.00     0.000 HD
BRANCH 38 44
ATOM     44   C  GCU B   3       2.843  29.854  -4.9860  0.00  0.00     0.000 C
ATOM     45   O  GCU B   3       3.764  30.142  -4.2070  0.00  0.00     0.000 OA
ATOM     46   O  GCU B   3       1.926  30.658  -5.2400  0.00  0.00     0.000 OA
ENDBRANCH 38 44
BRANCH 34 47
ATOM     47  O3  NAG B   4       0.132  26.851  -7.1100  0.00  0.00     0.000 O
BRANCH 47 50
ATOM     48  C1  NAG B   4      -2.188  25.984  -4.3500  0.00  0.00     0.000 C
ATOM     49  C2  NAG B   4      -1.066  26.721  -5.0730  0.00  0.00     0.000 C
ATOM     50  C3  NAG B   4      -1.152  26.529  -6.5780  0.00  0.00     0.000 C
ATOM     51  C4  NAG B   4      -1.535  25.105  -6.9980  0.00  0.00     0.000 C
ATOM     52  C5  NAG B   4      -2.888  24.709  -6.4320  0.00  0.00     0.000 C
ATOM     53  O5  NAG B   4      -3.095  25.115  -5.0610  0.00  0.00     0.000 O
BRANCH 49 56
ATOM     54   N  NAG B   4      -1.555  28.110  -5.1250  0.00  0.00     0.000 N
ATOM     56  HD  NAG B   4      -2.028  28.456  -5.7620  0.00  0.00     0.000 HD
ATOM     56   C  NAG B   4      -1.884  30.425  -4.4750  0.00  0.00     0.000 C
ATOM     57   O  NAG B   4      -0.342  29.005  -3.4240  0.00  0.00     0.000 OA
ATOM     58   C  NAG B   4      -1.186  29.111  -4.3010  0.00  0.00     0.000 C
ENDBRANCH 49 56
ATOM     59   O  NAG B   4      -4.440  22.790  -6.4040  0.00  0.00     0.000 O
ATOM     61  HD  NAG B   4      -3.788  23.221  -6.0320  0.00  0.00     0.000 HD
ATOM     61   O  NAG B   4      -4.440  22.790  -6.4040  0.00  0.00     0.000 O
ATOM     63  HD  NAG B   4      -3.788  23.221  -6.0320  0.00  0.00     0.000 HD
ENDBRANCH 47 50
ENDBRANCH 34 47
ENDBRANCH 33 37
ENDBRANCH 17 33
ENDBRANCH 16 19
ENDBRANCH 1 16
TORSDOF 10
ENDMDL
MODEL 36
REMARK VINA RESULT:      -8.2     11.020     16.709
ROOT
ATOM      1  C1  GCU B   1      -2.960  26.164  -1.6020  0.00  0.00     0.000 C
ATOM      2  C2  GCU B   1      -2.450  27.565  -1.9040  0.00  0.00     0.000 C
ATOM      3  C3  GCU B   1      -2.979  28.046  -3.2460  0.00  0.00     0.000 C
ATOM      4  C4  GCU B   1      -2.699  27.009  -4.3230  0.00  0.00     0.000 C
ATOM      5  C5  GCU B   1      -3.196  25.627  -3.8970  0.00  0.00     0.000 C
ATOM      6  O5  GCU B   1      -2.575  25.267  -2.6550  0.00  0.00     0.000 O
ATOM      7   O  GCU B   1      -2.889  28.421  -0.8530  0.00  0.00     0.000 O
ATOM      9  HD  GCU B   1      -2.390  28.951  -0.3840  0.00  0.00     0.000 HD
ATOM      9   O  GCU B   1      -2.377  29.292  -3.6070  0.00  0.00     0.000 O
ATOM     11  HD  GCU B   1      -1.878  29.823  -3.1380  0.00  0.00     0.000 HD
ATOM     11   O  GCU B   1      -3.354  27.408  -5.5280  0.00  0.00     0.000 O
ATOM     13  HD  GCU B   1      -2.855  27.938  -5.0590  0.00  0.00     0.000 HD
ENDROOT
BRANCH 5 13
ATOM     13   C  GCU B   1      -2.918  24.622  -4.9890  0.00  0.00     0.000 C
ATOM     14   O  GCU B   1      -3.791  24.361  -5.8430  0.00  0.00     0.000 OA
ATOM     15   O  GCU B   1      -1.788  24.098  -5.0130  0.00  0.00     0.000 OA
ENDBRANCH 5 13
BRANCH 1 16
ATOM     16  O3  NAG B   2      -2.393  25.242  -0.8210  0.00  0.00     0.000 O
BRANCH 16 19
ATOM     17  C1  NAG B   2      -3.702  23.392   2.1930  0.00  0.00     0.000 C
ATOM     18  C2  NAG B   2      -3.338  24.595   1.3330  0.00  0.00     0.000 C
ATOM     19  C3  NAG B   2      -2.910  24.139  -0.0610  0.00  0.00     0.000 C
ATOM     20  C4  NAG B   2      -1.816  23.077   0.0390  0.00  0.00     0.000 C
ATOM     21  C5  NAG B   2      -2.292  21.928   0.9160  0.00  0.00     0.000 C
ATOM     22  O5  NAG B   2      -2.624  22.442   2.2180  0.00  0.00     0.000 O
ATOM     23   O  NAG B   2      -1.502  22.626  -1.2830  0.00  0.00     0.000 O
ATOM     25  HD  NAG B   2      -0.894  23.080  -0.8660  0.00  0.00     0.000 HD
ATOM     25   C  NAG B   2      -1.252  20.817   1.0490  0.00  0.00     0.000 C
ATOM     26   O  NAG B   2      -0.160  21.211   1.8950  0.00  0.00     0.000 O
ATOM     28  HD  NAG B   2       0.448  21.664   2.3110  0.00  0.00     0.000 HD
BRANCH 18 30
ATOM     28   N  NAG B   2      -4.509  25.382   1.6700  0.00  0.00     0.000 N
ATOM     30  HD  NAG B   2      -3.889  25.979   1.5820  0.00  0.00     0.000 HD
ATOM     30   C  NAG B   2      -4.481  26.700   1.9040  0.00  0.00     0.000 C
ATOM     31   C  NAG B   2      -5.772  27.368   2.2860  0.00  0.00     0.000 C
ATOM     32   O  NAG B   2      -3.454  27.344   1.8170  0.00  0.00     0.000 OA
ENDBRANCH 18 30
BRANCH 17 33
ATOM     33  O4  GCU B   3      -4.061  23.883   3.5010  0.00  0.00     0.000 O
BRANCH 33 37
ATOM     34  C1  GCU B   3      -6.007  22.021   6.6750  0.00  0.00     0.000 C
ATOM     35  C2  GCU B   3      -4.511  21.754   6.5050  0.00  0.00     0.000 C
ATOM     36  C3  GCU B   3      -3.907  22.811   5.6050  0.00  0.00     0.000 C
ATOM     37  C4  GCU B   3      -4.667  22.856   4.2870  0.00  0.00     0.000 C
ATOM     38  C5  GCU B   3      -6.148  23.130   4.5560  0.00  0.00     0.000 C
ATOM     39  O5  GCU B   3      -6.656  22.093   5.4020  0.00  0.00     0.000 O
ATOM     40   O  GCU B   3      -3.886  21.783   7.7900  0.00  0.00     0.000 O
ATOM     42  HD  GCU B   3      -3.217  22.128   8.2180  0.00  0.00     0.000 HD
ATOM     42   O  GCU B   3      -2.512  22.550   5.3630  0.00  0.00     0.000 O
ATOM     44  HD  GCU B   3      -1.844  22.895   5.7920  0.00  0.00     0.000 HD
BRANCH 38 44
ATOM     44   C  GCU B   3      -6.972  23.163   3.2940  0.00  0.00     0.000 C
ATOM     45   O  GCU B   3      -7.295  22.088   2.7670  0.00  0.00     0.000 OA
ATOM     46   O  GCU B   3      -7.314  24.259   2.8080  0.00  0.00     0.000 OA
ENDBRANCH 38 44
BRANCH 34 47
ATOM     47  O3  NAG B   4      -6.559  20.984   7.2880  0.00  0.00     0.000 O
BRANCH 47 50
ATOM     48  C1  NAG B   4      -7.084  17.312   7.2910  0.00  0.00     0.000 C
ATOM     49  C2  NAG B   4      -7.022  18.730   6.7330  0.00  0.00     0.000 C
ATOM     50  C3  NAG B   4      -6.197  19.645   7.6230  0.00  0.00     0.000 C
ATOM     51  C4  NAG B   4      -6.423  19.416   9.1220  0.00  0.00     0.000 C
ATOM     52  C5  NAG B   4      -6.073  17.992   9.5200  0.00  0.00     0.000 C
ATOM     53  O5  NAG B   4      -6.525  16.990   8.5820  0.00  0.00     0.000 O
BRANCH 49 56
ATOM     54   N  NAG B   4      -5.985  18.537   5.7050  0.00  0.00     0.000 N
ATOM     56  HD  NAG B   4      -5.138  18.435   5.8540  0.00  0.00     0.000 HD
ATOM     56   C  NAG B   4      -4.979  18.344   3.5040  0.00  0.00     0.000 C
ATOM     57   O  NAG B   4      -7.186  19.057   3.8470  0.00  0.00     0.000 OA
ATOM     58   C  NAG B   4      -6.149  18.685   4.3750  0.00  0.00     0.000 C
ENDBRANCH 49 56
ATOM     59   O  NAG B   4      -6.050  16.535  11.5130  0.00  0.00     0.000 O
ATOM     61  HD  NAG B   4      -6.469  16.828  10.8140  0.00  0.00     0.000 HD
ATOM     61   O  NAG B   4      -6.050  16.535  11.5130  0.00  0.00     0.000 O
ATOM     63  HD  NAG B   4      -6.469  16.828  10.8140  0.00  0.00     0.000 HD
ENDBRANCH 47 50
ENDBRANCH 34 47
ENDBRANCH 33 37
ENDBRANCH 17 33
ENDBRANCH 16 19
ENDBRANCH 1 16
TORSDOF 10
ENDMDL
MODEL 37
REMARK VINA RESULT:      -8.1      5.344      7.412
ROOT
ATOM      1  C1  GCU B   1       6.543  31.141  -9.3910  0.00  0.00     0.000 C
ATOM      2  C2  GCU B   1       7.453  31.389 -10.5850  0.00  0.00     0.000 C
ATOM      3  C3  GCU B   1       7.030  32.650 -11.3230  0.00  0.00     0.000 C
ATOM      4  C4  GCU B   1       5.544  32.599 -11.6410  0.00  0.00     0.000 C
ATOM      5  C5  GCU B   1       4.724  32.284 -10.3890  0.00  0.00     0.000 C
ATOM      6  O5  GCU B   1       5.178  31.045  -9.8290  0.00  0.00     0.000 O
ATOM      7   O  GCU B   1       8.784  31.514 -10.0950  0.00  0.00     0.000 O
ATOM      9  HD  GCU B   1       9.476  31.074 -10.3770  0.00  0.00     0.000 HD
ATOM      9   O  GCU B   1       7.779  32.800 -12.5320  0.00  0.00     0.000 O
ATOM     11  HD  GCU B   1       8.470  32.361 -12.8140  0.00  0.00     0.000 HD
ATOM     11   O  GCU B   1       5.143  33.860 -12.1770  0.00  0.00     0.000 O
ATOM     13  HD  GCU B   1       5.834  33.421 -12.4590  0.00  0.00     0.000 HD
ENDROOT
BRANCH 5 13
ATOM     13   C  GCU B   1       3.254  32.254 -10.7310  0.00  0.00     0.000 C
ATOM     14   O  GCU B   1       2.656  31.165 -10.8520  0.00  0.00     0.000 OA
ATOM     15   O  GCU B   1       2.671  33.349 -10.8570  0.00  0.00     0.000 OA
ENDBRANCH 5 13
BRANCH 1 16
ATOM     16  O3  NAG B   2       6.273  29.974  -8.8030  0.00  0.00     0.000 O
BRANCH 16 19
ATOM     17  C1  NAG B   2       6.328  29.035  -5.1500  0.00  0.00     0.000 C
ATOM     18  C2  NAG B   2       6.855  29.600  -6.4630  0.00  0.00     0.000 C
ATOM     19  C3  NAG B   2       5.748  29.616  -7.5150  0.00  0.00     0.000 C
ATOM     20  C4  NAG B   2       5.104  28.235  -7.6320  0.00  0.00     0.000 C
ATOM     21  C5  NAG B   2       4.613  27.778  -6.2660  0.00  0.00     0.000 C
ATOM     22  O5  NAG B   2       5.729  27.746  -5.3570  0.00  0.00     0.000 O
ATOM     23   O  NAG B   2       4.025  28.318  -8.5690  0.00  0.00     0.000 O
ATOM     25  HD  NAG B   2       4.716  27.852  -8.8030  0.00  0.00     0.000 HD
ATOM     25   C  NAG B   2       3.942  26.407  -6.3080  0.00  0.00     0.000 C
ATOM     26   O  NAG B   2       4.900  25.352  -6.4860  0.00  0.00     0.000 O
ATOM     28  HD  NAG B   2       5.591  24.886  -6.7200  0.00  0.00     0.000 HD
BRANCH 18 30
ATOM     28   N  NAG B   2       7.579  30.669  -5.8020  0.00  0.00     0.000 N
ATOM     30  HD  NAG B   2       8.011  30.569  -6.5450  0.00  0.00     0.000 HD
ATOM     30   C  NAG B   2       8.718  31.198  -6.2660  0.00  0.00     0.000 C
ATOM     31   C  NAG B   2       9.374  32.271  -5.4430  0.00  0.00     0.000 C
ATOM     32   O  NAG B   2       9.215  30.830  -7.3120  0.00  0.00     0.000 OA
ENDBRANCH 18 30
BRANCH 17 33
ATOM     33  O4  GCU B   3       7.424  29.013  -4.2140  0.00  0.00     0.000 O
BRANCH 33 37
ATOM     34  C1  GCU B   3       7.384  28.183  -0.1350  0.00  0.00     0.000 C
ATOM     35  C2  GCU B   3       7.853  27.076  -1.0790  0.00  0.00     0.000 C
ATOM     36  C3  GCU B   3       8.204  27.673  -2.4260  0.00  0.00     0.000 C
ATOM     37  C4  GCU B   3       7.017  28.462  -2.9600  0.00  0.00     0.000 C
ATOM     38  C5  GCU B   3       6.623  29.544  -1.9530  0.00  0.00     0.000 C
ATOM     39  O5  GCU B   3       6.297  28.913  -0.7100  0.00  0.00     0.000 O
ATOM     40   O  GCU B   3       8.996  26.434  -0.5100  0.00  0.00     0.000 O
ATOM     42  HD  GCU B   3       9.802  26.180  -0.6970  0.00  0.00     0.000 HD
ATOM     42   O  GCU B   3       8.580  26.649  -3.3640  0.00  0.00     0.000 O
ATOM     44  HD  GCU B   3       9.387  26.396  -3.5510  0.00  0.00     0.000 HD
BRANCH 38 44
ATOM     44   C  GCU B   3       5.433  30.354  -2.4040  0.00  0.00     0.000 C
ATOM     45   O  GCU B   3       5.338  31.531  -2.0250  0.00  0.00     0.000 OA
ATOM     46   O  GCU B   3       4.578  29.834  -3.1460  0.00  0.00     0.000 OA
ENDBRANCH 38 44
BRANCH 34 47
ATOM     47  O3  NAG B   4       6.888  27.628   0.9620  0.00  0.00     0.000 O
BRANCH 47 50
ATOM     48  C1  NAG B   4       4.256  25.381   2.2970  0.00  0.00     0.000 C
ATOM     49  C2  NAG B   4       4.869  26.494   1.4540  0.00  0.00     0.000 C
ATOM     50  C3  NAG B   4       6.379  26.355   1.3580  0.00  0.00     0.000 C
ATOM     51  C4  NAG B   4       7.044  25.928   2.6720  0.00  0.00     0.000 C
ATOM     52  C5  NAG B   4       6.513  24.585   3.1470  0.00  0.00     0.000 C
ATOM     53  O5  NAG B   4       5.084  24.433   3.0030  0.00  0.00     0.000 O
BRANCH 49 56
ATOM     54   N  NAG B   4       4.550  25.943   0.1250  0.00  0.00     0.000 N
ATOM     56  HD  NAG B   4       4.887  25.223  -0.2170  0.00  0.00     0.000 HD
ATOM     56   C  NAG B   4       3.558  25.777  -2.0830  0.00  0.00     0.000 C
ATOM     57   O  NAG B   4       3.419  27.706  -0.7580  0.00  0.00     0.000 OA
ATOM     58   C  NAG B   4       3.846  26.564  -0.8420  0.00  0.00     0.000 C
ENDBRANCH 49 56
ATOM     59   O  NAG B   4       6.789  22.994   5.0140  0.00  0.00     0.000 O
ATOM     61  HD  NAG B   4       6.366  23.667   4.6700  0.00  0.00     0.000 HD
ATOM     61   O  NAG B   4       6.789  22.994   5.0140  0.00  0.00     0.000 O
ATOM     63  HD  NAG B   4       6.366  23.667   4.6700  0.00  0.00     0.000 HD
ENDBRANCH 47 50
ENDBRANCH 34 47
ENDBRANCH 33 37
ENDBRANCH 17 33
ENDBRANCH 16 19
ENDBRANCH 1 16
TORSDOF 10
ENDMDL
MODEL 38
REMARK VINA RESULT:      -8.1      9.358     17.746
ROOT
ATOM      1  C1  GCU B   1      -5.770  23.568   3.9600  0.00  0.00     0.000 C
ATOM      2  C2  GCU B   1      -7.105  24.218   3.6330  0.00  0.00     0.000 C
ATOM      3  C3  GCU B   1      -7.906  24.458   4.9030  0.00  0.00     0.000 C
ATOM      4  C4  GCU B   1      -7.992  23.178   5.7200  0.00  0.00     0.000 C
ATOM      5  C5  GCU B   1      -6.605  22.573   5.9410  0.00  0.00     0.000 C
ATOM      6  O5  GCU B   1      -5.986  22.337   4.6690  0.00  0.00     0.000 O
ATOM      7   O  GCU B   1      -6.835  25.448   2.9670  0.00  0.00     0.000 O
ATOM      9  HD  GCU B   1      -7.167  25.701   2.2080  0.00  0.00     0.000 HD
ATOM      9   O  GCU B   1      -9.222  24.921   4.5890  0.00  0.00     0.000 O
ATOM     11  HD  GCU B   1      -9.553  25.174   3.8300  0.00  0.00     0.000 HD
ATOM     11   O  GCU B   1      -8.597  23.473   6.9790  0.00  0.00     0.000 O
ATOM     13  HD  GCU B   1      -8.928  23.727   6.2200  0.00  0.00     0.000 HD
ENDROOT
BRANCH 5 13
ATOM     13   C  GCU B   1      -6.719  21.312   6.7650  0.00  0.00     0.000 C
ATOM     14   O  GCU B   1      -7.827  20.760   6.9220  0.00  0.00     0.000 OA
ATOM     15   O  GCU B   1      -5.670  20.845   7.2470  0.00  0.00     0.000 OA
ENDBRANCH 5 13
BRANCH 1 16
ATOM     16  O3  NAG B   2      -5.023  22.798   3.1660  0.00  0.00     0.000 O
BRANCH 16 19
ATOM     17  C1  NAG B   2      -1.565  23.318   1.7540  0.00  0.00     0.000 C
ATOM     18  C2  NAG B   2      -3.023  23.642   2.0530  0.00  0.00     0.000 C
ATOM     19  C3  NAG B   2      -3.607  22.612   3.0180  0.00  0.00     0.000 C
ATOM     20  C4  NAG B   2      -3.365  21.196   2.4960  0.00  0.00     0.000 C
ATOM     21  C5  NAG B   2      -1.880  20.988   2.2390  0.00  0.00     0.000 C
ATOM     22  O5  NAG B   2      -1.431  21.967   1.2840  0.00  0.00     0.000 O
ATOM     23   O  NAG B   2      -3.859  20.267   3.4670  0.00  0.00     0.000 O
ATOM     25  HD  NAG B   2      -4.283  20.313   2.7140  0.00  0.00     0.000 HD
ATOM     25   C  NAG B   2      -1.560  19.584   1.7280  0.00  0.00     0.000 C
ATOM     26   O  NAG B   2      -1.977  19.407   0.3660  0.00  0.00     0.000 O
ATOM     28  HD  NAG B   2      -2.401  19.453  -0.3880  0.00  0.00     0.000 HD
BRANCH 18 30
ATOM     28   N  NAG B   2      -3.250  24.872   1.3180  0.00  0.00     0.000 N
ATOM     30  HD  NAG B   2      -3.342  25.115   2.1440  0.00  0.00     0.000 HD
ATOM     30   C  NAG B   2      -3.645  26.018   1.8870  0.00  0.00     0.000 C
ATOM     31   C  NAG B   2      -3.881  27.198   0.9860  0.00  0.00     0.000 C
ATOM     32   O  NAG B   2      -3.812  26.114   3.0860  0.00  0.00     0.000 OA
ENDBRANCH 18 30
BRANCH 17 33
ATOM     33  O4  GCU B   3      -1.084  24.300   0.8140  0.00  0.00     0.000 O
BRANCH 33 37
ATOM     34  C1  GCU B   3       2.729  25.867   0.2370  0.00  0.00     0.000 C
ATOM     35  C2  GCU B   3       2.379  24.568  -0.4890  0.00  0.00     0.000 C
ATOM     36  C3  GCU B   3       0.875  24.389  -0.5100  0.00  0.00     0.000 C
ATOM     37  C4  GCU B   3       0.333  24.453   0.9100  0.00  0.00     0.000 C
ATOM     38  C5  GCU B   3       0.729  25.784   1.5530  0.00  0.00     0.000 C
ATOM     39  O5  GCU B   3       2.157  25.884   1.5480  0.00  0.00     0.000 O
ATOM     40   O  GCU B   3       2.888  24.631  -1.8230  0.00  0.00     0.000 O
ATOM     42  HD  GCU B   3       2.658  24.512  -2.6490  0.00  0.00     0.000 HD
ATOM     42   O  GCU B   3       0.511  23.139  -1.1230  0.00  0.00     0.000 O
ATOM     44  HD  GCU B   3       0.282  23.020  -1.9500  0.00  0.00     0.000 HD
BRANCH 38 44
ATOM     44   C  GCU B   3       0.246  25.909   2.9760  0.00  0.00     0.000 C
ATOM     45   O  GCU B   3       0.662  25.099   3.8180  0.00  0.00     0.000 OA
ATOM     46   O  GCU B   3      -0.551  26.817   3.2800  0.00  0.00     0.000 OA
ENDBRANCH 38 44
BRANCH 34 47
ATOM     47  O3  NAG B   4       4.040  25.908   0.4300  0.00  0.00     0.000 O
BRANCH 47 50
ATOM     48  C1  NAG B   4       6.172  28.830   1.2520  0.00  0.00     0.000 C
ATOM     49  C2  NAG B   4       5.394  27.539   1.4840  0.00  0.00     0.000 C
ATOM     50  C3  NAG B   4       5.112  26.815   0.1770  0.00  0.00     0.000 C
ATOM     51  C4  NAG B   4       4.729  27.749  -0.9760  0.00  0.00     0.000 C
ATOM     52  C5  NAG B   4       5.834  28.752  -1.2640  0.00  0.00     0.000 C
ATOM     53  O5  NAG B   4       6.445  29.312  -0.0800  0.00  0.00     0.000 O
BRANCH 49 56
ATOM     54   N  NAG B   4       6.577  26.840   2.0180  0.00  0.00     0.000 N
ATOM     56  HD  NAG B   4       7.391  26.940   1.7400  0.00  0.00     0.000 HD
ATOM     56   C  NAG B   4       7.890  25.304   3.3630  0.00  0.00     0.000 C
ATOM     57   O  NAG B   4       5.546  25.259   3.2840  0.00  0.00     0.000 OA
ATOM     58   C  NAG B   4       6.563  25.800   2.8750  0.00  0.00     0.000 C
ENDBRANCH 49 56
ATOM     59   O  NAG B   4       6.329  30.643  -2.7710  0.00  0.00     0.000 O
ATOM     61  HD  NAG B   4       6.021  30.361  -2.0120  0.00  0.00     0.000 HD
ATOM     61   O  NAG B   4       6.329  30.643  -2.7710  0.00  0.00     0.000 O
ATOM     63  HD  NAG B   4       6.021  30.361  -2.0120  0.00  0.00     0.000 HD
ENDBRANCH 47 50
ENDBRANCH 34 47
ENDBRANCH 33 37
ENDBRANCH 17 33
ENDBRANCH 16 19
ENDBRANCH 1 16
TORSDOF 10
ENDMDL
MODEL 39
REMARK VINA RESULT:      -8.1      8.722     14.076
ROOT
ATOM      1  C1  GCU B   1      -1.216  26.553  -2.1830  0.00  0.00     0.000 C
ATOM      2  C2  GCU B   1      -2.489  27.251  -1.7300  0.00  0.00     0.000 C
ATOM      3  C3  GCU B   1      -3.692  26.705  -2.4830  0.00  0.00     0.000 C
ATOM      4  C4  GCU B   1      -3.433  26.739  -3.9820  0.00  0.00     0.000 C
ATOM      5  C5  GCU B   1      -2.103  26.066  -4.3250  0.00  0.00     0.000 C
ATOM      6  O5  GCU B   1      -1.048  26.714  -3.6010  0.00  0.00     0.000 O
ATOM      7   O  GCU B   1      -2.628  27.031  -0.3300  0.00  0.00     0.000 O
ATOM      9  HD  GCU B   1      -2.752  27.640   0.2730  0.00  0.00     0.000 HD
ATOM      9   O  GCU B   1      -4.865  27.465  -2.1780  0.00  0.00     0.000 O
ATOM     11  HD  GCU B   1      -4.988  28.074  -1.5750  0.00  0.00     0.000 HD
ATOM     11   O  GCU B   1      -4.501  26.066  -4.6500  0.00  0.00     0.000 O
ATOM     13  HD  GCU B   1      -4.625  26.675  -4.0470  0.00  0.00     0.000 HD
ENDROOT
BRANCH 5 13
ATOM     13   C  GCU B   1      -1.879  26.102  -5.8180  0.00  0.00     0.000 C
ATOM     14   O  GCU B   1      -1.134  26.966  -6.3240  0.00  0.00     0.000 OA
ATOM     15   O  GCU B   1      -2.441  25.226  -6.5030  0.00  0.00     0.000 OA
ENDBRANCH 5 13
BRANCH 1 16
ATOM     16  O3  NAG B   2       0.031  27.026  -2.1390  0.00  0.00     0.000 O
BRANCH 16 19
ATOM     17  C1  NAG B   2       2.945  25.733  -0.1240  0.00  0.00     0.000 C
ATOM     18  C2  NAG B   2       1.518  26.194  -0.3930  0.00  0.00     0.000 C
ATOM     19  C3  NAG B   2       1.309  26.420  -1.8890  0.00  0.00     0.000 C
ATOM     20  C4  NAG B   2       2.391  27.346  -2.4440  0.00  0.00     0.000 C
ATOM     21  C5  NAG B   2       3.767  26.784  -2.1190  0.00  0.00     0.000 C
ATOM     22  O5  NAG B   2       3.891  26.652  -0.6920  0.00  0.00     0.000 O
ATOM     23   O  NAG B   2       2.200  27.466  -3.8590  0.00  0.00     0.000 O
ATOM     25  HD  NAG B   2       2.051  28.172  -3.3790  0.00  0.00     0.000 HD
ATOM     25   C  NAG B   2       4.902  27.652  -2.6590  0.00  0.00     0.000 C
ATOM     26   O  NAG B   2       5.050  28.863  -1.9020  0.00  0.00     0.000 O
ATOM     28  HD  NAG B   2       4.901  29.568  -1.4220  0.00  0.00     0.000 HD
BRANCH 18 30
ATOM     28   N  NAG B   2       0.900  26.178   0.9190  0.00  0.00     0.000 N
ATOM     30  HD  NAG B   2       0.470  25.561   0.4900  0.00  0.00     0.000 HD
ATOM     30   C  NAG B   2      -0.172  25.439   1.2290  0.00  0.00     0.000 C
ATOM     31   C  NAG B   2      -0.726  25.565   2.6210  0.00  0.00     0.000 C
ATOM     32   O  NAG B   2      -0.690  24.691   0.4240  0.00  0.00     0.000 OA
ENDBRANCH 18 30
BRANCH 17 33
ATOM     33  O4  GCU B   3       3.089  25.573   1.3020  0.00  0.00     0.000 O
BRANCH 33 37
ATOM     34  C1  GCU B   3       5.386  22.880   3.4950  0.00  0.00     0.000 C
ATOM     35  C2  GCU B   3       6.021  24.222   3.1300  0.00  0.00     0.000 C
ATOM     36  C3  GCU B   3       4.939  25.203   2.7310  0.00  0.00     0.000 C
ATOM     37  C4  GCU B   3       4.097  24.609   1.6110  0.00  0.00     0.000 C
ATOM     38  C5  GCU B   3       3.503  23.275   2.0670  0.00  0.00     0.000 C
ATOM     39  O5  GCU B   3       4.575  22.395   2.4200  0.00  0.00     0.000 O
ATOM     40   O  GCU B   3       6.743  24.715   4.2600  0.00  0.00     0.000 O
ATOM     42  HD  GCU B   3       6.848  25.421   4.7510  0.00  0.00     0.000 HD
ATOM     42   O  GCU B   3       5.507  26.457   2.3110  0.00  0.00     0.000 O
ATOM     44  HD  GCU B   3       5.612  27.163   2.8020  0.00  0.00     0.000 HD
BRANCH 38 44
ATOM     44   C  GCU B   3       2.673  22.611   0.9970  0.00  0.00     0.000 C
ATOM     45   O  GCU B   3       1.466  22.423   1.2130  0.00  0.00     0.000 OA
ATOM     46   O  GCU B   3       3.207  22.270  -0.0760  0.00  0.00     0.000 OA
ENDBRANCH 38 44
BRANCH 34 47
ATOM     47  O3  NAG B   4       6.346  21.978   3.6400  0.00  0.00     0.000 O
BRANCH 47 50
ATOM     48  C1  NAG B   4       8.581  19.056   3.1720  0.00  0.00     0.000 C
ATOM     49  C2  NAG B   4       7.538  19.943   3.8430  0.00  0.00     0.000 C
ATOM     50  C3  NAG B   4       6.940  20.940   2.8630  0.00  0.00     0.000 C
ATOM     51  C4  NAG B   4       7.966  21.549   1.8990  0.00  0.00     0.000 C
ATOM     52  C5  NAG B   4       8.644  20.474   1.0660  0.00  0.00     0.000 C
ATOM     53  O5  NAG B   4       9.000  19.288   1.8100  0.00  0.00     0.000 O
BRANCH 49 56
ATOM     54   N  NAG B   4       6.305  19.138   3.8900  0.00  0.00     0.000 N
ATOM     56  HD  NAG B   4       5.632  19.212   3.3500  0.00  0.00     0.000 HD
ATOM     56   C  NAG B   4       4.686  17.512   4.6820  0.00  0.00     0.000 C
ATOM     57   O  NAG B   4       6.571  18.153   5.9210  0.00  0.00     0.000 OA
ATOM     58   C  NAG B   4       5.939  18.307   4.8860  0.00  0.00     0.000 C
ENDBRANCH 49 56
ATOM     59   O  NAG B   4      10.366  20.244  -0.6880  0.00  0.00     0.000 O
ATOM     61  HD  NAG B   4      10.161  20.245   0.1530  0.00  0.00     0.000 HD
ATOM     61   O  NAG B   4      10.366  20.244  -0.6880  0.00  0.00     0.000 O
ATOM     63  HD  NAG B   4      10.161  20.245   0.1530  0.00  0.00     0.000 HD
ENDBRANCH 47 50
ENDBRANCH 34 47
ENDBRANCH 33 37
ENDBRANCH 17 33
ENDBRANCH 16 19
ENDBRANCH 1 16
TORSDOF 10
ENDMDL
MODEL 40
REMARK VINA RESULT:      -8.1      3.875      6.852
ROOT
ATOM      1  C1  GCU B   1       9.667  31.626  -5.5290  0.00  0.00     0.000 C
ATOM      2  C2  GCU B   1      11.135  31.381  -5.2190  0.00  0.00     0.000 C
ATOM      3  C3  GCU B   1      11.720  32.556  -4.4510  0.00  0.00     0.000 C
ATOM      4  C4  GCU B   1      11.419  33.859  -5.1740  0.00  0.00     0.000 C
ATOM      5  C5  GCU B   1       9.928  33.980  -5.4930  0.00  0.00     0.000 C
ATOM      6  O5  GCU B   1       9.521  32.847  -6.2720  0.00  0.00     0.000 O
ATOM      7   O  GCU B   1      11.222  30.183  -4.4530  0.00  0.00     0.000 O
ATOM      9  HD  GCU B   1      11.727  29.502  -4.6260  0.00  0.00     0.000 HD
ATOM      9   O  GCU B   1      13.133  32.403  -4.2960  0.00  0.00     0.000 O
ATOM     11  HD  GCU B   1      13.639  31.722  -4.4680  0.00  0.00     0.000 HD
ATOM     11   O  GCU B   1      11.827  34.950  -4.3490  0.00  0.00     0.000 O
ATOM     13  HD  GCU B   1      12.332  34.269  -4.5210  0.00  0.00     0.000 HD
ENDROOT
BRANCH 5 13
ATOM     13   C  GCU B   1       9.658  35.287  -6.1980  0.00  0.00     0.000 C
ATOM     14   O  GCU B   1       8.620  35.936  -5.9490  0.00  0.00     0.000 OA
ATOM     15   O  GCU B   1      10.517  35.694  -7.0030  0.00  0.00     0.000 OA
ENDBRANCH 5 13
BRANCH 1 16
ATOM     16  O3  NAG B   2       8.951  31.113  -6.5320  0.00  0.00     0.000 O
BRANCH 16 19
ATOM     17  C1  NAG B   2       5.434  29.755  -6.6590  0.00  0.00     0.000 C
ATOM     18  C2  NAG B   2       6.875  29.879  -6.1810  0.00  0.00     0.000 C
ATOM     19  C3  NAG B   2       7.546  31.089  -6.8300  0.00  0.00     0.000 C
ATOM     20  C4  NAG B   2       7.383  31.036  -8.3490  0.00  0.00     0.000 C
ATOM     21  C5  NAG B   2       5.909  30.917  -8.7060  0.00  0.00     0.000 C
ATOM     22  O5  NAG B   2       5.376  29.728  -8.0940  0.00  0.00     0.000 O
ATOM     23   O  NAG B   2       7.957  32.224  -8.9060  0.00  0.00     0.000 O
ATOM     25  HD  NAG B   2       8.360  31.475  -9.0720  0.00  0.00     0.000 HD
ATOM     25   C  NAG B   2       5.668  30.875 -10.2140  0.00  0.00     0.000 C
ATOM     26   O  NAG B   2       6.063  29.615 -10.7790  0.00  0.00     0.000 O
ATOM     28  HD  NAG B   2       6.466  28.867 -10.9450  0.00  0.00     0.000 HD
BRANCH 18 30
ATOM     28   N  NAG B   2       7.172  28.799  -5.2590  0.00  0.00     0.000 N
ATOM     30  HD  NAG B   2       7.054  29.479  -4.7360  0.00  0.00     0.000 HD
ATOM     30   C  NAG B   2       7.339  28.968  -3.9420  0.00  0.00     0.000 C
ATOM     31   C  NAG B   2       7.687  27.757  -3.1230  0.00  0.00     0.000 C
ATOM     32   O  NAG B   2       7.220  30.056  -3.4150  0.00  0.00     0.000 OA
ENDBRANCH 18 30
BRANCH 17 33
ATOM     33  O4  GCU B   3       4.870  28.580  -6.0420  0.00  0.00     0.000 O
BRANCH 33 37
ATOM     34  C1  GCU B   3       0.928  27.645  -5.0860  0.00  0.00     0.000 C
ATOM     35  C2  GCU B   3       1.262  27.892  -6.5570  0.00  0.00     0.000 C
ATOM     36  C3  GCU B   3       2.758  27.791  -6.7620  0.00  0.00     0.000 C
ATOM     37  C4  GCU B   3       3.470  28.744  -5.8120  0.00  0.00     0.000 C
ATOM     38  C5  GCU B   3       3.078  28.420  -4.3690  0.00  0.00     0.000 C
ATOM     39  O5  GCU B   3       1.657  28.542  -4.2440  0.00  0.00     0.000 O
ATOM     40   O  GCU B   3       0.587  26.917  -7.3550  0.00  0.00     0.000 O
ATOM     42  HD  GCU B   3       0.718  26.342  -7.9900  0.00  0.00     0.000 HD
ATOM     42   O  GCU B   3       3.117  28.089  -8.1230  0.00  0.00     0.000 O
ATOM     44  HD  GCU B   3       3.247  27.515  -8.7570  0.00  0.00     0.000 HD
BRANCH 38 44
ATOM     44   C  GCU B   3       3.727  29.343  -3.3680  0.00  0.00     0.000 C
ATOM     45   O  GCU B   3       4.146  28.865  -2.3030  0.00  0.00     0.000 OA
ATOM     46   O  GCU B   3       3.834  30.557  -3.6270  0.00  0.00     0.000 OA
ENDBRANCH 38 44
BRANCH 34 47
ATOM     47  O3  NAG B   4      -0.349  27.938  -4.8820  0.00  0.00     0.000 O
BRANCH 47 50
ATOM     48  C1  NAG B   4      -3.771  26.508  -4.8840  0.00  0.00     0.000 C
ATOM     49  C2  NAG B   4      -2.344  26.757  -5.3610  0.00  0.00     0.000 C
ATOM     50  C3  NAG B   4      -1.479  27.336  -4.2530  0.00  0.00     0.000 C
ATOM     51  C4  NAG B   4      -2.197  28.380  -3.3910  0.00  0.00     0.000 C
ATOM     52  C5  NAG B   4      -3.426  27.789  -2.7190  0.00  0.00     0.000 C
ATOM     53  O5  NAG B   4      -4.209  26.928  -3.5750  0.00  0.00     0.000 O
BRANCH 49 56
ATOM     54   N  NAG B   4      -1.768  25.404  -5.2700  0.00  0.00     0.000 N
ATOM     56  HD  NAG B   4      -1.456  25.035  -4.5510  0.00  0.00     0.000 HD
ATOM     56   C  NAG B   4      -0.967  23.227  -5.9820  0.00  0.00     0.000 C
ATOM     57   O  NAG B   4      -1.555  24.930  -7.4830  0.00  0.00     0.000 OA
ATOM     58   C  NAG B   4      -1.452  24.606  -6.3090  0.00  0.00     0.000 C
ENDBRANCH 49 56
ATOM     59   O  NAG B   4      -5.266  28.456  -1.2150  0.00  0.00     0.000 O
ATOM     61  HD  NAG B   4      -4.971  28.349  -2.0220  0.00  0.00     0.000 HD
ATOM     61   O  NAG B   4      -5.266  28.456  -1.2150  0.00  0.00     0.000 O
ATOM     63  HD  NAG B   4      -4.971  28.349  -2.0220  0.00  0.00     0.000 HD
ENDBRANCH 47 50
ENDBRANCH 34 47
ENDBRANCH 33 37
ENDBRANCH 17 33
ENDBRANCH 16 19
ENDBRANCH 1 16
TORSDOF 10
ENDMDL
MODEL 41
REMARK VINA RESULT:      -8.1     17.407     22.022
ROOT
ATOM      1  C1  GCU B   1      10.051  45.376 -12.3430  0.00  0.00     0.000 C
ATOM      2  C2  GCU B   1      11.488  44.882 -12.2680  0.00  0.00     0.000 C
ATOM      3  C3  GCU B   1      11.698  43.714 -13.2200  0.00  0.00     0.000 C
ATOM      4  C4  GCU B   1      10.634  42.652 -12.9920  0.00  0.00     0.000 C
ATOM      5  C5  GCU B   1       9.232  43.262 -13.0250  0.00  0.00     0.000 C
ATOM      6  O5  GCU B   1       9.148  44.301 -12.0410  0.00  0.00     0.000 O
ATOM      7   O  GCU B   1      12.339  45.971 -12.6110  0.00  0.00     0.000 O
ATOM      9  HD  GCU B   1      13.010  46.261 -12.1460  0.00  0.00     0.000 HD
ATOM      9   O  GCU B   1      12.997  43.145 -13.0390  0.00  0.00     0.000 O
ATOM     11  HD  GCU B   1      13.669  43.434 -12.5750  0.00  0.00     0.000 HD
ATOM     11   O  GCU B   1      10.752  41.655 -14.0070  0.00  0.00     0.000 O
ATOM     13  HD  GCU B   1      11.424  41.944 -13.5430  0.00  0.00     0.000 HD
ENDROOT
BRANCH 5 13
ATOM     13   C  GCU B   1       8.197  42.183 -12.8100  0.00  0.00     0.000 C
ATOM     14   O  GCU B   1       8.415  41.251 -12.0090  0.00  0.00     0.000 OA
ATOM     15   O  GCU B   1       7.125  42.283 -13.4370  0.00  0.00     0.000 OA
ENDBRANCH 5 13
BRANCH 1 16
ATOM     16  O3  NAG B   2       9.360  46.014 -11.3960  0.00  0.00     0.000 O
BRANCH 16 19
ATOM     17  C1  NAG B   2       7.478  49.212 -12.0720  0.00  0.00     0.000 C
ATOM     18  C2  NAG B   2       8.593  48.183 -12.2080  0.00  0.00     0.000 C
ATOM     19  C3  NAG B   2       8.245  46.918 -11.4270  0.00  0.00     0.000 C
ATOM     20  C4  NAG B   2       7.875  47.266  -9.9850  0.00  0.00     0.000 C
ATOM     21  C5  NAG B   2       6.753  48.294  -9.9750  0.00  0.00     0.000 C
ATOM     22  O5  NAG B   2       7.188  49.466 -10.6880  0.00  0.00     0.000 O
ATOM     23   O  NAG B   2       7.482  46.063  -9.3160  0.00  0.00     0.000 O
ATOM     25  HD  NAG B   2       8.222  46.434  -9.0600  0.00  0.00     0.000 HD
ATOM     25   C  NAG B   2       6.318  48.680  -8.5620  0.00  0.00     0.000 C
ATOM     26   O  NAG B   2       7.293  49.513  -7.9170  0.00  0.00     0.000 O
ATOM     28  HD  NAG B   2       8.033  49.884  -7.6600  0.00  0.00     0.000 HD
BRANCH 18 30
ATOM     28   N  NAG B   2       8.743  48.188 -13.6510  0.00  0.00     0.000 N
ATOM     30  HD  NAG B   2       9.561  48.190 -13.3670  0.00  0.00     0.000 HD
ATOM     30   C  NAG B   2       9.919  48.314 -14.2780  0.00  0.00     0.000 C
ATOM     31   C  NAG B   2       9.906  48.347 -15.7810  0.00  0.00     0.000 C
ATOM     32   O  NAG B   2      10.965  48.402 -13.6670  0.00  0.00     0.000 OA
ENDBRANCH 18 30
BRANCH 17 33
ATOM     33  O4  GCU B   3       7.881  50.391 -12.7970  0.00  0.00     0.000 O
BRANCH 33 37
ATOM     34  C1  GCU B   3       5.588  53.363 -14.5970  0.00  0.00     0.000 C
ATOM     35  C2  GCU B   3       6.009  53.575 -13.1430  0.00  0.00     0.000 C
ATOM     36  C3  GCU B   3       7.154  52.643 -12.8050  0.00  0.00     0.000 C
ATOM     37  C4  GCU B   3       6.753  51.208 -13.1170  0.00  0.00     0.000 C
ATOM     38  C5  GCU B   3       6.352  51.093 -14.5890  0.00  0.00     0.000 C
ATOM     39  O5  GCU B   3       5.265  51.991 -14.8360  0.00  0.00     0.000 O
ATOM     40   O  GCU B   3       6.413  54.935 -12.9700  0.00  0.00     0.000 O
ATOM     42  HD  GCU B   3       7.053  55.425 -12.6530  0.00  0.00     0.000 HD
ATOM     42   O  GCU B   3       7.529  52.763 -11.4220  0.00  0.00     0.000 O
ATOM     44  HD  GCU B   3       8.169  53.253 -11.1040  0.00  0.00     0.000 HD
BRANCH 38 44
ATOM     44   C  GCU B   3       5.917  49.699 -14.9660  0.00  0.00     0.000 C
ATOM     45   O  GCU B   3       6.604  49.063 -15.7800  0.00  0.00     0.000 OA
ATOM     46   O  GCU B   3       4.888  49.214 -14.4570  0.00  0.00     0.000 OA
ENDBRANCH 38 44
BRANCH 34 47
ATOM     47  O3  NAG B   4       4.463  54.029 -14.8170  0.00  0.00     0.000 O
BRANCH 47 50
ATOM     48  C1  NAG B   4       2.010  55.063 -17.4000  0.00  0.00     0.000 C
ATOM     49  C2  NAG B   4       2.514  54.503 -16.0730  0.00  0.00     0.000 C
ATOM     50  C3  NAG B   4       3.947  54.928 -15.7970  0.00  0.00     0.000 C
ATOM     51  C4  NAG B   4       4.848  54.902 -17.0370  0.00  0.00     0.000 C
ATOM     52  C5  NAG B   4       4.322  55.829 -18.1200  0.00  0.00     0.000 C
ATOM     53  O5  NAG B   4       2.888  55.777 -18.2940  0.00  0.00     0.000 O
BRANCH 49 56
ATOM     54   N  NAG B   4       1.740  55.467 -15.2710  0.00  0.00     0.000 N
ATOM     56  HD  NAG B   4       1.645  56.310 -15.4470  0.00  0.00     0.000 HD
ATOM     56   C  NAG B   4       0.390  56.338 -13.4520  0.00  0.00     0.000 C
ATOM     57   O  NAG B   4       1.387  54.216 -13.4070  0.00  0.00     0.000 OA
ATOM     58   C  NAG B   4       1.227  55.246 -14.0440  0.00  0.00     0.000 C
ENDBRANCH 49 56
ATOM     59   O  NAG B   4       4.867  56.562 -20.4130  0.00  0.00     0.000 O
ATOM     61  HD  NAG B   4       4.439  56.021 -19.8910  0.00  0.00     0.000 HD
ATOM     61   O  NAG B   4       4.867  56.562 -20.4130  0.00  0.00     0.000 O
ATOM     63  HD  NAG B   4       4.439  56.021 -19.8910  0.00  0.00     0.000 HD
ENDBRANCH 47 50
ENDBRANCH 34 47
ENDBRANCH 33 37
ENDBRANCH 17 33
ENDBRANCH 16 19
ENDBRANCH 1 16
TORSDOF 10
ENDMDL
MODEL 42
REMARK VINA RESULT:      -8.1      7.312     16.681
ROOT
ATOM      1  C1  GCU B   1      -6.670  22.520   2.7800  0.00  0.00     0.000 C
ATOM      2  C2  GCU B   1      -7.703  21.903   3.7100  0.00  0.00     0.000 C
ATOM      3  C3  GCU B   1      -7.470  22.360   5.1420  0.00  0.00     0.000 C
ATOM      4  C4  GCU B   1      -6.020  22.128   5.5380  0.00  0.00     0.000 C
ATOM      5  C5  GCU B   1      -5.065  22.733   4.5080  0.00  0.00     0.000 C
ATOM      6  O5  GCU B   1      -5.347  22.172   3.2190  0.00  0.00     0.000 O
ATOM      7   O  GCU B   1      -8.991  22.306   3.2550  0.00  0.00     0.000 O
ATOM      9  HD  GCU B   1      -9.660  21.783   3.0850  0.00  0.00     0.000 HD
ATOM      9   O  GCU B   1      -8.335  21.662   6.0410  0.00  0.00     0.000 O
ATOM     11  HD  GCU B   1      -9.004  21.139   5.8720  0.00  0.00     0.000 HD
ATOM     11   O  GCU B   1      -5.791  22.721   6.8170  0.00  0.00     0.000 O
ATOM     13  HD  GCU B   1      -6.459  22.198   6.6470  0.00  0.00     0.000 HD
ENDROOT
BRANCH 5 13
ATOM     13   C  GCU B   1      -3.635  22.500   4.9340  0.00  0.00     0.000 C
ATOM     14   O  GCU B   1      -3.127  23.188   5.8430  0.00  0.00     0.000 OA
ATOM     15   O  GCU B   1      -3.008  21.586   4.3640  0.00  0.00     0.000 OA
ENDBRANCH 5 13
BRANCH 1 16
ATOM     16  O3  NAG B   2      -6.238  22.040   1.6110  0.00  0.00     0.000 O
BRANCH 16 19
ATOM     17  C1  NAG B   2      -3.990  23.851  -0.8160  0.00  0.00     0.000 C
ATOM     18  C2  NAG B   2      -5.132  23.674   0.1760  0.00  0.00     0.000 C
ATOM     19  C3  NAG B   2      -5.070  22.287   0.8140  0.00  0.00     0.000 C
ATOM     20  C4  NAG B   2      -4.995  21.208  -0.2660  0.00  0.00     0.000 C
ATOM     21  C5  NAG B   2      -3.819  21.486  -1.1910  0.00  0.00     0.000 C
ATOM     22  O5  NAG B   2      -3.987  22.787  -1.7810  0.00  0.00     0.000 O
ATOM     23   O  NAG B   2      -4.860  19.935   0.3760  0.00  0.00     0.000 O
ATOM     25  HD  NAG B   2      -5.604  20.091  -0.0400  0.00  0.00     0.000 HD
ATOM     25   C  NAG B   2      -3.671  20.435  -2.2900  0.00  0.00     0.000 C
ATOM     26   O  NAG B   2      -4.689  20.570  -3.2940  0.00  0.00     0.000 O
ATOM     28  HD  NAG B   2      -5.432  20.726  -3.7100  0.00  0.00     0.000 HD
BRANCH 18 30
ATOM     28   N  NAG B   2      -4.961  25.009   0.7180  0.00  0.00     0.000 N
ATOM     30  HD  NAG B   2      -5.787  24.825   0.9030  0.00  0.00     0.000 HD
ATOM     30   C  NAG B   2      -5.959  25.740   1.2300  0.00  0.00     0.000 C
ATOM     31   C  NAG B   2      -5.632  27.125   1.7120  0.00  0.00     0.000 C
ATOM     32   O  NAG B   2      -7.093  25.311   1.3070  0.00  0.00     0.000 OA
ENDBRANCH 18 30
BRANCH 17 33
ATOM     33  O4  GCU B   3      -4.124  25.159  -1.4070  0.00  0.00     0.000 O
BRANCH 33 37
ATOM     34  C1  GCU B   3      -1.236  27.597  -3.1520  0.00  0.00     0.000 C
ATOM     35  C2  GCU B   3      -2.099  26.743  -4.0810  0.00  0.00     0.000 C
ATOM     36  C3  GCU B   3      -3.332  26.274  -3.3380  0.00  0.00     0.000 C
ATOM     37  C4  GCU B   3      -2.918  25.552  -2.0640  0.00  0.00     0.000 C
ATOM     38  C5  GCU B   3      -2.063  26.482  -1.2000  0.00  0.00     0.000 C
ATOM     39  O5  GCU B   3      -0.915  26.879  -1.9560  0.00  0.00     0.000 O
ATOM     40   O  GCU B   3      -2.473  27.526  -5.2160  0.00  0.00     0.000 O
ATOM     42  HD  GCU B   3      -3.159  27.759  -5.6910  0.00  0.00     0.000 HD
ATOM     42   O  GCU B   3      -4.133  25.406  -4.1610  0.00  0.00     0.000 O
ATOM     44  HD  GCU B   3      -4.818  25.638  -4.6360  0.00  0.00     0.000 HD
BRANCH 38 44
ATOM     44   C  GCU B   3      -1.593  25.825   0.0730  0.00  0.00     0.000 C
ATOM     45   O  GCU B   3      -2.125  26.155   1.1440  0.00  0.00     0.000 OA
ATOM     46   O  GCU B   3      -0.690  24.967   0.0290  0.00  0.00     0.000 OA
ENDBRANCH 38 44
BRANCH 34 47
ATOM     47  O3  NAG B   4      -0.071  27.827  -3.7420  0.00  0.00     0.000 O
BRANCH 47 50
ATOM     48  C1  NAG B   4       2.292  30.313  -5.1540  0.00  0.00     0.000 C
ATOM     49  C2  NAG B   4       0.965  29.598  -4.9220  0.00  0.00     0.000 C
ATOM     50  C3  NAG B   4       0.989  28.776  -3.6430  0.00  0.00     0.000 C
ATOM     51  C4  NAG B   4       2.313  28.040  -3.4080  0.00  0.00     0.000 C
ATOM     52  C5  NAG B   4       3.477  29.013  -3.3210  0.00  0.00     0.000 C
ATOM     53  O5  NAG B   4       3.430  30.076  -4.2990  0.00  0.00     0.000 O
BRANCH 49 56
ATOM     54   N  NAG B   4       0.292  30.857  -4.5560  0.00  0.00     0.000 N
ATOM     56  HD  NAG B   4       0.669  31.542  -4.1830  0.00  0.00     0.000 HD
ATOM     56   C  NAG B   4      -1.500  32.463  -4.2400  0.00  0.00     0.000 C
ATOM     57   O  NAG B   4      -1.875  30.220  -4.8130  0.00  0.00     0.000 OA
ATOM     58   C  NAG B   4      -1.038  31.074  -4.5560  0.00  0.00     0.000 C
ENDBRANCH 49 56
ATOM     59   O  NAG B   4       5.926  29.012  -3.0090  0.00  0.00     0.000 O
ATOM     61  HD  NAG B   4       5.247  29.006  -3.5470  0.00  0.00     0.000 HD
ATOM     61   O  NAG B   4       5.926  29.012  -3.0090  0.00  0.00     0.000 O
ATOM     63  HD  NAG B   4       5.247  29.006  -3.5470  0.00  0.00     0.000 HD
ENDBRANCH 47 50
ENDBRANCH 34 47
ENDBRANCH 33 37
ENDBRANCH 17 33
ENDBRANCH 16 19
ENDBRANCH 1 16
TORSDOF 10
ENDMDL
MODEL 43
REMARK VINA RESULT:      -8.1      7.980     12.768
ROOT
ATOM      1  C1  GCU B   1       3.066  26.691  -2.4100  0.00  0.00     0.000 C
ATOM      2  C2  GCU B   1       4.317  25.924  -2.8090  0.00  0.00     0.000 C
ATOM      3  C3  GCU B   1       5.565  26.678  -2.3780  0.00  0.00     0.000 C
ATOM      4  C4  GCU B   1       5.504  28.117  -2.8660  0.00  0.00     0.000 C
ATOM      5  C5  GCU B   1       4.184  28.779  -2.4660  0.00  0.00     0.000 C
ATOM      6  O5  GCU B   1       3.094  28.006  -2.9870  0.00  0.00     0.000 O
ATOM      7   O  GCU B   1       4.259  24.646  -2.1840  0.00  0.00     0.000 O
ATOM      9  HD  GCU B   1       4.347  23.880  -2.5780  0.00  0.00     0.000 HD
ATOM      9   O  GCU B   1       6.740  26.044  -2.8890  0.00  0.00     0.000 O
ATOM     11  HD  GCU B   1       6.828  25.277  -3.2830  0.00  0.00     0.000 HD
ATOM     11   O  GCU B   1       6.598  28.843  -2.3040  0.00  0.00     0.000 O
ATOM     13  HD  GCU B   1       6.686  28.077  -2.6980  0.00  0.00     0.000 HD
ENDROOT
BRANCH 5 13
ATOM     13   C  GCU B   1       4.157  30.208  -2.9510  0.00  0.00     0.000 C
ATOM     14   O  GCU B   1       4.715  31.109  -2.2910  0.00  0.00     0.000 OA
ATOM     15   O  GCU B   1       3.587  30.436  -4.0350  0.00  0.00     0.000 OA
ENDBRANCH 5 13
BRANCH 1 16
ATOM     16  O3  NAG B   2       1.861  26.636  -2.9810  0.00  0.00     0.000 O
BRANCH 16 19
ATOM     17  C1  NAG B   2      -1.448  26.241  -1.2130  0.00  0.00     0.000 C
ATOM     18  C2  NAG B   2       0.017  25.967  -1.5300  0.00  0.00     0.000 C
ATOM     19  C3  NAG B   2       0.542  26.989  -2.5370  0.00  0.00     0.000 C
ATOM     20  C4  NAG B   2      -0.372  27.047  -3.7610  0.00  0.00     0.000 C
ATOM     21  C5  NAG B   2      -1.802  27.329  -3.3240  0.00  0.00     0.000 C
ATOM     22  O5  NAG B   2      -2.226  26.294  -2.4200  0.00  0.00     0.000 O
ATOM     23   O  NAG B   2       0.114  28.069  -4.6380  0.00  0.00     0.000 O
ATOM     25  HD  NAG B   2       0.181  27.250  -4.9110  0.00  0.00     0.000 HD
ATOM     25   C  NAG B   2      -2.772  27.418  -4.5000  0.00  0.00     0.000 C
ATOM     26   O  NAG B   2      -3.039  26.125  -5.0660  0.00  0.00     0.000 O
ATOM     28  HD  NAG B   2      -2.972  25.306  -5.3390  0.00  0.00     0.000 HD
BRANCH 18 30
ATOM     28   N  NAG B   2       0.449  25.811  -0.1540  0.00  0.00     0.000 N
ATOM     30  HD  NAG B   2       0.939  25.239  -0.5810  0.00  0.00     0.000 HD
ATOM     30   C  NAG B   2       1.307  24.869   0.2570  0.00  0.00     0.000 C
ATOM     31   C  NAG B   2       1.624  24.807   1.7250  0.00  0.00     0.000 C
ATOM     32   O  NAG B   2       1.816  24.084  -0.5190  0.00  0.00     0.000 OA
ENDBRANCH 18 30
BRANCH 17 33
ATOM     33  O4  GCU B   3      -1.891  25.227  -0.2900  0.00  0.00     0.000 O
BRANCH 33 37
ATOM     34  C1  GCU B   3      -5.465  24.819   1.8070  0.00  0.00     0.000 C
ATOM     35  C2  GCU B   3      -5.516  24.687   0.2850  0.00  0.00     0.000 C
ATOM     36  C3  GCU B   3      -4.122  24.437  -0.2500  0.00  0.00     0.000 C
ATOM     37  C4  GCU B   3      -3.185  25.536   0.2300  0.00  0.00     0.000 C
ATOM     38  C5  GCU B   3      -3.198  25.591   1.7590  0.00  0.00     0.000 C
ATOM     39  O5  GCU B   3      -4.538  25.837   2.1950  0.00  0.00     0.000 O
ATOM     40   O  GCU B   3      -6.379  23.600  -0.0570  0.00  0.00     0.000 O
ATOM     42  HD  GCU B   3      -6.419  22.884  -0.5420  0.00  0.00     0.000 HD
ATOM     42   O  GCU B   3      -4.122  24.379  -1.6880  0.00  0.00     0.000 O
ATOM     44  HD  GCU B   3      -4.161  23.663  -2.1730  0.00  0.00     0.000 HD
BRANCH 38 44
ATOM     44   C  GCU B   3      -2.308  26.678   2.3090  0.00  0.00     0.000 C
ATOM     45   O  GCU B   3      -2.646  27.860   2.1460  0.00  0.00     0.000 OA
ATOM     46   O  GCU B   3      -1.263  26.374   2.9150  0.00  0.00     0.000 OA
ENDBRANCH 38 44
BRANCH 34 47
ATOM     47  O3  NAG B   4      -6.645  25.240   2.2400  0.00  0.00     0.000 O
BRANCH 47 50
ATOM     48  C1  NAG B   4      -9.166  25.858   4.8890  0.00  0.00     0.000 C
ATOM     49  C2  NAG B   4      -8.230  25.058   3.9880  0.00  0.00     0.000 C
ATOM     50  C3  NAG B   4      -7.162  25.944   3.3670  0.00  0.00     0.000 C
ATOM     51  C4  NAG B   4      -7.680  27.315   2.9180  0.00  0.00     0.000 C
ATOM     52  C5  NAG B   4      -8.265  28.092   4.0860  0.00  0.00     0.000 C
ATOM     53  O5  NAG B   4      -9.074  27.295   4.9790  0.00  0.00     0.000 O
BRANCH 49 56
ATOM     54   N  NAG B   4      -7.286  24.425   4.9240  0.00  0.00     0.000 N
ATOM     56  HD  NAG B   4      -6.511  24.739   5.1520  0.00  0.00     0.000 HD
ATOM     56   C  NAG B   4      -6.355  22.768   6.4340  0.00  0.00     0.000 C
ATOM     57   O  NAG B   4      -8.247  22.373   5.1060  0.00  0.00     0.000 OA
ATOM     58   C  NAG B   4      -7.379  23.174   5.4190  0.00  0.00     0.000 C
ENDBRANCH 49 56
ATOM     59   O  NAG B   4      -9.351  30.257   4.5640  0.00  0.00     0.000 O
ATOM     61  HD  NAG B   4      -9.427  29.418   4.3630  0.00  0.00     0.000 HD
ATOM     61   O  NAG B   4      -9.351  30.257   4.5640  0.00  0.00     0.000 O
ATOM     63  HD  NAG B   4      -9.427  29.418   4.3630  0.00  0.00     0.000 HD
ENDBRANCH 47 50
ENDBRANCH 34 47
ENDBRANCH 33 37
ENDBRANCH 17 33
ENDBRANCH 16 19
ENDBRANCH 1 16
TORSDOF 10
ENDMDL
MODEL 44
REMARK VINA RESULT:      -8.1     17.130     22.364
ROOT
ATOM      1  C1  GCU B   1       5.012  52.485 -12.8140  0.00  0.00     0.000 C
ATOM      2  C2  GCU B   1       3.978  52.684 -13.9110  0.00  0.00     0.000 C
ATOM      3  C3  GCU B   1       3.677  54.164 -14.0970  0.00  0.00     0.000 C
ATOM      4  C4  GCU B   1       3.334  54.802 -12.7590  0.00  0.00     0.000 C
ATOM      5  C5  GCU B   1       4.405  54.491 -11.7110  0.00  0.00     0.000 C
ATOM      6  O5  GCU B   1       4.543  53.070 -11.5880  0.00  0.00     0.000 O
ATOM      7   O  GCU B   1       4.505  52.123 -15.1090  0.00  0.00     0.000 O
ATOM      9  HD  GCU B   1       4.109  51.547 -15.6200  0.00  0.00     0.000 HD
ATOM      9   O  GCU B   1       2.594  54.347 -15.0120  0.00  0.00     0.000 O
ATOM     11  HD  GCU B   1       2.198  53.771 -15.5230  0.00  0.00     0.000 HD
ATOM     11   O  GCU B   1       3.226  56.215 -12.9360  0.00  0.00     0.000 O
ATOM     13  HD  GCU B   1       2.830  55.639 -13.4480  0.00  0.00     0.000 HD
ENDROOT
BRANCH 5 13
ATOM     13   C  GCU B   1       4.045  55.148 -10.4000  0.00  0.00     0.000 C
ATOM     14   O  GCU B   1       4.390  56.325 -10.1680  0.00  0.00     0.000 OA
ATOM     15   O  GCU B   1       3.376  54.480  -9.5880  0.00  0.00     0.000 OA
ENDBRANCH 5 13
BRANCH 1 16
ATOM     16  O3  NAG B   2       5.189  51.406 -12.0490  0.00  0.00     0.000 O
BRANCH 16 19
ATOM     17  C1  NAG B   2       7.909  48.806 -11.7790  0.00  0.00     0.000 C
ATOM     18  C2  NAG B   2       6.799  49.615 -12.4390  0.00  0.00     0.000 C
ATOM     19  C3  NAG B   2       6.352  50.750 -11.5210  0.00  0.00     0.000 C
ATOM     20  C4  NAG B   2       6.004  50.208 -10.1350  0.00  0.00     0.000 C
ATOM     21  C5  NAG B   2       7.184  49.425  -9.5760  0.00  0.00     0.000 C
ATOM     22  O5  NAG B   2       7.500  48.351 -10.4790  0.00  0.00     0.000 O
ATOM     23   O  NAG B   2       5.667  51.313  -9.2890  0.00  0.00     0.000 O
ATOM     25  HD  NAG B   2       5.028  50.768  -9.5000  0.00  0.00     0.000 HD
ATOM     25   C  NAG B   2       6.913  48.865  -8.1810  0.00  0.00     0.000 C
ATOM     26   O  NAG B   2       6.001  47.756  -8.2230  0.00  0.00     0.000 O
ATOM     28  HD  NAG B   2       5.362  47.211  -8.4340  0.00  0.00     0.000 HD
BRANCH 18 30
ATOM     28   N  NAG B   2       7.436  49.810 -13.7280  0.00  0.00     0.000 N
ATOM     30  HD  NAG B   2       6.608  49.664 -13.9370  0.00  0.00     0.000 HD
ATOM     30   C  NAG B   2       6.815  49.636 -14.9010  0.00  0.00     0.000 C
ATOM     31   C  NAG B   2       7.623  49.834 -16.1530  0.00  0.00     0.000 C
ATOM     32   O  NAG B   2       5.641  49.328 -14.9650  0.00  0.00     0.000 OA
ENDBRANCH 18 30
BRANCH 17 33
ATOM     33  O4  GCU B   3       8.260  47.734 -12.6760  0.00  0.00     0.000 O
BRANCH 33 37
ATOM     34  C1  GCU B   3      11.637  45.305 -12.8400  0.00  0.00     0.000 C
ATOM     35  C2  GCU B   3      10.562  44.957 -11.8100  0.00  0.00     0.000 C
ATOM     36  C3  GCU B   3       9.267  45.652 -12.1740  0.00  0.00     0.000 C
ATOM     37  C4  GCU B   3       9.510  47.148 -12.3120  0.00  0.00     0.000 C
ATOM     38  C5  GCU B   3      10.595  47.398 -13.3610  0.00  0.00     0.000 C
ATOM     39  O5  GCU B   3      11.789  46.723 -12.9530  0.00  0.00     0.000 O
ATOM     40   O  GCU B   3      10.376  43.540 -11.7960  0.00  0.00     0.000 O
ATOM     42  HD  GCU B   3       9.762  42.930 -11.8320  0.00  0.00     0.000 HD
ATOM     42   O  GCU B   3       8.251  45.405 -11.1860  0.00  0.00     0.000 O
ATOM     44  HD  GCU B   3       7.637  44.794 -11.2220  0.00  0.00     0.000 HD
BRANCH 38 44
ATOM     44   C  GCU B   3      10.910  48.863 -13.5350  0.00  0.00     0.000 C
ATOM     45   O  GCU B   3      11.627  49.421 -12.6900  0.00  0.00     0.000 OA
ATOM     46   O  GCU B   3      10.453  49.481 -14.5150  0.00  0.00     0.000 OA
ENDBRANCH 38 44
BRANCH 34 47
ATOM     47  O3  NAG B   4      12.808  44.864 -12.4010  0.00  0.00     0.000 O
BRANCH 47 50
ATOM     48  C1  NAG B   4      16.313  44.782 -13.6080  0.00  0.00     0.000 C
ATOM     49  C2  NAG B   4      14.791  44.792 -13.6910  0.00  0.00     0.000 C
ATOM     50  C3  NAG B   4      14.165  45.303 -12.4030  0.00  0.00     0.000 C
ATOM     51  C4  NAG B   4      14.865  44.800 -11.1350  0.00  0.00     0.000 C
ATOM     52  C5  NAG B   4      16.324  45.223 -11.1070  0.00  0.00     0.000 C
ATOM     53  O5  NAG B   4      17.000  45.096 -12.3780  0.00  0.00     0.000 O
BRANCH 49 56
ATOM     54   N  NAG B   4      14.668  46.025 -14.4880  0.00  0.00     0.000 N
ATOM     56  HD  NAG B   4      14.936  46.812 -14.2460  0.00  0.00     0.000 HD
ATOM     56   C  NAG B   4      14.045  47.490 -16.3200  0.00  0.00     0.000 C
ATOM     57   O  NAG B   4      13.254  45.292 -16.1090  0.00  0.00     0.000 OA
ATOM     58   C  NAG B   4      13.950  46.169 -15.6200  0.00  0.00     0.000 C
ENDBRANCH 49 56
ATOM     59   O  NAG B   4      18.332  45.003  -9.6870  0.00  0.00     0.000 O
ATOM     61  HD  NAG B   4      17.854  44.707 -10.3460  0.00  0.00     0.000 HD
ATOM     61   O  NAG B   4      18.332  45.003  -9.6870  0.00  0.00     0.000 O
ATOM     63  HD  NAG B   4      17.854  44.707 -10.3460  0.00  0.00     0.000 HD
ENDBRANCH 47 50
ENDBRANCH 34 47
ENDBRANCH 33 37
ENDBRANCH 17 33
ENDBRANCH 16 19
ENDBRANCH 1 16
TORSDOF 10
ENDMDL
MODEL 45
REMARK VINA RESULT:      -8.0     22.790     25.740
ROOT
ATOM      1  C1  GCU B   1      -2.908  49.907 -21.0550  0.00  0.00     0.000 C
ATOM      2  C2  GCU B   1      -2.175  50.214 -22.3520  0.00  0.00     0.000 C
ATOM      3  C3  GCU B   1      -1.965  48.942 -23.1590  0.00  0.00     0.000 C
ATOM      4  C4  GCU B   1      -1.326  47.869 -22.2910  0.00  0.00     0.000 C
ATOM      5  C5  GCU B   1      -2.102  47.681 -20.9870  0.00  0.00     0.000 C
ATOM      6  O5  GCU B   1      -2.171  48.935 -20.2960  0.00  0.00     0.000 O
ATOM      7   O  GCU B   1      -2.961  51.151 -23.0820  0.00  0.00     0.000 O
ATOM      9  HD  GCU B   1      -2.686  51.905 -23.4080  0.00  0.00     0.000 HD
ATOM      9   O  GCU B   1      -1.141  49.198 -24.2980  0.00  0.00     0.000 O
ATOM     11  HD  GCU B   1      -0.866  49.952 -24.6250  0.00  0.00     0.000 HD
ATOM     11   O  GCU B   1      -1.299  46.642 -23.0200  0.00  0.00     0.000 O
ATOM     13  HD  GCU B   1      -1.024  47.395 -23.3460  0.00  0.00     0.000 HD
ENDROOT
BRANCH 5 13
ATOM     13   C  GCU B   1      -1.453  46.602 -20.1540  0.00  0.00     0.000 C
ATOM     14   O  GCU B   1      -1.347  45.440 -20.5980  0.00  0.00     0.000 OA
ATOM     15   O  GCU B   1      -1.012  46.928 -19.0350  0.00  0.00     0.000 OA
ENDBRANCH 5 13
BRANCH 1 16
ATOM     16  O3  NAG B   2      -2.867  50.599 -19.9140  0.00  0.00     0.000 O
BRANCH 16 19
ATOM     17  C1  NAG B   2      -5.467  51.863 -17.4920  0.00  0.00     0.000 C
ATOM     18  C2  NAG B   2      -4.729  51.732 -18.8180  0.00  0.00     0.000 C
ATOM     19  C3  NAG B   2      -3.692  50.614 -18.7390  0.00  0.00     0.000 C
ATOM     20  C4  NAG B   2      -2.785  50.814 -17.5250  0.00  0.00     0.000 C
ATOM     21  C5  NAG B   2      -3.630  50.926 -16.2640  0.00  0.00     0.000 C
ATOM     22  O5  NAG B   2      -4.539  52.032 -16.4090  0.00  0.00     0.000 O
ATOM     23   O  NAG B   2      -1.883  49.704 -17.4470  0.00  0.00     0.000 O
ATOM     25  HD  NAG B   2      -1.544  50.476 -17.6420  0.00  0.00     0.000 HD
ATOM     25   C  NAG B   2      -2.787  51.112 -15.0030  0.00  0.00     0.000 C
ATOM     26   O  NAG B   2      -2.227  52.432 -14.9290  0.00  0.00     0.000 O
ATOM     28  HD  NAG B   2      -1.888  53.204 -15.1240  0.00  0.00     0.000 HD
BRANCH 18 30
ATOM     28   N  NAG B   2      -5.318  52.726 -19.6960  0.00  0.00     0.000 N
ATOM     30  HD  NAG B   2      -5.593  51.977 -20.0330  0.00  0.00     0.000 HD
ATOM     30   C  NAG B   2      -5.990  52.428 -20.8150  0.00  0.00     0.000 C
ATOM     31   C  NAG B   2      -6.504  53.571 -21.6450  0.00  0.00     0.000 C
ATOM     32   O  NAG B   2      -6.182  51.279 -21.1610  0.00  0.00     0.000 OA
ENDBRANCH 18 30
BRANCH 17 33
ATOM     33  O4  GCU B   3      -6.402  52.954 -17.6200  0.00  0.00     0.000 O
BRANCH 33 37
ATOM     34  C1  GCU B   3     -10.158  53.543 -15.9240  0.00  0.00     0.000 C
ATOM     35  C2  GCU B   3      -8.947  53.564 -14.9910  0.00  0.00     0.000 C
ATOM     36  C3  GCU B   3      -7.685  53.762 -15.8030  0.00  0.00     0.000 C
ATOM     37  C4  GCU B   3      -7.598  52.694 -16.8830  0.00  0.00     0.000 C
ATOM     38  C5  GCU B   3      -8.846  52.751 -17.7650  0.00  0.00     0.000 C
ATOM     39  O5  GCU B   3      -9.998  52.548 -16.9390  0.00  0.00     0.000 O
ATOM     40   O  GCU B   3      -9.104  54.630 -14.0520  0.00  0.00     0.000 O
ATOM     42  HD  GCU B   3      -8.688  55.309 -13.7110  0.00  0.00     0.000 HD
ATOM     42   O  GCU B   3      -6.517  53.714 -14.9640  0.00  0.00     0.000 O
ATOM     44  HD  GCU B   3      -6.101  54.394 -14.6230  0.00  0.00     0.000 HD
BRANCH 38 44
ATOM     44   C  GCU B   3      -8.843  51.700 -18.8470  0.00  0.00     0.000 C
ATOM     45   O  GCU B   3      -9.384  51.963 -19.9320  0.00  0.00     0.000 OA
ATOM     46   O  GCU B   3      -8.300  50.599 -18.6370  0.00  0.00     0.000 OA
ENDBRANCH 38 44
BRANCH 34 47
ATOM     47  O3  NAG B   4     -11.224  53.165 -15.2330  0.00  0.00     0.000 O
BRANCH 47 50
ATOM     48  C1  NAG B   4     -14.063  50.905 -14.4660  0.00  0.00     0.000 C
ATOM     49  C2  NAG B   4     -13.219  51.891 -15.2660  0.00  0.00     0.000 C
ATOM     50  C3  NAG B   4     -11.789  51.946 -14.7540  0.00  0.00     0.000 C
ATOM     51  C4  NAG B   4     -11.679  51.899 -13.2250  0.00  0.00     0.000 C
ATOM     52  C5  NAG B   4     -12.292  50.625 -12.6670  0.00  0.00     0.000 C
ATOM     53  O5  NAG B   4     -13.539  50.249 -13.2920  0.00  0.00     0.000 O
BRANCH 49 56
ATOM     54   N  NAG B   4     -13.063  50.996 -16.4260  0.00  0.00     0.000 N
ATOM     56  HD  NAG B   4     -12.824  50.164 -16.3940  0.00  0.00     0.000 HD
ATOM     56   C  NAG B   4     -12.990  50.275 -18.7420  0.00  0.00     0.000 C
ATOM     57   O  NAG B   4     -13.153  52.526 -18.1040  0.00  0.00     0.000 OA
ATOM     58   C  NAG B   4     -13.069  51.368 -17.7210  0.00  0.00     0.000 C
ENDBRANCH 49 56
ATOM     59   O  NAG B   4     -12.704  49.513 -10.5020  0.00  0.00     0.000 O
ATOM     61  HD  NAG B   4     -12.987  50.034 -11.1340  0.00  0.00     0.000 HD
ATOM     61   O  NAG B   4     -12.704  49.513 -10.5020  0.00  0.00     0.000 O
ATOM     63  HD  NAG B   4     -12.987  50.034 -11.1340  0.00  0.00     0.000 HD
ENDBRANCH 47 50
ENDBRANCH 34 47
ENDBRANCH 33 37
ENDBRANCH 17 33
ENDBRANCH 16 19
ENDBRANCH 1 16
TORSDOF 10
ENDMDL
MODEL 46
REMARK VINA RESULT:      -8.0      3.352     11.120
ROOT
ATOM      1  C1  GCU B   1       0.175  26.417  -5.0480  0.00  0.00     0.000 C
ATOM      2  C2  GCU B   1      -0.901  25.344  -5.1180  0.00  0.00     0.000 C
ATOM      3  C3  GCU B   1      -2.175  25.908  -5.7280  0.00  0.00     0.000 C
ATOM      4  C4  GCU B   1      -2.580  27.187  -5.0100  0.00  0.00     0.000 C
ATOM      5  C5  GCU B   1      -1.412  28.172  -4.9400  0.00  0.00     0.000 C
ATOM      6  O5  GCU B   1      -0.302  27.539  -4.2890  0.00  0.00     0.000 O
ATOM      7   O  GCU B   1      -0.394  24.274  -5.9090  0.00  0.00     0.000 O
ATOM      9  HD  GCU B   1      -0.371  23.438  -5.6830  0.00  0.00     0.000 HD
ATOM      9   O  GCU B   1      -3.236  24.953  -5.6500  0.00  0.00     0.000 O
ATOM     11  HD  GCU B   1      -3.214  24.117  -5.4240  0.00  0.00     0.000 HD
ATOM     11   O  GCU B   1      -3.674  27.782  -5.7090  0.00  0.00     0.000 O
ATOM     13  HD  GCU B   1      -3.651  26.946  -5.4830  0.00  0.00     0.000 HD
ENDROOT
BRANCH 5 13
ATOM     13   C  GCU B   1      -1.846  29.435  -4.2360  0.00  0.00     0.000 C
ATOM     14   O  GCU B   1      -2.214  30.430  -4.8940  0.00  0.00     0.000 OA
ATOM     15   O  GCU B   1      -1.847  29.426  -2.9900  0.00  0.00     0.000 OA
ENDBRANCH 5 13
BRANCH 1 16
ATOM     16  O3  NAG B   2       1.205  26.482  -4.2020  0.00  0.00     0.000 O
BRANCH 16 19
ATOM     17  C1  NAG B   2       4.558  28.007  -5.0130  0.00  0.00     0.000 C
ATOM     18  C2  NAG B   2       3.286  27.204  -5.2510  0.00  0.00     0.000 C
ATOM     19  C3  NAG B   2       2.325  27.372  -4.0760  0.00  0.00     0.000 C
ATOM     20  C4  NAG B   2       3.035  27.059  -2.7590  0.00  0.00     0.000 C
ATOM     21  C5  NAG B   2       4.283  27.920  -2.6290  0.00  0.00     0.000 C
ATOM     22  O5  NAG B   2       5.147  27.660  -3.7490  0.00  0.00     0.000 O
ATOM     23   O  NAG B   2       2.121  27.304  -1.6840  0.00  0.00     0.000 O
ATOM     25  HD  NAG B   2       2.347  26.481  -1.8300  0.00  0.00     0.000 HD
ATOM     25   C  NAG B   2       5.038  27.673  -1.3250  0.00  0.00     0.000 C
ATOM     26   O  NAG B   2       5.725  26.412  -1.3410  0.00  0.00     0.000 O
ATOM     28  HD  NAG B   2       5.951  25.589  -1.4870  0.00  0.00     0.000 HD
BRANCH 18 30
ATOM     28   N  NAG B   2       3.408  26.538  -6.5340  0.00  0.00     0.000 N
ATOM     30  HD  NAG B   2       2.853  27.182  -6.6980  0.00  0.00     0.000 HD
ATOM     30   C  NAG B   2       2.674  26.850  -7.6100  0.00  0.00     0.000 C
ATOM     31   C  NAG B   2       2.886  26.038  -8.8570  0.00  0.00     0.000 C
ATOM     32   O  NAG B   2       1.861  27.752  -7.5910  0.00  0.00     0.000 OA
ENDBRANCH 18 30
BRANCH 17 33
ATOM     33  O4  GCU B   3       5.434  27.779  -6.1350  0.00  0.00     0.000 O
BRANCH 33 37
ATOM     34  C1  GCU B   3       8.206  30.272  -7.9890  0.00  0.00     0.000 C
ATOM     35  C2  GCU B   3       8.604  29.635  -6.6570  0.00  0.00     0.000 C
ATOM     36  C3  GCU B   3       7.688  28.466  -6.3600  0.00  0.00     0.000 C
ATOM     37  C4  GCU B   3       6.239  28.930  -6.4000  0.00  0.00     0.000 C
ATOM     38  C5  GCU B   3       5.933  29.548  -7.7660  0.00  0.00     0.000 C
ATOM     39  O5  GCU B   3       6.826  30.647  -7.9780  0.00  0.00     0.000 O
ATOM     40   O  GCU B   3       9.960  29.190  -6.7430  0.00  0.00     0.000 O
ATOM     42  HD  GCU B   3      10.465  28.503  -6.5960  0.00  0.00     0.000 HD
ATOM     42   O  GCU B   3       7.987  27.887  -5.0780  0.00  0.00     0.000 O
ATOM     44  HD  GCU B   3       8.493  27.199  -4.9310  0.00  0.00     0.000 HD
BRANCH 38 44
ATOM     44   C  GCU B   3       4.517  30.055  -7.8710  0.00  0.00     0.000 C
ATOM     45   O  GCU B   3       4.008  30.606  -6.8830  0.00  0.00     0.000 OA
ATOM     46   O  GCU B   3       3.889  29.917  -8.9380  0.00  0.00     0.000 OA
ENDBRANCH 38 44
BRANCH 34 47
ATOM     47  O3  NAG B   4       8.874  31.407  -8.1360  0.00  0.00     0.000 O
BRANCH 47 50
ATOM     48  C1  NAG B   4       9.347  35.041  -8.7060  0.00  0.00     0.000 C
ATOM     49  C2  NAG B   4       9.048  33.585  -9.0470  0.00  0.00     0.000 C
ATOM     50  C3  NAG B   4       8.694  32.783  -7.8050  0.00  0.00     0.000 C
ATOM     51  C4  NAG B   4       9.551  33.129  -6.5820  0.00  0.00     0.000 C
ATOM     52  C5  NAG B   4       9.411  34.595  -6.2070  0.00  0.00     0.000 C
ATOM     53  O5  NAG B   4       9.407  35.495  -7.3380  0.00  0.00     0.000 O
BRANCH 49 56
ATOM     54   N  NAG B   4       7.723  33.898  -9.6110  0.00  0.00     0.000 N
ATOM     56  HD  NAG B   4       7.153  34.460  -9.2800  0.00  0.00     0.000 HD
ATOM     56   C  NAG B   4       5.801  33.780 -11.0880  0.00  0.00     0.000 C
ATOM     57   O  NAG B   4       7.554  32.223 -11.1380  0.00  0.00     0.000 OA
ATOM     58   C  NAG B   4       7.107  33.228 -10.6050  0.00  0.00     0.000 C
ENDBRANCH 49 56
ATOM     59   O  NAG B   4      10.259  36.215  -4.5490  0.00  0.00     0.000 O
ATOM     61  HD  NAG B   4      10.331  35.847  -5.3300  0.00  0.00     0.000 HD
ATOM     61   O  NAG B   4      10.259  36.215  -4.5490  0.00  0.00     0.000 O
ATOM     63  HD  NAG B   4      10.331  35.847  -5.3300  0.00  0.00     0.000 HD
ENDBRANCH 47 50
ENDBRANCH 34 47
ENDBRANCH 33 37
ENDBRANCH 17 33
ENDBRANCH 16 19
ENDBRANCH 1 16
TORSDOF 10
ENDMDL
MODEL 47
REMARK VINA RESULT:      -8.0     11.777     15.250
ROOT
ATOM      1  C1  GCU B   1       5.133  20.483   2.1170  0.00  0.00     0.000 C
ATOM      2  C2  GCU B   1       6.185  19.475   1.6830  0.00  0.00     0.000 C
ATOM      3  C3  GCU B   1       6.634  18.632   2.8670  0.00  0.00     0.000 C
ATOM      4  C4  GCU B   1       7.035  19.528   4.0280  0.00  0.00     0.000 C
ATOM      5  C5  GCU B   1       5.936  20.544   4.3440  0.00  0.00     0.000 C
ATOM      6  O5  GCU B   1       5.655  21.313   3.1670  0.00  0.00     0.000 O
ATOM      7   O  GCU B   1       5.608  18.656   0.6710  0.00  0.00     0.000 O
ATOM      9  HD  GCU B   1       5.945  18.495  -0.1100  0.00  0.00     0.000 HD
ATOM      9   O  GCU B   1       7.733  17.793   2.5000  0.00  0.00     0.000 O
ATOM     11  HD  GCU B   1       8.070  17.633   1.7190  0.00  0.00     0.000 HD
ATOM     11   O  GCU B   1       7.286  18.714   5.1740  0.00  0.00     0.000 O
ATOM     13  HD  GCU B   1       7.623  18.554   4.3930  0.00  0.00     0.000 HD
ENDROOT
BRANCH 5 13
ATOM     13   C  GCU B   1       6.356  21.410   5.5080  0.00  0.00     0.000 C
ATOM     14   O  GCU B   1       6.470  22.645   5.3670  0.00  0.00     0.000 OA
ATOM     15   O  GCU B   1       6.551  20.845   6.6020  0.00  0.00     0.000 OA
ENDBRANCH 5 13
BRANCH 1 16
ATOM     16  O3  NAG B   2       4.846  21.656   1.5470  0.00  0.00     0.000 O
BRANCH 16 19
ATOM     17  C1  NAG B   2       1.748  23.806   1.4440  0.00  0.00     0.000 C
ATOM     18  C2  NAG B   2       2.605  22.565   1.2240  0.00  0.00     0.000 C
ATOM     19  C3  NAG B   2       3.965  22.735   1.8970  0.00  0.00     0.000 C
ATOM     20  C4  NAG B   2       4.619  24.044   1.4560  0.00  0.00     0.000 C
ATOM     21  C5  NAG B   2       3.676  25.208   1.7280  0.00  0.00     0.000 C
ATOM     22  O5  NAG B   2       2.446  24.986   1.0160  0.00  0.00     0.000 O
ATOM     23   O  NAG B   2       5.851  24.196   2.1690  0.00  0.00     0.000 O
ATOM     25  HD  NAG B   2       5.903  24.055   1.3170  0.00  0.00     0.000 HD
ATOM     25   C  NAG B   2       4.271  26.555   1.3250  0.00  0.00     0.000 C
ATOM     26   O  NAG B   2       4.304  26.716  -0.1020  0.00  0.00     0.000 O
ATOM     28  HD  NAG B   2       4.356  26.574  -0.9550  0.00  0.00     0.000 HD
BRANCH 18 30
ATOM     28   N  NAG B   2       1.697  21.690   0.5060  0.00  0.00     0.000 N
ATOM     30  HD  NAG B   2       1.857  21.253   1.2370  0.00  0.00     0.000 HD
ATOM     30   C  NAG B   2       1.371  20.458   0.9140  0.00  0.00     0.000 C
ATOM     31   C  NAG B   2       0.451  19.655   0.0370  0.00  0.00     0.000 C
ATOM     32   O  NAG B   2       1.798  19.992   1.9510  0.00  0.00     0.000 OA
ENDBRANCH 18 30
BRANCH 17 33
ATOM     33  O4  GCU B   3       0.498  23.599   0.7570  0.00  0.00     0.000 O
BRANCH 33 37
ATOM     34  C1  GCU B   3      -3.346  24.956   1.6060  0.00  0.00     0.000 C
ATOM     35  C2  GCU B   3      -2.333  25.975   1.0810  0.00  0.00     0.000 C
ATOM     36  C3  GCU B   3      -1.170  25.249   0.4400  0.00  0.00     0.000 C
ATOM     37  C4  GCU B   3      -0.574  24.260   1.4320  0.00  0.00     0.000 C
ATOM     38  C5  GCU B   3      -1.656  23.284   1.8980  0.00  0.00     0.000 C
ATOM     39  O5  GCU B   3      -2.717  24.032   2.4990  0.00  0.00     0.000 O
ATOM     40   O  GCU B   3      -2.978  26.818   0.1240  0.00  0.00     0.000 O
ATOM     42  HD  GCU B   3      -2.890  27.137  -0.6760  0.00  0.00     0.000 HD
ATOM     42   O  GCU B   3      -0.161  26.175  -0.0020  0.00  0.00     0.000 O
ATOM     44  HD  GCU B   3      -0.073  26.495  -0.8020  0.00  0.00     0.000 HD
BRANCH 38 44
ATOM     44   C  GCU B   3      -1.144  22.286   2.9060  0.00  0.00     0.000 C
ATOM     45   O  GCU B   3      -0.413  22.690   3.8240  0.00  0.00     0.000 OA
ATOM     46   O  GCU B   3      -1.462  21.086   2.8040  0.00  0.00     0.000 OA
ENDBRANCH 38 44
BRANCH 34 47
ATOM     47  O3  NAG B   4      -4.248  25.590   2.3410  0.00  0.00     0.000 O
BRANCH 47 50
ATOM     48  C1  NAG B   4      -7.497  26.769   3.6880  0.00  0.00     0.000 C
ATOM     49  C2  NAG B   4      -6.219  26.796   2.8560  0.00  0.00     0.000 C
ATOM     50  C3  NAG B   4      -5.611  25.410   2.7200  0.00  0.00     0.000 C
ATOM     51  C4  NAG B   4      -5.676  24.579   4.0070  0.00  0.00     0.000 C
ATOM     52  C5  NAG B   4      -7.112  24.381   4.4640  0.00  0.00     0.000 C
ATOM     53  O5  NAG B   4      -7.934  25.564   4.3510  0.00  0.00     0.000 O
BRANCH 49 56
ATOM     54   N  NAG B   4      -6.934  26.931   1.5750  0.00  0.00     0.000 N
ATOM     56  HD  NAG B   4      -7.628  26.473   1.3330  0.00  0.00     0.000 HD
ATOM     56   C  NAG B   4      -7.450  27.713  -0.6640  0.00  0.00     0.000 C
ATOM     57   O  NAG B   4      -5.443  28.218   0.4400  0.00  0.00     0.000 OA
ATOM     58   C  NAG B   4      -6.515  27.634   0.5040  0.00  0.00     0.000 C
ENDBRANCH 49 56
ATOM     59   O  NAG B   4      -8.389  23.312   6.2860  0.00  0.00     0.000 O
ATOM     61  HD  NAG B   4      -8.000  24.018   5.9690  0.00  0.00     0.000 HD
ATOM     61   O  NAG B   4      -8.389  23.312   6.2860  0.00  0.00     0.000 O
ATOM     63  HD  NAG B   4      -8.000  24.018   5.9690  0.00  0.00     0.000 HD
ENDBRANCH 47 50
ENDBRANCH 34 47
ENDBRANCH 33 37
ENDBRANCH 17 33
ENDBRANCH 16 19
ENDBRANCH 1 16
TORSDOF 10
ENDMDL
MODEL 48
REMARK VINA RESULT:      -8.0      7.820     13.609
ROOT
ATOM      1  C1  GCU B   1       0.563  27.350  -3.1590  0.00  0.00     0.000 C
ATOM      2  C2  GCU B   1       1.796  27.650  -3.9970  0.00  0.00     0.000 C
ATOM      3  C3  GCU B   1       1.913  29.145  -4.2550  0.00  0.00     0.000 C
ATOM      4  C4  GCU B   1       0.605  29.686  -4.8110  0.00  0.00     0.000 C
ATOM      5  C5  GCU B   1      -0.577  29.278  -3.9300  0.00  0.00     0.000 C
ATOM      6  O5  GCU B   1      -0.611  27.849  -3.8210  0.00  0.00     0.000 O
ATOM      7   O  GCU B   1       2.931  27.171  -3.2830  0.00  0.00     0.000 O
ATOM      9  HD  GCU B   1       3.544  26.643  -3.5920  0.00  0.00     0.000 HD
ATOM      9   O  GCU B   1       2.977  29.416  -5.1710  0.00  0.00     0.000 O
ATOM     11  HD  GCU B   1       3.589  28.888  -5.4810  0.00  0.00     0.000 HD
ATOM     11   O  GCU B   1       0.687  31.110  -4.8800  0.00  0.00     0.000 O
ATOM     13  HD  GCU B   1       1.300  30.582  -5.1890  0.00  0.00     0.000 HD
ENDROOT
BRANCH 5 13
ATOM     13   C  GCU B   1      -1.859  29.840  -4.4970  0.00  0.00     0.000 C
ATOM     14   O  GCU B   1      -2.110  31.059  -4.4000  0.00  0.00     0.000 OA
ATOM     15   O  GCU B   1      -2.624  29.049  -5.0800  0.00  0.00     0.000 OA
ENDBRANCH 5 13
BRANCH 1 16
ATOM     16  O3  NAG B   2      -0.135  26.213  -3.1170  0.00  0.00     0.000 O
BRANCH 16 19
ATOM     17  C1  NAG B   2      -1.652  24.337  -0.2180  0.00  0.00     0.000 C
ATOM     18  C2  NAG B   2      -0.561  25.023  -1.0300  0.00  0.00     0.000 C
ATOM     19  C3  NAG B   2      -1.166  25.719  -2.2480  0.00  0.00     0.000 C
ATOM     20  C4  NAG B   2      -2.031  24.743  -3.0440  0.00  0.00     0.000 C
ATOM     21  C5  NAG B   2      -3.083  24.126  -2.1340  0.00  0.00     0.000 C
ATOM     22  O5  NAG B   2      -2.422  23.453  -1.0480  0.00  0.00     0.000 O
ATOM     23   O  NAG B   2      -2.637  25.457  -4.1270  0.00  0.00     0.000 O
ATOM     25  HD  NAG B   2      -2.041  24.863  -4.3310  0.00  0.00     0.000 HD
ATOM     25   C  NAG B   2      -3.999  23.148  -2.8670  0.00  0.00     0.000 C
ATOM     26   O  NAG B   2      -3.324  21.918  -3.1750  0.00  0.00     0.000 O
ATOM     28  HD  NAG B   2      -2.727  21.324  -3.3780  0.00  0.00     0.000 HD
BRANCH 18 30
ATOM     28   N  NAG B   2       0.108  25.498   0.1660  0.00  0.00     0.000 N
ATOM     30  HD  NAG B   2       0.734  25.519  -0.4320  0.00  0.00     0.000 HD
ATOM     30   C  NAG B   2       1.423  25.742   0.2390  0.00  0.00     0.000 C
ATOM     31   C  NAG B   2       1.976  26.187   1.5630  0.00  0.00     0.000 C
ATOM     32   O  NAG B   2       2.153  25.609  -0.7230  0.00  0.00     0.000 OA
ENDBRANCH 18 30
BRANCH 17 33
ATOM     33  O4  GCU B   3      -1.016  23.671   0.8920  0.00  0.00     0.000 O
BRANCH 33 37
ATOM     34  C1  GCU B   3      -2.450  22.905   4.7240  0.00  0.00     0.000 C
ATOM     35  C2  GCU B   3      -2.584  21.795   3.6810  0.00  0.00     0.000 C
ATOM     36  C3  GCU B   3      -1.655  22.076   2.5190  0.00  0.00     0.000 C
ATOM     37  C4  GCU B   3      -1.937  23.465   1.9640  0.00  0.00     0.000 C
ATOM     38  C5  GCU B   3      -1.777  24.506   3.0740  0.00  0.00     0.000 C
ATOM     39  O5  GCU B   3      -2.685  24.186   4.1320  0.00  0.00     0.000 O
ATOM     40   O  GCU B   3      -2.251  20.545   4.2890  0.00  0.00     0.000 O
ATOM     42  HD  GCU B   3      -1.763  19.839   4.1780  0.00  0.00     0.000 HD
ATOM     42   O  GCU B   3      -1.808  21.089   1.4830  0.00  0.00     0.000 O
ATOM     44  HD  GCU B   3      -1.320  20.382   1.3720  0.00  0.00     0.000 HD
BRANCH 38 44
ATOM     44   C  GCU B   3      -2.066  25.909   2.6030  0.00  0.00     0.000 C
ATOM     45   O  GCU B   3      -3.191  26.161   2.1440  0.00  0.00     0.000 OA
ATOM     46   O  GCU B   3      -1.181  26.782   2.6830  0.00  0.00     0.000 OA
ENDBRANCH 38 44
BRANCH 34 47
ATOM     47  O3  NAG B   4      -3.408  22.759   5.6280  0.00  0.00     0.000 O
BRANCH 47 50
ATOM     48  C1  NAG B   4      -7.000  22.965   6.5310  0.00  0.00     0.000 C
ATOM     49  C2  NAG B   4      -5.648  23.429   5.9990  0.00  0.00     0.000 C
ATOM     50  C3  NAG B   4      -4.741  22.253   5.6770  0.00  0.00     0.000 C
ATOM     51  C4  NAG B   4      -4.817  21.116   6.7020  0.00  0.00     0.000 C
ATOM     52  C5  NAG B   4      -6.228  20.561   6.8060  0.00  0.00     0.000 C
ATOM     53  O5  NAG B   4      -7.261  21.572   6.8020  0.00  0.00     0.000 O
BRANCH 49 56
ATOM     54   N  NAG B   4      -6.013  23.719   4.6010  0.00  0.00     0.000 N
ATOM     56  HD  NAG B   4      -6.148  23.129   3.9810  0.00  0.00     0.000 HD
ATOM     56   C  NAG B   4      -6.504  25.009   2.6050  0.00  0.00     0.000 C
ATOM     57   O  NAG B   4      -5.627  25.958   4.5620  0.00  0.00     0.000 OA
ATOM     58   C  NAG B   4      -6.001  24.932   4.0140  0.00  0.00     0.000 C
ENDBRANCH 49 56
ATOM     59   O  NAG B   4      -7.503  18.848   8.0460  0.00  0.00     0.000 O
ATOM     61  HD  NAG B   4      -7.233  19.669   7.9810  0.00  0.00     0.000 HD
ATOM     61   O  NAG B   4      -7.503  18.848   8.0460  0.00  0.00     0.000 O
ATOM     63  HD  NAG B   4      -7.233  19.669   7.9810  0.00  0.00     0.000 HD
ENDBRANCH 47 50
ENDBRANCH 34 47
ENDBRANCH 33 37
ENDBRANCH 17 33
ENDBRANCH 16 19
ENDBRANCH 1 16
TORSDOF 10
ENDMDL
MODEL 49
REMARK VINA RESULT:      -8.0      2.315     11.601
ROOT
ATOM      1  C1  GCU B   1       0.779  27.080  -4.8080  0.00  0.00     0.000 C
ATOM      2  C2  GCU B   1      -0.042  25.994  -4.1300  0.00  0.00     0.000 C
ATOM      3  C3  GCU B   1      -1.526  26.213  -4.3820  0.00  0.00     0.000 C
ATOM      4  C4  GCU B   1      -1.915  27.639  -4.0230  0.00  0.00     0.000 C
ATOM      5  C5  GCU B   1      -0.992  28.649  -4.7060  0.00  0.00     0.000 C
ATOM      6  O5  GCU B   1       0.365  28.372  -4.3350  0.00  0.00     0.000 O
ATOM      7   O  GCU B   1       0.379  24.740  -4.6580  0.00  0.00     0.000 O
ATOM      9  HD  GCU B   1       0.629  24.050  -4.1980  0.00  0.00     0.000 HD
ATOM      9   O  GCU B   1      -2.309  25.291  -3.6190  0.00  0.00     0.000 O
ATOM     11  HD  GCU B   1      -2.059  24.601  -3.1590  0.00  0.00     0.000 HD
ATOM     11   O  GCU B   1      -3.265  27.865  -4.4290  0.00  0.00     0.000 O
ATOM     13  HD  GCU B   1      -3.015  27.175  -3.9690  0.00  0.00     0.000 HD
ENDROOT
BRANCH 5 13
ATOM     13   C  GCU B   1      -1.410  30.054  -4.3430  0.00  0.00     0.000 C
ATOM     14   O  GCU B   1      -2.357  30.605  -4.9400  0.00  0.00     0.000 OA
ATOM     15   O  GCU B   1      -0.793  30.614  -3.4160  0.00  0.00     0.000 OA
ENDBRANCH 5 13
BRANCH 1 16
ATOM     16  O3  NAG B   2       1.992  27.516  -4.4640  0.00  0.00     0.000 O
BRANCH 16 19
ATOM     17  C1  NAG B   2       4.455  29.701  -6.3040  0.00  0.00     0.000 C
ATOM     18  C2  NAG B   2       3.519  28.520  -6.0810  0.00  0.00     0.000 C
ATOM     19  C3  NAG B   2       2.741  28.700  -4.7780  0.00  0.00     0.000 C
ATOM     20  C4  NAG B   2       3.700  28.978  -3.6210  0.00  0.00     0.000 C
ATOM     21  C5  NAG B   2       4.578  30.175  -3.9540  0.00  0.00     0.000 C
ATOM     22  O5  NAG B   2       5.306  29.896  -5.1630  0.00  0.00     0.000 O
ATOM     23   O  NAG B   2       2.925  29.216  -2.4400  0.00  0.00     0.000 O
ATOM     25  HD  NAG B   2       3.397  28.490  -2.4630  0.00  0.00     0.000 HD
ATOM     25   C  NAG B   2       5.554  30.522  -2.8320  0.00  0.00     0.000 C
ATOM     26   O  NAG B   2       6.624  29.568  -2.7450  0.00  0.00     0.000 O
ATOM     28  HD  NAG B   2       7.096  28.843  -2.7680  0.00  0.00     0.000 HD
BRANCH 18 30
ATOM     28   N  NAG B   2       3.689  27.635  -7.2170  0.00  0.00     0.000 N
ATOM     30  HD  NAG B   2       2.905  27.979  -7.3510  0.00  0.00     0.000 HD
ATOM     30   C  NAG B   2       2.730  27.384  -8.1170  0.00  0.00     0.000 C
ATOM     31   C  NAG B   2       3.044  26.407  -9.2160  0.00  0.00     0.000 C
ATOM     32   O  NAG B   2       1.640  27.917  -8.0590  0.00  0.00     0.000 OA
ENDBRANCH 18 30
BRANCH 17 33
ATOM     33  O4  GCU B   3       5.183  29.455  -7.5250  0.00  0.00     0.000 O
BRANCH 33 37
ATOM     34  C1  GCU B   3       6.733  32.089 -10.3510  0.00  0.00     0.000 C
ATOM     35  C2  GCU B   3       7.331  32.125  -8.9440  0.00  0.00     0.000 C
ATOM     36  C3  GCU B   3       6.965  30.856  -8.2050  0.00  0.00     0.000 C
ATOM     37  C4  GCU B   3       5.453  30.676  -8.2160  0.00  0.00     0.000 C
ATOM     38  C5  GCU B   3       4.948  30.649  -9.6600  0.00  0.00     0.000 C
ATOM     39  O5  GCU B   3       5.320  31.876 -10.2950  0.00  0.00     0.000 O
ATOM     40   O  GCU B   3       8.751  32.245  -9.0480  0.00  0.00     0.000 O
ATOM     42  HD  GCU B   3       9.490  31.898  -8.7590  0.00  0.00     0.000 HD
ATOM     42   O  GCU B   3       7.450  30.887  -6.8510  0.00  0.00     0.000 O
ATOM     44  HD  GCU B   3       8.189  30.540  -6.5630  0.00  0.00     0.000 HD
BRANCH 38 44
ATOM     44   C  GCU B   3       3.451  30.498  -9.7490  0.00  0.00     0.000 C
ATOM     45   O  GCU B   3       2.742  31.120  -8.9440  0.00  0.00     0.000 OA
ATOM     46   O  GCU B   3       2.955  29.761 -10.6230  0.00  0.00     0.000 OA
ENDBRANCH 38 44
BRANCH 34 47
ATOM     47  O3  NAG B   4       6.883  33.282 -10.9100  0.00  0.00     0.000 O
BRANCH 47 50
ATOM     48  C1  NAG B   4       9.926  33.707 -12.9860  0.00  0.00     0.000 C
ATOM     49  C2  NAG B   4       8.842  32.975 -12.2020  0.00  0.00     0.000 C
ATOM     50  C3  NAG B   4       7.619  33.852 -11.9910  0.00  0.00     0.000 C
ATOM     51  C4  NAG B   4       7.954  35.312 -11.6640  0.00  0.00     0.000 C
ATOM     52  C5  NAG B   4       8.762  35.955 -12.7790  0.00  0.00     0.000 C
ATOM     53  O5  NAG B   4       9.794  35.103 -13.3260  0.00  0.00     0.000 O
BRANCH 49 56
ATOM     54   N  NAG B   4       8.270  32.166 -13.2930  0.00  0.00     0.000 N
ATOM     56  HD  NAG B   4       7.777  32.465 -13.9390  0.00  0.00     0.000 HD
ATOM     56   C  NAG B   4       7.701  30.205 -14.6050  0.00  0.00     0.000 C
ATOM     57   O  NAG B   4       8.664  30.084 -12.4700  0.00  0.00     0.000 OA
ATOM     58   C  NAG B   4       8.250  30.820 -13.3540  0.00  0.00     0.000 C
ENDBRANCH 49 56
ATOM     59   O  NAG B   4       9.831  38.107 -13.3450  0.00  0.00     0.000 O
ATOM     61  HD  NAG B   4       9.896  37.316 -12.9990  0.00  0.00     0.000 HD
ATOM     61   O  NAG B   4       9.831  38.107 -13.3450  0.00  0.00     0.000 O
ATOM     63  HD  NAG B   4       9.896  37.316 -12.9990  0.00  0.00     0.000 HD
ENDBRANCH 47 50
ENDBRANCH 34 47
ENDBRANCH 33 37
ENDBRANCH 17 33
ENDBRANCH 16 19
ENDBRANCH 1 16
TORSDOF 10
ENDMDL
MODEL 50
REMARK VINA RESULT:      -7.9     10.346     19.548
ROOT
ATOM      1  C1  GCU B   1      -6.385  19.800   6.4260  0.00  0.00     0.000 C
ATOM      2  C2  GCU B   1      -6.934  19.201   7.7110  0.00  0.00     0.000 C
ATOM      3  C3  GCU B   1      -6.593  17.721   7.7980  0.00  0.00     0.000 C
ATOM      4  C4  GCU B   1      -7.011  17.010   6.5200  0.00  0.00     0.000 C
ATOM      5  C5  GCU B   1      -6.458  17.725   5.2860  0.00  0.00     0.000 C
ATOM      6  O5  GCU B   1      -6.906  19.087   5.2930  0.00  0.00     0.000 O
ATOM      7   O  GCU B   1      -6.361  19.915   8.8010  0.00  0.00     0.000 O
ATOM      9  HD  GCU B   1      -6.794  20.285   9.4540  0.00  0.00     0.000 HD
ATOM      9   O  GCU B   1      -7.240  17.119   8.9210  0.00  0.00     0.000 O
ATOM     11  HD  GCU B   1      -7.673  17.488   9.5740  0.00  0.00     0.000 HD
ATOM     11   O  GCU B   1      -6.526  15.667   6.5590  0.00  0.00     0.000 O
ATOM     13  HD  GCU B   1      -6.958  16.037   7.2120  0.00  0.00     0.000 HD
ENDROOT
BRANCH 5 13
ATOM     13   C  GCU B   1      -6.877  16.989   4.0360  0.00  0.00     0.000 C
ATOM     14   O  GCU B   1      -6.142  16.108   3.5460  0.00  0.00     0.000 OA
ATOM     15   O  GCU B   1      -7.984  17.280   3.5430  0.00  0.00     0.000 OA
ENDBRANCH 5 13
BRANCH 1 16
ATOM     16  O3  NAG B   2      -6.840  20.867   5.7660  0.00  0.00     0.000 O
BRANCH 16 19
ATOM     17  C1  NAG B   2      -5.389  23.139   3.1280  0.00  0.00     0.000 C
ATOM     18  C2  NAG B   2      -5.502  22.455   4.4850  0.00  0.00     0.000 C
ATOM     19  C3  NAG B   2      -6.598  21.392   4.4510  0.00  0.00     0.000 C
ATOM     20  C4  NAG B   2      -7.905  21.990   3.9310  0.00  0.00     0.000 C
ATOM     21  C5  NAG B   2      -7.671  22.639   2.5750  0.00  0.00     0.000 C
ATOM     22  O5  NAG B   2      -6.663  23.656   2.7130  0.00  0.00     0.000 O
ATOM     23   O  NAG B   2      -8.877  20.942   3.8440  0.00  0.00     0.000 O
ATOM     25  HD  NAG B   2      -9.008  21.554   4.4430  0.00  0.00     0.000 HD
ATOM     25   C  NAG B   2      -8.941  23.246   1.9840  0.00  0.00     0.000 C
ATOM     26   O  NAG B   2      -9.320  24.452   2.6650  0.00  0.00     0.000 O
ATOM     28  HD  NAG B   2      -9.451  25.063   3.2640  0.00  0.00     0.000 HD
BRANCH 18 30
ATOM     28   N  NAG B   2      -4.159  21.990   4.7740  0.00  0.00     0.000 N
ATOM     30  HD  NAG B   2      -4.354  22.473   5.4660  0.00  0.00     0.000 HD
ATOM     30   C  NAG B   2      -3.439  22.398   5.8260  0.00  0.00     0.000 C
ATOM     31   C  NAG B   2      -2.043  21.858   5.9670  0.00  0.00     0.000 C
ATOM     32   O  NAG B   2      -3.885  23.177   6.6440  0.00  0.00     0.000 OA
ENDBRANCH 18 30
BRANCH 17 33
ATOM     33  O4  GCU B   3      -4.368  24.152   3.2350  0.00  0.00     0.000 O
BRANCH 33 37
ATOM     34  C1  GCU B   3      -1.885  25.807   0.3320  0.00  0.00     0.000 C
ATOM     35  C2  GCU B   3      -3.248  26.461   0.5560  0.00  0.00     0.000 C
ATOM     36  C3  GCU B   3      -3.810  26.018   1.8910  0.00  0.00     0.000 C
ATOM     37  C4  GCU B   3      -3.852  24.498   1.9480  0.00  0.00     0.000 C
ATOM     38  C5  GCU B   3      -2.448  23.935   1.7170  0.00  0.00     0.000 C
ATOM     39  O5  GCU B   3      -1.982  24.384   0.4400  0.00  0.00     0.000 O
ATOM     40   O  GCU B   3      -3.090  27.881   0.5340  0.00  0.00     0.000 O
ATOM     42  HD  GCU B   3      -3.285  28.599   0.9770  0.00  0.00     0.000 HD
ATOM     42   O  GCU B   3      -5.127  26.558   2.1030  0.00  0.00     0.000 O
ATOM     44  HD  GCU B   3      -5.322  27.276   2.5470  0.00  0.00     0.000 HD
BRANCH 38 44
ATOM     44   C  GCU B   3      -2.415  22.427   1.7350  0.00  0.00     0.000 C
ATOM     45   O  GCU B   3      -1.829  21.857   2.6670  0.00  0.00     0.000 OA
ATOM     46   O  GCU B   3      -2.974  21.786   0.8240  0.00  0.00     0.000 OA
ENDBRANCH 38 44
BRANCH 34 47
ATOM     47  O3  NAG B   4      -1.501  26.035  -0.9160  0.00  0.00     0.000 O
BRANCH 47 50
ATOM     48  C1  NAG B   4      -1.768  26.309  -4.6050  0.00  0.00     0.000 C
ATOM     49  C2  NAG B   4      -1.617  25.634  -3.2460  0.00  0.00     0.000 C
ATOM     50  C3  NAG B   4      -2.079  26.542  -2.1180  0.00  0.00     0.000 C
ATOM     51  C4  NAG B   4      -1.672  28.009  -2.3000  0.00  0.00     0.000 C
ATOM     52  C5  NAG B   4      -2.246  28.585  -3.5840  0.00  0.00     0.000 C
ATOM     53  O5  NAG B   4      -2.170  27.691  -4.7160  0.00  0.00     0.000 O
BRANCH 49 56
ATOM     54   N  NAG B   4      -2.805  24.776  -3.4050  0.00  0.00     0.000 N
ATOM     56  HD  NAG B   4      -3.593  25.043  -3.6450  0.00  0.00     0.000 HD
ATOM     56   C  NAG B   4      -4.182  22.778  -3.3640  0.00  0.00     0.000 C
ATOM     57   O  NAG B   4      -2.036  22.876  -2.4230  0.00  0.00     0.000 OA
ATOM     58   C  NAG B   4      -2.911  23.490  -3.0160  0.00  0.00     0.000 C
ENDBRANCH 49 56
ATOM     59   O  NAG B   4      -2.259  30.689  -4.8750  0.00  0.00     0.000 O
ATOM     61  HD  NAG B   4      -1.904  29.913  -4.7260  0.00  0.00     0.000 HD
ATOM     61   O  NAG B   4      -2.259  30.689  -4.8750  0.00  0.00     0.000 O
ATOM     63  HD  NAG B   4      -1.904  29.913  -4.7260  0.00  0.00     0.000 HD
ENDBRANCH 47 50
ENDBRANCH 34 47
ENDBRANCH 33 37
ENDBRANCH 17 33
ENDBRANCH 16 19
ENDBRANCH 1 16
TORSDOF 10
ENDMDL
MODEL 51
REMARK VINA RESULT:      -7.9     14.418     20.841
ROOT
ATOM      1  C1  GCU B   1      -4.619  25.562   1.6570  0.00  0.00     0.000 C
ATOM      2  C2  GCU B   1      -3.878  26.457   0.6760  0.00  0.00     0.000 C
ATOM      3  C3  GCU B   1      -3.960  27.911   1.1160  0.00  0.00     0.000 C
ATOM      4  C4  GCU B   1      -5.406  28.298   1.3820  0.00  0.00     0.000 C
ATOM      5  C5  GCU B   1      -6.077  27.302   2.3300  0.00  0.00     0.000 C
ATOM      6  O5  GCU B   1      -5.987  25.986   1.7690  0.00  0.00     0.000 O
ATOM      7   O  GCU B   1      -2.524  26.020   0.6290  0.00  0.00     0.000 O
ATOM      9  HD  GCU B   1      -2.075  25.822  -0.0850  0.00  0.00     0.000 HD
ATOM      9   O  GCU B   1      -3.404  28.771   0.1180  0.00  0.00     0.000 O
ATOM     11  HD  GCU B   1      -2.956  28.574  -0.5960  0.00  0.00     0.000 HD
ATOM     11   O  GCU B   1      -5.436  29.606   1.9550  0.00  0.00     0.000 O
ATOM     13  HD  GCU B   1      -4.987  29.408   1.2410  0.00  0.00     0.000 HD
ENDROOT
BRANCH 5 13
ATOM     13   C  GCU B   1      -7.505  27.719   2.5870  0.00  0.00     0.000 C
ATOM     14   O  GCU B   1      -7.756  28.831   3.0960  0.00  0.00     0.000 OA
ATOM     15   O  GCU B   1      -8.405  26.927   2.2460  0.00  0.00     0.000 OA
ENDBRANCH 5 13
BRANCH 1 16
ATOM     16  O3  NAG B   2      -5.172  24.371   1.4130  0.00  0.00     0.000 O
BRANCH 16 19
ATOM     17  C1  NAG B   2      -6.332  21.450   3.4980  0.00  0.00     0.000 C
ATOM     18  C2  NAG B   2      -5.343  22.435   2.8880  0.00  0.00     0.000 C
ATOM     19  C3  NAG B   2      -6.088  23.541   2.1430  0.00  0.00     0.000 C
ATOM     20  C4  NAG B   2      -7.080  22.938   1.1490  0.00  0.00     0.000 C
ATOM     21  C5  NAG B   2      -8.015  21.978   1.8700  0.00  0.00     0.000 C
ATOM     22  O5  NAG B   2      -7.231  20.948   2.4960  0.00  0.00     0.000 O
ATOM     23   O  NAG B   2      -7.808  24.007   0.5330  0.00  0.00     0.000 O
ATOM     25  HD  NAG B   2      -7.260  23.562   0.0310  0.00  0.00     0.000 HD
ATOM     25   C  NAG B   2      -9.048  21.348   0.9380  0.00  0.00     0.000 C
ATOM     26   O  NAG B   2      -8.454  20.364   0.0760  0.00  0.00     0.000 O
ATOM     28  HD  NAG B   2      -7.907  19.918  -0.4260  0.00  0.00     0.000 HD
BRANCH 18 30
ATOM     28   N  NAG B   2      -4.511  22.839   4.0050  0.00  0.00     0.000 N
ATOM     30  HD  NAG B   2      -3.935  22.562   3.4200  0.00  0.00     0.000 HD
ATOM     30   C  NAG B   2      -3.187  22.646   4.0580  0.00  0.00     0.000 C
ATOM     31   C  NAG B   2      -2.469  23.080   5.3050  0.00  0.00     0.000 C
ATOM     32   O  NAG B   2      -2.577  22.137   3.1390  0.00  0.00     0.000 OA
ENDBRANCH 18 30
BRANCH 17 33
ATOM     33  O4  GCU B   3      -5.569  20.415   4.1520  0.00  0.00     0.000 O
BRANCH 33 37
ATOM     34  C1  GCU B   3      -6.600  17.950   7.3440  0.00  0.00     0.000 C
ATOM     35  C2  GCU B   3      -6.803  17.403   5.9310  0.00  0.00     0.000 C
ATOM     36  C3  GCU B   3      -6.000  18.229   4.9480  0.00  0.00     0.000 C
ATOM     37  C4  GCU B   3      -6.375  19.697   5.0880  0.00  0.00     0.000 C
ATOM     38  C5  GCU B   3      -6.138  20.154   6.5290  0.00  0.00     0.000 C
ATOM     39  O5  GCU B   3      -6.929  19.341   7.4010  0.00  0.00     0.000 O
ATOM     40   O  GCU B   3      -6.376  16.040   5.8960  0.00  0.00     0.000 O
ATOM     42  HD  GCU B   3      -5.880  15.489   5.4470  0.00  0.00     0.000 HD
ATOM     42   O  GCU B   3      -6.224  17.787   3.5970  0.00  0.00     0.000 O
ATOM     44  HD  GCU B   3      -5.729  17.236   3.1480  0.00  0.00     0.000 HD
BRANCH 38 44
ATOM     44   C  GCU B   3      -6.512  21.598   6.7500  0.00  0.00     0.000 C
ATOM     45   O  GCU B   3      -7.713  21.889   6.8680  0.00  0.00     0.000 OA
ATOM     46   O  GCU B   3      -5.620  22.465   6.8140  0.00  0.00     0.000 OA
ENDBRANCH 38 44
BRANCH 34 47
ATOM     47  O3  NAG B   4      -7.460  17.356   8.1600  0.00  0.00     0.000 O
BRANCH 47 50
ATOM     48  C1  NAG B   4      -7.879  14.809  10.8220  0.00  0.00     0.000 C
ATOM     49  C2  NAG B   4      -7.393  15.413   9.5090  0.00  0.00     0.000 C
ATOM     50  C3  NAG B   4      -7.497  16.929   9.5200  0.00  0.00     0.000 C
ATOM     51  C4  NAG B   4      -8.774  17.455  10.1850  0.00  0.00     0.000 C
ATOM     52  C5  NAG B   4      -8.869  17.003  11.6330  0.00  0.00     0.000 C
ATOM     53  O5  NAG B   4      -8.483  15.627  11.8460  0.00  0.00     0.000 O
BRANCH 49 56
ATOM     54   N  NAG B   4      -5.951  15.297   9.7900  0.00  0.00     0.000 N
ATOM     56  HD  NAG B   4      -5.532  15.677  10.4450  0.00  0.00     0.000 HD
ATOM     56   C  NAG B   4      -3.628  14.654   9.5020  0.00  0.00     0.000 C
ATOM     57   O  NAG B   4      -5.262  14.329   7.8520  0.00  0.00     0.000 OA
ATOM     58   C  NAG B   4      -5.026  14.755   8.9730  0.00  0.00     0.000 C
ENDBRANCH 49 56
ATOM     59   O  NAG B   4     -10.375  17.188  13.5800  0.00  0.00     0.000 O
ATOM     61  HD  NAG B   4     -10.122  16.749  12.8780  0.00  0.00     0.000 HD
ATOM     61   O  NAG B   4     -10.375  17.188  13.5800  0.00  0.00     0.000 O
ATOM     63  HD  NAG B   4     -10.122  16.749  12.8780  0.00  0.00     0.000 HD
ENDBRANCH 47 50
ENDBRANCH 34 47
ENDBRANCH 33 37
ENDBRANCH 17 33
ENDBRANCH 16 19
ENDBRANCH 1 16
TORSDOF 10
ENDMDL
MODEL 52
REMARK VINA RESULT:      -7.9      4.155      7.375
ROOT
ATOM      1  C1  GCU B   1       9.667  31.130  -4.4070  0.00  0.00     0.000 C
ATOM      2  C2  GCU B   1      10.795  30.466  -3.6320  0.00  0.00     0.000 C
ATOM      3  C3  GCU B   1      11.631  31.511  -2.9100  0.00  0.00     0.000 C
ATOM      4  C4  GCU B   1      12.064  32.599  -3.8810  0.00  0.00     0.000 C
ATOM      5  C5  GCU B   1      10.867  33.157  -4.6510  0.00  0.00     0.000 C
ATOM      6  O5  GCU B   1      10.207  32.084  -5.3360  0.00  0.00     0.000 O
ATOM      7   O  GCU B   1      10.207  29.560  -2.7040  0.00  0.00     0.000 O
ATOM      9  HD  GCU B   1      10.409  28.723  -2.6090  0.00  0.00     0.000 HD
ATOM      9   O  GCU B   1      12.783  30.909  -2.3130  0.00  0.00     0.000 O
ATOM     11  HD  GCU B   1      12.984  30.072  -2.2180  0.00  0.00     0.000 HD
ATOM     11   O  GCU B   1      12.697  33.647  -3.1460  0.00  0.00     0.000 O
ATOM     13  HD  GCU B   1      12.899  32.810  -3.0510  0.00  0.00     0.000 HD
ENDROOT
BRANCH 5 13
ATOM     13   C  GCU B   1      11.324  34.243  -5.5950  0.00  0.00     0.000 C
ATOM     14   O  GCU B   1      10.542  35.156  -5.9330  0.00  0.00     0.000 OA
ATOM     15   O  GCU B   1      12.505  34.201  -5.9900  0.00  0.00     0.000 OA
ENDBRANCH 5 13
BRANCH 1 16
ATOM     16  O3  NAG B   2       9.040  30.665  -5.4900  0.00  0.00     0.000 O
BRANCH 16 19
ATOM     17  C1  NAG B   2       5.530  29.412  -6.0720  0.00  0.00     0.000 C
ATOM     18  C2  NAG B   2       6.917  29.464  -5.4430  0.00  0.00     0.000 C
ATOM     19  C3  NAG B   2       7.674  30.698  -5.9300  0.00  0.00     0.000 C
ATOM     20  C4  NAG B   2       7.668  30.757  -7.4570  0.00  0.00     0.000 C
ATOM     21  C5  NAG B   2       6.236  30.703  -7.9700  0.00  0.00     0.000 C
ATOM     22  O5  NAG B   2       5.621  29.489  -7.5040  0.00  0.00     0.000 O
ATOM     23   O  NAG B   2       8.318  31.966  -7.8650  0.00  0.00     0.000 O
ATOM     25  HD  NAG B   2       8.722  31.221  -8.0430  0.00  0.00     0.000 HD
ATOM     25   C  NAG B   2       6.151  30.774  -9.4930  0.00  0.00     0.000 C
ATOM     26   O  NAG B   2       6.578  29.548 -10.1060  0.00  0.00     0.000 O
ATOM     28  HD  NAG B   2       6.982  28.803 -10.2840  0.00  0.00     0.000 HD
BRANCH 18 30
ATOM     28   N  NAG B   2       6.998  28.308  -4.5700  0.00  0.00     0.000 N
ATOM     30  HD  NAG B   2       6.964  28.972  -4.0150  0.00  0.00     0.000 HD
ATOM     30   C  NAG B   2       7.130  28.385  -3.2400  0.00  0.00     0.000 C
ATOM     31   C  NAG B   2       7.246  27.096  -2.4760  0.00  0.00     0.000 C
ATOM     32   O  NAG B   2       7.159  29.452  -2.6600  0.00  0.00     0.000 OA
ENDBRANCH 18 30
BRANCH 17 33
ATOM     33  O4  GCU B   3       4.884  28.212  -5.6030  0.00  0.00     0.000 O
BRANCH 33 37
ATOM     34  C1  GCU B   3       0.874  27.385  -4.8460  0.00  0.00     0.000 C
ATOM     35  C2  GCU B   3       1.298  27.572  -6.3040  0.00  0.00     0.000 C
ATOM     36  C3  GCU B   3       2.801  27.435  -6.4160  0.00  0.00     0.000 C
ATOM     37  C4  GCU B   3       3.476  28.410  -5.4610  0.00  0.00     0.000 C
ATOM     38  C5  GCU B   3       2.995  28.147  -4.0330  0.00  0.00     0.000 C
ATOM     39  O5  GCU B   3       1.572  28.300  -3.9960  0.00  0.00     0.000 O
ATOM     40   O  GCU B   3       0.650  26.581  -7.1040  0.00  0.00     0.000 O
ATOM     42  HD  GCU B   3       0.805  25.980  -7.7090  0.00  0.00     0.000 HD
ATOM     42   O  GCU B   3       3.244  27.677  -7.7640  0.00  0.00     0.000 O
ATOM     44  HD  GCU B   3       3.399  27.076  -8.3680  0.00  0.00     0.000 HD
BRANCH 38 44
ATOM     44   C  GCU B   3       3.604  29.095  -3.0300  0.00  0.00     0.000 C
ATOM     45   O  GCU B   3       3.722  30.290  -3.3390  0.00  0.00     0.000 OA
ATOM     46   O  GCU B   3       3.971  28.667  -1.9190  0.00  0.00     0.000 OA
ENDBRANCH 38 44
BRANCH 34 47
ATOM     47  O3  NAG B   4      -0.406  27.709  -4.7280  0.00  0.00     0.000 O
BRANCH 47 50
ATOM     48  C1  NAG B   4      -3.904  26.478  -4.7550  0.00  0.00     0.000 C
ATOM     49  C2  NAG B   4      -2.461  26.644  -5.2210  0.00  0.00     0.000 C
ATOM     50  C3  NAG B   4      -1.573  27.175  -4.1070  0.00  0.00     0.000 C
ATOM     51  C4  NAG B   4      -2.238  28.261  -3.2520  0.00  0.00     0.000 C
ATOM     52  C5  NAG B   4      -3.503  27.742  -2.5890  0.00  0.00     0.000 C
ATOM     53  O5  NAG B   4      -4.327  26.925  -3.4500  0.00  0.00     0.000 O
BRANCH 49 56
ATOM     54   N  NAG B   4      -1.967  25.259  -5.1220  0.00  0.00     0.000 N
ATOM     56  HD  NAG B   4      -1.687  24.873  -4.3990  0.00  0.00     0.000 HD
ATOM     56   C  NAG B   4      -1.284  23.039  -5.8240  0.00  0.00     0.000 C
ATOM     57   O  NAG B   4      -1.752  24.773  -7.3320  0.00  0.00     0.000 OA
ATOM     58   C  NAG B   4      -1.683  24.443  -6.1570  0.00  0.00     0.000 C
ENDBRANCH 49 56
ATOM     59   O  NAG B   4      -5.314  28.517  -1.1010  0.00  0.00     0.000 O
ATOM     61  HD  NAG B   4      -5.019  28.391  -1.9050  0.00  0.00     0.000 HD
ATOM     61   O  NAG B   4      -5.314  28.517  -1.1010  0.00  0.00     0.000 O
ATOM     63  HD  NAG B   4      -5.019  28.391  -1.9050  0.00  0.00     0.000 HD
ENDBRANCH 47 50
ENDBRANCH 34 47
ENDBRANCH 33 37
ENDBRANCH 17 33
ENDBRANCH 16 19
ENDBRANCH 1 16
TORSDOF 10
ENDMDL
MODEL 53
REMARK VINA RESULT:      -7.9      5.253     10.179
ROOT
ATOM      1  C1  GCU B   1       2.681  27.324  -6.7200  0.00  0.00     0.000 C
ATOM      2  C2  GCU B   1       2.892  26.641  -8.0620  0.00  0.00     0.000 C
ATOM      3  C3  GCU B   1       4.376  26.543  -8.3820  0.00  0.00     0.000 C
ATOM      4  C4  GCU B   1       5.036  27.905  -8.2370  0.00  0.00     0.000 C
ATOM      5  C5  GCU B   1       4.713  28.531  -6.8790  0.00  0.00     0.000 C
ATOM      6  O5  GCU B   1       3.289  28.625  -6.7330  0.00  0.00     0.000 O
ATOM      7   O  GCU B   1       2.306  25.346  -7.9860  0.00  0.00     0.000 O
ATOM      9  HD  GCU B   1       1.733  25.010  -8.5430  0.00  0.00     0.000 HD
ATOM      9   O  GCU B   1       4.574  26.048  -9.7080  0.00  0.00     0.000 O
ATOM     11  HD  GCU B   1       4.002  25.712 -10.2650  0.00  0.00     0.000 HD
ATOM     11   O  GCU B   1       6.449  27.750  -8.3730  0.00  0.00     0.000 O
ATOM     13  HD  GCU B   1       5.877  27.414  -8.9300  0.00  0.00     0.000 HD
ENDROOT
BRANCH 5 13
ATOM     13   C  GCU B   1       5.392  29.874  -6.7580  0.00  0.00     0.000 C
ATOM     14   O  GCU B   1       5.644  30.355  -5.6340  0.00  0.00     0.000 OA
ATOM     15   O  GCU B   1       5.707  30.455  -7.8140  0.00  0.00     0.000 OA
ENDBRANCH 5 13
BRANCH 1 16
ATOM     16  O3  NAG B   2       1.606  28.002  -6.3130  0.00  0.00     0.000 O
BRANCH 16 19
ATOM     17  C1  NAG B   2      -0.745  27.479  -3.4100  0.00  0.00     0.000 C
ATOM     18  C2  NAG B   2       0.016  27.127  -4.6810  0.00  0.00     0.000 C
ATOM     19  C3  NAG B   2       1.014  28.232  -5.0250  0.00  0.00     0.000 C
ATOM     20  C4  NAG B   2       0.313  29.590  -5.0600  0.00  0.00     0.000 C
ATOM     21  C5  NAG B   2      -0.407  29.833  -3.7410  0.00  0.00     0.000 C
ATOM     22  O5  NAG B   2      -1.357  28.774  -3.5270  0.00  0.00     0.000 O
ATOM     23   O  NAG B   2       1.297  30.600  -5.3070  0.00  0.00     0.000 O
ATOM     25  HD  NAG B   2       0.718  30.451  -5.9340  0.00  0.00     0.000 HD
ATOM     25   C  NAG B   2      -1.120  31.183  -3.6970  0.00  0.00     0.000 C
ATOM     26   O  NAG B   2      -2.299  31.187  -4.5170  0.00  0.00     0.000 O
ATOM     28  HD  NAG B   2      -2.878  31.038  -5.1430  0.00  0.00     0.000 HD
BRANCH 18 30
ATOM     28   N  NAG B   2       0.362  25.768  -4.3100  0.00  0.00     0.000 N
ATOM     30  HD  NAG B   2       0.199  25.706  -5.1580  0.00  0.00     0.000 HD
ATOM     30   C  NAG B   2       0.273  24.722  -5.1410  0.00  0.00     0.000 C
ATOM     31   C  NAG B   2       0.625  23.367  -4.5950  0.00  0.00     0.000 C
ATOM     32   O  NAG B   2      -0.081  24.850  -6.2960  0.00  0.00     0.000 OA
ENDBRANCH 18 30
BRANCH 17 33
ATOM     33  O4  GCU B   3      -1.691  26.420  -3.1610  0.00  0.00     0.000 O
BRANCH 33 37
ATOM     34  C1  GCU B   3      -3.860  25.436   0.2540  0.00  0.00     0.000 C
ATOM     35  C2  GCU B   3      -4.303  26.666  -0.5390  0.00  0.00     0.000 C
ATOM     36  C3  GCU B   3      -3.700  26.620  -1.9270  0.00  0.00     0.000 C
ATOM     37  C4  GCU B   3      -2.188  26.480  -1.8230  0.00  0.00     0.000 C
ATOM     38  C5  GCU B   3      -1.841  25.225  -1.0190  0.00  0.00     0.000 C
ATOM     39  O5  GCU B   3      -2.433  25.338   0.2800  0.00  0.00     0.000 O
ATOM     40   O  GCU B   3      -5.730  26.676  -0.6200  0.00  0.00     0.000 O
ATOM     42  HD  GCU B   3      -6.383  26.756  -1.1820  0.00  0.00     0.000 HD
ATOM     42   O  GCU B   3      -4.038  27.799  -2.6780  0.00  0.00     0.000 O
ATOM     44  HD  GCU B   3      -4.691  27.880  -3.2410  0.00  0.00     0.000 HD
BRANCH 38 44
ATOM     44   C  GCU B   3      -0.355  25.034  -0.8520  0.00  0.00     0.000 C
ATOM     45   O  GCU B   3       0.236  25.698   0.0140  0.00  0.00     0.000 OA
ATOM     46   O  GCU B   3       0.249  24.218  -1.5750  0.00  0.00     0.000 OA
ENDBRANCH 38 44
BRANCH 34 47
ATOM     47  O3  NAG B   4      -4.220  25.591   1.5200  0.00  0.00     0.000 O
BRANCH 47 50
ATOM     48  C1  NAG B   4      -6.378  25.268   4.5190  0.00  0.00     0.000 C
ATOM     49  C2  NAG B   4      -5.913  25.788   3.1630  0.00  0.00     0.000 C
ATOM     50  C3  NAG B   4      -4.915  24.842   2.5150  0.00  0.00     0.000 C
ATOM     51  C4  NAG B   4      -3.904  24.242   3.5000  0.00  0.00     0.000 C
ATOM     52  C5  NAG B   4      -4.603  23.453   4.5950  0.00  0.00     0.000 C
ATOM     53  O5  NAG B   4      -5.792  24.090   5.1120  0.00  0.00     0.000 O
BRANCH 49 56
ATOM     54   N  NAG B   4      -7.062  25.382   2.3360  0.00  0.00     0.000 N
ATOM     56  HD  NAG B   4      -7.238  24.575   2.0750  0.00  0.00     0.000 HD
ATOM     56   C  NAG B   4      -9.068  25.582   0.9830  0.00  0.00     0.000 C
ATOM     57   O  NAG B   4      -7.791  27.427   1.6650  0.00  0.00     0.000 OA
ATOM     58   C  NAG B   4      -7.906  26.211   1.6900  0.00  0.00     0.000 C
ENDBRANCH 49 56
ATOM     59   O  NAG B   4      -4.070  22.144   6.6190  0.00  0.00     0.000 O
ATOM     61  HD  NAG B   4      -4.281  22.904   6.2620  0.00  0.00     0.000 HD
ATOM     61   O  NAG B   4      -4.070  22.144   6.6190  0.00  0.00     0.000 O
ATOM     63  HD  NAG B   4      -4.281  22.904   6.2620  0.00  0.00     0.000 HD
ENDBRANCH 47 50
ENDBRANCH 34 47
ENDBRANCH 33 37
ENDBRANCH 17 33
ENDBRANCH 16 19
ENDBRANCH 1 16
TORSDOF 10
ENDMDL
MODEL 54
REMARK VINA RESULT:      -7.9     17.428     22.109
ROOT
ATOM      1  C1  GCU B   1     -12.598  16.172  -1.3220  0.00  0.00     0.000 C
ATOM      2  C2  GCU B   1     -14.114  16.139  -1.4420  0.00  0.00     0.000 C
ATOM      3  C3  GCU B   1     -14.615  14.703  -1.4530  0.00  0.00     0.000 C
ATOM      4  C4  GCU B   1     -13.865  13.893  -2.4980  0.00  0.00     0.000 C
ATOM      5  C5  GCU B   1     -12.352  14.042  -2.3280  0.00  0.00     0.000 C
ATOM      6  O5  GCU B   1     -12.006  15.432  -2.4020  0.00  0.00     0.000 O
ATOM      7   O  GCU B   1     -14.651  16.853  -0.3330  0.00  0.00     0.000 O
ATOM      9  HD  GCU B   1     -15.227  17.499  -0.3720  0.00  0.00     0.000 HD
ATOM      9   O  GCU B   1     -16.019  14.662  -1.7250  0.00  0.00     0.000 O
ATOM     11  HD  GCU B   1     -16.594  15.307  -1.7630  0.00  0.00     0.000 HD
ATOM     11   O  GCU B   1     -14.232  12.519  -2.3680  0.00  0.00     0.000 O
ATOM     13  HD  GCU B   1     -14.808  13.164  -2.4070  0.00  0.00     0.000 HD
ENDROOT
BRANCH 5 13
ATOM     13   C  GCU B   1     -11.634  13.217  -3.3680  0.00  0.00     0.000 C
ATOM     14   O  GCU B   1     -11.282  12.046  -3.1130  0.00  0.00     0.000 OA
ATOM     15   O  GCU B   1     -11.439  13.740  -4.4820  0.00  0.00     0.000 OA
ENDBRANCH 5 13
BRANCH 1 16
ATOM     16  O3  NAG B   2     -11.770  17.134  -1.7360  0.00  0.00     0.000 O
BRANCH 16 19
ATOM     17  C1  NAG B   2      -9.461  19.395   0.2090  0.00  0.00     0.000 C
ATOM     18  C2  NAG B   2     -10.772  18.721  -0.1740  0.00  0.00     0.000 C
ATOM     19  C3  NAG B   2     -10.527  17.650  -1.2350  0.00  0.00     0.000 C
ATOM     20  C4  NAG B   2      -9.746  18.234  -2.4110  0.00  0.00     0.000 C
ATOM     21  C5  NAG B   2      -8.459  18.873  -1.9100  0.00  0.00     0.000 C
ATOM     22  O5  NAG B   2      -8.790  19.899  -0.9570  0.00  0.00     0.000 O
ATOM     23   O  NAG B   2      -9.473  17.179  -3.3400  0.00  0.00     0.000 O
ATOM     25  HD  NAG B   2     -10.027  17.794  -3.5940  0.00  0.00     0.000 HD
ATOM     25   C  NAG B   2      -7.616  19.466  -3.0370  0.00  0.00     0.000 C
ATOM     26   O  NAG B   2      -8.195  20.675  -3.5530  0.00  0.00     0.000 O
ATOM     28  HD  NAG B   2      -8.748  21.290  -3.8060  0.00  0.00     0.000 HD
BRANCH 18 30
ATOM     28   N  NAG B   2     -11.243  18.489   1.1780  0.00  0.00     0.000 N
ATOM     30  HD  NAG B   2     -11.970  18.677   0.7450  0.00  0.00     0.000 HD
ATOM     30   C  NAG B   2     -12.506  18.690   1.5730  0.00  0.00     0.000 C
ATOM     31   C  NAG B   2     -12.831  18.447   3.0200  0.00  0.00     0.000 C
ATOM     32   O  NAG B   2     -13.368  19.058   0.8000  0.00  0.00     0.000 OA
ENDBRANCH 18 30
BRANCH 17 33
ATOM     33  O4  GCU B   3      -9.763  20.416   1.1810  0.00  0.00     0.000 O
BRANCH 33 37
ATOM     34  C1  GCU B   3      -7.248  22.486   3.7740  0.00  0.00     0.000 C
ATOM     35  C2  GCU B   3      -7.540  23.118   2.4120  0.00  0.00     0.000 C
ATOM     36  C3  GCU B   3      -8.766  22.470   1.8040  0.00  0.00     0.000 C
ATOM     37  C4  GCU B   3      -8.568  20.962   1.7410  0.00  0.00     0.000 C
ATOM     38  C5  GCU B   3      -8.284  20.420   3.1440  0.00  0.00     0.000 C
ATOM     39  O5  GCU B   3      -7.114  21.067   3.6540  0.00  0.00     0.000 O
ATOM     40   O  GCU B   3      -7.760  24.520   2.5900  0.00  0.00     0.000 O
ATOM     42  HD  GCU B   3      -8.311  25.157   2.3910  0.00  0.00     0.000 HD
ATOM     42   O  GCU B   3      -9.028  22.990   0.4890  0.00  0.00     0.000 O
ATOM     44  HD  GCU B   3      -9.580  23.627   0.2900  0.00  0.00     0.000 HD
BRANCH 38 44
ATOM     44   C  GCU B   3      -8.051  18.930   3.1560  0.00  0.00     0.000 C
ATOM     45   O  GCU B   3      -6.908  18.506   2.9270  0.00  0.00     0.000 OA
ATOM     46   O  GCU B   3      -8.999  18.159   3.3980  0.00  0.00     0.000 OA
ENDBRANCH 38 44
BRANCH 34 47
ATOM     47  O3  NAG B   4      -6.067  22.913   4.1980  0.00  0.00     0.000 O
BRANCH 47 50
ATOM     48  C1  NAG B   4      -3.466  22.378   6.7870  0.00  0.00     0.000 C
ATOM     49  C2  NAG B   4      -4.866  22.515   6.1980  0.00  0.00     0.000 C
ATOM     50  C3  NAG B   4      -4.856  22.340   4.6890  0.00  0.00     0.000 C
ATOM     51  C4  NAG B   4      -3.661  23.006   3.9980  0.00  0.00     0.000 C
ATOM     52  C5  NAG B   4      -2.345  22.443   4.5090  0.00  0.00     0.000 C
ATOM     53  O5  NAG B   4      -2.306  22.243   5.9390  0.00  0.00     0.000 O
BRANCH 49 56
ATOM     54   N  NAG B   4      -5.304  21.175   6.6270  0.00  0.00     0.000 N
ATOM     56  HD  NAG B   4      -4.867  20.437   6.5060  0.00  0.00     0.000 HD
ATOM     56   C  NAG B   4      -6.726  19.444   7.5630  0.00  0.00     0.000 C
ATOM     57   O  NAG B   4      -7.464  21.635   7.1680  0.00  0.00     0.000 OA
ATOM     58   C  NAG B   4      -6.528  20.852   7.0920  0.00  0.00     0.000 C
ENDBRANCH 49 56
ATOM     59   O  NAG B   4       0.087  22.724   4.1880  0.00  0.00     0.000 O
ATOM     61  HD  NAG B   4      -0.633  22.934   4.6220  0.00  0.00     0.000 HD
ATOM     61   O  NAG B   4       0.087  22.724   4.1880  0.00  0.00     0.000 O
ATOM     63  HD  NAG B   4      -0.633  22.934   4.6220  0.00  0.00     0.000 HD
ENDBRANCH 47 50
ENDBRANCH 34 47
ENDBRANCH 33 37
ENDBRANCH 17 33
ENDBRANCH 16 19
ENDBRANCH 1 16
TORSDOF 10
ENDMDL
MODEL 55
REMARK VINA RESULT:      -7.8     23.226     26.204
ROOT
ATOM      1  C1  GCU B   1      -1.873  49.768 -21.2990  0.00  0.00     0.000 C
ATOM      2  C2  GCU B   1      -0.785  49.994 -22.3360  0.00  0.00     0.000 C
ATOM      3  C3  GCU B   1      -0.676  48.794 -23.2640  0.00  0.00     0.000 C
ATOM      4  C4  GCU B   1      -0.543  47.514 -22.4530  0.00  0.00     0.000 C
ATOM      5  C5  GCU B   1      -1.647  47.412 -21.4000  0.00  0.00     0.000 C
ATOM      6  O5  GCU B   1      -1.598  48.569 -20.5550  0.00  0.00     0.000 O
ATOM      7   O  GCU B   1      -1.122  51.168 -23.0680  0.00  0.00     0.000 O
ATOM      9  HD  GCU B   1      -0.607  51.851 -23.2030  0.00  0.00     0.000 HD
ATOM      9   O  GCU B   1       0.447  48.933 -24.1380  0.00  0.00     0.000 O
ATOM     11  HD  GCU B   1       0.962  49.616 -24.2730  0.00  0.00     0.000 HD
ATOM     11   O  GCU B   1      -0.616  46.397 -23.3400  0.00  0.00     0.000 O
ATOM     13  HD  GCU B   1      -0.101  47.080 -23.4760  0.00  0.00     0.000 HD
ENDROOT
BRANCH 5 13
ATOM     13   C  GCU B   1      -1.498  46.127 -20.6220  0.00  0.00     0.000 C
ATOM     14   O  GCU B   1      -1.716  45.028 -21.1710  0.00  0.00     0.000 OA
ATOM     15   O  GCU B   1      -1.126  46.215 -19.4360  0.00  0.00     0.000 OA
ENDBRANCH 5 13
BRANCH 1 16
ATOM     16  O3  NAG B   2      -1.966  50.313 -20.0840  0.00  0.00     0.000 O
BRANCH 16 19
ATOM     17  C1  NAG B   2      -4.978  51.846 -18.4100  0.00  0.00     0.000 C
ATOM     18  C2  NAG B   2      -3.961  51.597 -19.5170  0.00  0.00     0.000 C
ATOM     19  C3  NAG B   2      -3.038  50.440 -19.1380  0.00  0.00     0.000 C
ATOM     20  C4  NAG B   2      -2.429  50.677 -17.7560  0.00  0.00     0.000 C
ATOM     21  C5  NAG B   2      -3.535  50.908 -16.7370  0.00  0.00     0.000 C
ATOM     22  O5  NAG B   2      -4.318  52.042 -17.1490  0.00  0.00     0.000 O
ATOM     23   O  NAG B   2      -1.636  49.535 -17.4120  0.00  0.00     0.000 O
ATOM     25  HD  NAG B   2      -1.215  50.277 -17.5610  0.00  0.00     0.000 HD
ATOM     25   C  NAG B   2      -2.998  51.136 -15.3250  0.00  0.00     0.000 C
ATOM     26   O  NAG B   2      -2.394  52.432 -15.1900  0.00  0.00     0.000 O
ATOM     28  HD  NAG B   2      -1.974  53.174 -15.3400  0.00  0.00     0.000 HD
BRANCH 18 30
ATOM     28   N  NAG B   2      -4.264  52.557 -20.5610  0.00  0.00     0.000 N
ATOM     30  HD  NAG B   2      -4.506  51.803 -20.9100  0.00  0.00     0.000 HD
ATOM     30   C  NAG B   2      -4.681  52.219 -21.7870  0.00  0.00     0.000 C
ATOM     31   C  NAG B   2      -4.911  53.328 -22.7760  0.00  0.00     0.000 C
ATOM     32   O  NAG B   2      -4.869  51.061 -22.1040  0.00  0.00     0.000 OA
ENDBRANCH 18 30
BRANCH 17 33
ATOM     33  O4  GCU B   3      -5.792  52.967 -18.8100  0.00  0.00     0.000 O
BRANCH 33 37
ATOM     34  C1  GCU B   3      -9.825  53.783 -18.1770  0.00  0.00     0.000 C
ATOM     35  C2  GCU B   3      -8.874  53.940 -16.9890  0.00  0.00     0.000 C
ATOM     36  C3  GCU B   3      -7.448  54.024 -17.4900  0.00  0.00     0.000 C
ATOM     37  C4  GCU B   3      -7.138  52.812 -18.3570  0.00  0.00     0.000 C
ATOM     38  C5  GCU B   3      -8.135  52.739 -19.5150  0.00  0.00     0.000 C
ATOM     39  O5  GCU B   3      -9.457  52.654 -18.9740  0.00  0.00     0.000 O
ATOM     40   O  GCU B   3      -9.218  55.129 -16.2750  0.00  0.00     0.000 O
ATOM     42  HD  GCU B   3      -8.874  55.851 -15.9420  0.00  0.00     0.000 HD
ATOM     42   O  GCU B   3      -6.518  54.099 -16.3940  0.00  0.00     0.000 O
ATOM     44  HD  GCU B   3      -6.175  54.821 -16.0610  0.00  0.00     0.000 HD
BRANCH 38 44
ATOM     44   C  GCU B   3      -7.906  51.544 -20.4060  0.00  0.00     0.000 C
ATOM     45   O  GCU B   3      -8.143  51.654 -21.6190  0.00  0.00     0.000 OA
ATOM     46   O  GCU B   3      -7.482  50.480 -19.9160  0.00  0.00     0.000 OA
ENDBRANCH 38 44
BRANCH 34 47
ATOM     47  O3  NAG B   4     -11.038  53.505 -17.7190  0.00  0.00     0.000 O
BRANCH 47 50
ATOM     48  C1  NAG B   4     -14.271  51.700 -17.5200  0.00  0.00     0.000 C
ATOM     49  C2  NAG B   4     -13.209  52.638 -18.0850  0.00  0.00     0.000 C
ATOM     50  C3  NAG B   4     -11.838  52.345 -17.4980  0.00  0.00     0.000 C
ATOM     51  C4  NAG B   4     -11.864  52.022 -15.9990  0.00  0.00     0.000 C
ATOM     52  C5  NAG B   4     -12.728  50.805 -15.7130  0.00  0.00     0.000 C
ATOM     53  O5  NAG B   4     -13.965  50.772 -16.4590  0.00  0.00     0.000 O
BRANCH 49 56
ATOM     54   N  NAG B   4     -13.162  51.939 -19.3810  0.00  0.00     0.000 N
ATOM     56  HD  NAG B   4     -13.192  51.081 -19.4940  0.00  0.00     0.000 HD
ATOM     56   C  NAG B   4     -12.970  51.616 -21.7790  0.00  0.00     0.000 C
ATOM     57   O  NAG B   4     -12.540  53.665 -20.7220  0.00  0.00     0.000 OA
ATOM     58   C  NAG B   4     -12.865  52.497 -20.5720  0.00  0.00     0.000 C
ENDBRANCH 49 56
ATOM     59   O  NAG B   4     -13.499  49.437 -13.8080  0.00  0.00     0.000 O
ATOM     61  HD  NAG B   4     -13.637  50.100 -14.3490  0.00  0.00     0.000 HD
ATOM     61   O  NAG B   4     -13.499  49.437 -13.8080  0.00  0.00     0.000 O
ATOM     63  HD  NAG B   4     -13.637  50.100 -14.3490  0.00  0.00     0.000 HD
ENDBRANCH 47 50
ENDBRANCH 34 47
ENDBRANCH 33 37
ENDBRANCH 17 33
ENDBRANCH 16 19
ENDBRANCH 1 16
TORSDOF 10
ENDMDL
MODEL 56
REMARK VINA RESULT:      -7.8      5.366     10.413
ROOT
ATOM      1  C1  GCU B   1       2.088  26.966  -7.1320  0.00  0.00     0.000 C
ATOM      2  C2  GCU B   1       2.512  26.919  -8.5920  0.00  0.00     0.000 C
ATOM      3  C3  GCU B   1       3.981  26.543  -8.7070  0.00  0.00     0.000 C
ATOM      4  C4  GCU B   1       4.825  27.441  -7.8150  0.00  0.00     0.000 C
ATOM      5  C5  GCU B   1       4.280  27.466  -6.3860  0.00  0.00     0.000 C
ATOM      6  O5  GCU B   1       2.912  27.897  -6.4130  0.00  0.00     0.000 O
ATOM      7   O  GCU B   1       1.693  25.959  -9.2500  0.00  0.00     0.000 O
ATOM      9  HD  GCU B   1       1.235  26.088  -9.9740  0.00  0.00     0.000 HD
ATOM      9   O  GCU B   1       4.425  26.653 -10.0620  0.00  0.00     0.000 O
ATOM     11  HD  GCU B   1       3.967  26.782 -10.7850  0.00  0.00     0.000 HD
ATOM     11   O  GCU B   1       6.169  26.957  -7.8120  0.00  0.00     0.000 O
ATOM     13  HD  GCU B   1       5.711  27.086  -8.5350  0.00  0.00     0.000 HD
ENDROOT
BRANCH 5 13
ATOM     13   C  GCU B   1       5.144  28.352  -5.5220  0.00  0.00     0.000 C
ATOM     14   O  GCU B   1       5.489  27.979  -4.3820  0.00  0.00     0.000 OA
ATOM     15   O  GCU B   1       5.511  29.441  -6.0040  0.00  0.00     0.000 OA
ENDBRANCH 5 13
BRANCH 1 16
ATOM     16  O3  NAG B   2       1.092  27.675  -6.5970  0.00  0.00     0.000 O
BRANCH 16 19
ATOM     17  C1  NAG B   2      -0.891  27.365  -3.4030  0.00  0.00     0.000 C
ATOM     18  C2  NAG B   2      -0.338  26.945  -4.7590  0.00  0.00     0.000 C
ATOM     19  C3  NAG B   2       0.697  27.958  -5.2450  0.00  0.00     0.000 C
ATOM     20  C4  NAG B   2       0.118  29.372  -5.2050  0.00  0.00     0.000 C
ATOM     21  C5  NAG B   2      -0.397  29.679  -3.8070  0.00  0.00     0.000 C
ATOM     22  O5  NAG B   2      -1.399  28.708  -3.4560  0.00  0.00     0.000 O
ATOM     23   O  NAG B   2       1.145  30.291  -5.5940  0.00  0.00     0.000 O
ATOM     25  HD  NAG B   2       0.478  30.192  -6.1360  0.00  0.00     0.000 HD
ATOM     25   C  NAG B   2      -0.978  31.086  -3.6870  0.00  0.00     0.000 C
ATOM     26   O  NAG B   2      -2.250  31.193  -4.3440  0.00  0.00     0.000 O
ATOM     28  HD  NAG B   2      -2.917  31.095  -4.8870  0.00  0.00     0.000 HD
BRANCH 18 30
ATOM     28   N  NAG B   2      -0.222  25.553  -4.3680  0.00  0.00     0.000 N
ATOM     30  HD  NAG B   2      -0.294  25.511  -5.2300  0.00  0.00     0.000 HD
ATOM     30   C  NAG B   2      -0.355  24.526  -5.2170  0.00  0.00     0.000 C
ATOM     31   C  NAG B   2      -0.252  23.137  -4.6520  0.00  0.00     0.000 C
ATOM     32   O  NAG B   2      -0.554  24.697  -6.4030  0.00  0.00     0.000 OA
ENDBRANCH 18 30
BRANCH 17 33
ATOM     33  O4  GCU B   3      -1.884  26.393  -3.0180  0.00  0.00     0.000 O
BRANCH 33 37
ATOM     34  C1  GCU B   3      -3.837  25.770   0.6050  0.00  0.00     0.000 C
ATOM     35  C2  GCU B   3      -4.323  26.923  -0.2740  0.00  0.00     0.000 C
ATOM     36  C3  GCU B   3      -3.810  26.735  -1.6860  0.00  0.00     0.000 C
ATOM     37  C4  GCU B   3      -2.295  26.587  -1.6640  0.00  0.00     0.000 C
ATOM     38  C5  GCU B   3      -1.905  25.413  -0.7650  0.00  0.00     0.000 C
ATOM     39  O5  GCU B   3      -2.412  25.658   0.5510  0.00  0.00     0.000 O
ATOM     40   O  GCU B   3      -5.752  26.941  -0.2650  0.00  0.00     0.000 O
ATOM     42  HD  GCU B   3      -6.440  26.975  -0.7910  0.00  0.00     0.000 HD
ATOM     42   O  GCU B   3      -4.188  27.840  -2.5250  0.00  0.00     0.000 O
ATOM     44  HD  GCU B   3      -4.875  27.874  -3.0510  0.00  0.00     0.000 HD
BRANCH 38 44
ATOM     44   C  GCU B   3      -0.412  25.220  -0.6740  0.00  0.00     0.000 C
ATOM     45   O  GCU B   3       0.209  25.812   0.2220  0.00  0.00     0.000 OA
ATOM     46   O  GCU B   3       0.166  24.476  -1.4890  0.00  0.00     0.000 OA
ENDBRANCH 38 44
BRANCH 34 47
ATOM     47  O3  NAG B   4      -4.116  26.051   1.8710  0.00  0.00     0.000 O
BRANCH 47 50
ATOM     48  C1  NAG B   4      -5.610  23.149   3.6320  0.00  0.00     0.000 C
ATOM     49  C2  NAG B   4      -4.574  23.941   2.8410  0.00  0.00     0.000 C
ATOM     50  C3  NAG B   4      -4.810  25.438   2.9560  0.00  0.00     0.000 C
ATOM     51  C4  NAG B   4      -6.289  25.836   2.9040  0.00  0.00     0.000 C
ATOM     52  C5  NAG B   4      -7.075  25.185   4.0300  0.00  0.00     0.000 C
ATOM     53  O5  NAG B   4      -6.729  23.802   4.2680  0.00  0.00     0.000 O
BRANCH 49 56
ATOM     54   N  NAG B   4      -3.487  23.804   3.8260  0.00  0.00     0.000 N
ATOM     56  HD  NAG B   4      -3.520  24.057   4.6530  0.00  0.00     0.000 HD
ATOM     56   C  NAG B   4      -1.295  23.281   4.7280  0.00  0.00     0.000 C
ATOM     57   O  NAG B   4      -1.778  23.250   2.4330  0.00  0.00     0.000 OA
ATOM     58   C  NAG B   4      -2.214  23.453   3.5570  0.00  0.00     0.000 C
ENDBRANCH 49 56
ATOM     59   O  NAG B   4      -9.380  25.063   4.9060  0.00  0.00     0.000 O
ATOM     61  HD  NAG B   4      -8.761  24.732   4.3990  0.00  0.00     0.000 HD
ATOM     61   O  NAG B   4      -9.380  25.063   4.9060  0.00  0.00     0.000 O
ATOM     63  HD  NAG B   4      -8.761  24.732   4.3990  0.00  0.00     0.000 HD
ENDBRANCH 47 50
ENDBRANCH 34 47
ENDBRANCH 33 37
ENDBRANCH 17 33
ENDBRANCH 16 19
ENDBRANCH 1 16
TORSDOF 10
ENDMDL
MODEL 57
REMARK VINA RESULT:      -7.8      5.030      8.388
ROOT
ATOM      1  C1  GCU B   1      11.463  30.917  -2.9810  0.00  0.00     0.000 C
ATOM      2  C2  GCU B   1      12.698  30.202  -2.4560  0.00  0.00     0.000 C
ATOM      3  C3  GCU B   1      13.450  31.091  -1.4770  0.00  0.00     0.000 C
ATOM      4  C4  GCU B   1      13.705  32.456  -2.0950  0.00  0.00     0.000 C
ATOM      5  C5  GCU B   1      12.412  33.060  -2.6460  0.00  0.00     0.000 C
ATOM      6  O5  GCU B   1      11.841  32.156  -3.6010  0.00  0.00     0.000 O
ATOM      7   O  GCU B   1      12.267  29.003  -1.8200  0.00  0.00     0.000 O
ATOM      9  HD  GCU B   1      12.566  28.205  -1.9780  0.00  0.00     0.000 HD
ATOM      9   O  GCU B   1      14.693  30.490  -1.1030  0.00  0.00     0.000 O
ATOM     11  HD  GCU B   1      14.991  29.692  -1.2600  0.00  0.00     0.000 HD
ATOM     11   O  GCU B   1      14.255  33.319  -1.0990  0.00  0.00     0.000 O
ATOM     13  HD  GCU B   1      14.554  32.522  -1.2570  0.00  0.00     0.000 HD
ENDROOT
BRANCH 5 13
ATOM     13   C  GCU B   1      12.693  34.420  -3.2410  0.00  0.00     0.000 C
ATOM     14   O  GCU B   1      11.998  35.405  -2.9190  0.00  0.00     0.000 OA
ATOM     15   O  GCU B   1      13.651  34.513  -4.0320  0.00  0.00     0.000 OA
ENDBRANCH 5 13
BRANCH 1 16
ATOM     16  O3  NAG B   2      10.834  30.709  -4.1400  0.00  0.00     0.000 O
BRANCH 16 19
ATOM     17  C1  NAG B   2       7.250  29.796  -4.8780  0.00  0.00     0.000 C
ATOM     18  C2  NAG B   2       8.629  29.670  -4.2440  0.00  0.00     0.000 C
ATOM     19  C3  NAG B   2       9.479  30.895  -4.5750  0.00  0.00     0.000 C
ATOM     20  C4  NAG B   2       9.493  31.141  -6.0840  0.00  0.00     0.000 C
ATOM     21  C5  NAG B   2       8.066  31.254  -6.6020  0.00  0.00     0.000 C
ATOM     22  O5  NAG B   2       7.360  30.040  -6.2890  0.00  0.00     0.000 O
ATOM     23   O  NAG B   2      10.234  32.340  -6.3390  0.00  0.00     0.000 O
ATOM     25  HD  NAG B   2      10.585  31.594  -6.6060  0.00  0.00     0.000 HD
ATOM     25   C  NAG B   2       8.003  31.517  -8.1050  0.00  0.00     0.000 C
ATOM     26   O  NAG B   2       8.348  30.347  -8.8630  0.00  0.00     0.000 O
ATOM     28  HD  NAG B   2       8.698  29.602  -9.1300  0.00  0.00     0.000 HD
BRANCH 18 30
ATOM     28   N  NAG B   2       8.144  29.249  -2.9440  0.00  0.00     0.000 N
ATOM     30  HD  NAG B   2       8.898  28.831  -3.0170  0.00  0.00     0.000 HD
ATOM     30   C  NAG B   2       8.740  28.317  -2.1900  0.00  0.00     0.000 C
ATOM     31   C  NAG B   2       8.090  27.956  -0.8840  0.00  0.00     0.000 C
ATOM     32   O  NAG B   2       9.768  27.772  -2.5400  0.00  0.00     0.000 OA
ENDBRANCH 18 30
BRANCH 17 33
ATOM     33  O4  GCU B   3       6.513  28.598  -4.5600  0.00  0.00     0.000 O
BRANCH 33 37
ATOM     34  C1  GCU B   3       2.452  27.727  -4.8540  0.00  0.00     0.000 C
ATOM     35  C2  GCU B   3       3.270  27.744  -6.1460  0.00  0.00     0.000 C
ATOM     36  C3  GCU B   3       4.744  27.650  -5.8150  0.00  0.00     0.000 C
ATOM     37  C4  GCU B   3       5.122  28.760  -4.8450  0.00  0.00     0.000 C
ATOM     38  C5  GCU B   3       4.258  28.661  -3.5860  0.00  0.00     0.000 C
ATOM     39  O5  GCU B   3       2.882  28.765  -3.9690  0.00  0.00     0.000 O
ATOM     40   O  GCU B   3       2.874  26.638  -6.9600  0.00  0.00     0.000 O
ATOM     42  HD  GCU B   3       3.194  25.973  -7.4130  0.00  0.00     0.000 HD
ATOM     42   O  GCU B   3       5.549  27.737  -7.0050  0.00  0.00     0.000 O
ATOM     44  HD  GCU B   3       5.868  27.072  -7.4580  0.00  0.00     0.000 HD
BRANCH 38 44
ATOM     44   C  GCU B   3       4.559  29.748  -2.5860  0.00  0.00     0.000 C
ATOM     45   O  GCU B   3       4.870  29.422  -1.4300  0.00  0.00     0.000 OA
ATOM     46   O  GCU B   3       4.495  30.943  -2.9340  0.00  0.00     0.000 OA
ENDBRANCH 38 44
BRANCH 34 47
ATOM     47  O3  NAG B   4       1.191  28.016  -5.1420  0.00  0.00     0.000 O
BRANCH 47 50
ATOM     48  C1  NAG B   4      -2.383  28.935  -4.7780  0.00  0.00     0.000 C
ATOM     49  C2  NAG B   4      -1.167  28.030  -4.9430  0.00  0.00     0.000 C
ATOM     50  C3  NAG B   4       0.116  28.741  -4.5480  0.00  0.00     0.000 C
ATOM     51  C4  NAG B   4       0.176  30.204  -5.0030  0.00  0.00     0.000 C
ATOM     52  C5  NAG B   4      -0.968  31.012  -4.4130  0.00  0.00     0.000 C
ATOM     53  O5  NAG B   4      -2.240  30.327  -4.4230  0.00  0.00     0.000 O
BRANCH 49 56
ATOM     54   N  NAG B   4      -1.129  27.157  -3.7570  0.00  0.00     0.000 N
ATOM     56  HD  NAG B   4      -0.580  27.232  -3.0920  0.00  0.00     0.000 HD
ATOM     56   C  NAG B   4      -1.687  25.318  -2.2740  0.00  0.00     0.000 C
ATOM     57   O  NAG B   4      -2.491  25.483  -4.4710  0.00  0.00     0.000 OA
ATOM     58   C  NAG B   4      -1.797  25.996  -3.6050  0.00  0.00     0.000 C
ENDBRANCH 49 56
ATOM     59   O  NAG B   4      -1.875  33.308  -4.4390  0.00  0.00     0.000 O
ATOM     61  HD  NAG B   4      -1.874  32.508  -4.7690  0.00  0.00     0.000 HD
ATOM     61   O  NAG B   4      -1.875  33.308  -4.4390  0.00  0.00     0.000 O
ATOM     63  HD  NAG B   4      -1.874  32.508  -4.7690  0.00  0.00     0.000 HD
ENDBRANCH 47 50
ENDBRANCH 34 47
ENDBRANCH 33 37
ENDBRANCH 17 33
ENDBRANCH 16 19
ENDBRANCH 1 16
TORSDOF 10
ENDMDL
MODEL 58
REMARK VINA RESULT:      -7.8     29.809     33.900
ROOT
ATOM      1  C1  GCU B   1     -14.489  51.006  10.2800  0.00  0.00     0.000 C
ATOM      2  C2  GCU B   1     -14.694  50.767  11.7670  0.00  0.00     0.000 C
ATOM      3  C3  GCU B   1     -14.443  52.045  12.5510  0.00  0.00     0.000 C
ATOM      4  C4  GCU B   1     -13.095  52.639  12.1700  0.00  0.00     0.000 C
ATOM      5  C5  GCU B   1     -12.966  52.781  10.6530  0.00  0.00     0.000 C
ATOM      6  O5  GCU B   1     -13.160  51.498  10.0420  0.00  0.00     0.000 O
ATOM      7   O  GCU B   1     -16.033  50.316  11.9530  0.00  0.00     0.000 O
ATOM      9  HD  GCU B   1     -16.277  49.604  12.3800  0.00  0.00     0.000 HD
ATOM      9   O  GCU B   1     -14.478  51.790  13.9580  0.00  0.00     0.000 O
ATOM     11  HD  GCU B   1     -14.723  51.077  14.3850  0.00  0.00     0.000 HD
ATOM     11   O  GCU B   1     -12.963  53.919  12.7890  0.00  0.00     0.000 O
ATOM     13  HD  GCU B   1     -13.208  53.207  13.2160  0.00  0.00     0.000 HD
ENDROOT
BRANCH 5 13
ATOM     13   C  GCU B   1     -11.627  53.385  10.3050  0.00  0.00     0.000 C
ATOM     14   O  GCU B   1     -11.451  53.937   9.2000  0.00  0.00     0.000 OA
ATOM     15   O  GCU B   1     -10.732  53.331  11.1700  0.00  0.00     0.000 OA
ENDBRANCH 5 13
BRANCH 1 16
ATOM     16  O3  NAG B   2     -14.153  50.108   9.3500  0.00  0.00     0.000 O
BRANCH 16 19
ATOM     17  C1  NAG B   2     -16.044  50.162   6.0870  0.00  0.00     0.000 C
ATOM     18  C2  NAG B   2     -15.785  50.427   7.5640  0.00  0.00     0.000 C
ATOM     19  C3  NAG B   2     -14.355  50.035   7.9300  0.00  0.00     0.000 C
ATOM     20  C4  NAG B   2     -14.064  48.603   7.4820  0.00  0.00     0.000 C
ATOM     21  C5  NAG B   2     -14.354  48.460   5.9950  0.00  0.00     0.000 C
ATOM     22  O5  NAG B   2     -15.730  48.801   5.7530  0.00  0.00     0.000 O
ATOM     23   O  NAG B   2     -12.694  48.308   7.7750  0.00  0.00     0.000 O
ATOM     25  HD  NAG B   2     -13.295  47.885   8.2320  0.00  0.00     0.000 HD
ATOM     25   C  NAG B   2     -14.070  47.054   5.4710  0.00  0.00     0.000 C
ATOM     26   O  NAG B   2     -15.062  46.113   5.9100  0.00  0.00     0.000 O
ATOM     28  HD  NAG B   2     -15.664  45.691   6.3680  0.00  0.00     0.000 HD
BRANCH 18 30
ATOM     28   N  NAG B   2     -16.268  51.794   7.6370  0.00  0.00     0.000 N
ATOM     30  HD  NAG B   2     -16.585  51.433   8.3580  0.00  0.00     0.000 HD
ATOM     30   C  NAG B   2     -17.116  52.236   8.5730  0.00  0.00     0.000 C
ATOM     31   C  NAG B   2     -17.561  53.669   8.4890  0.00  0.00     0.000 C
ATOM     32   O  NAG B   2     -17.522  51.515   9.4620  0.00  0.00     0.000 OA
ENDBRANCH 18 30
BRANCH 17 33
ATOM     33  O4  GCU B   3     -17.414  50.517   5.8140  0.00  0.00     0.000 O
BRANCH 33 37
ATOM     34  C1  GCU B   3     -19.527  50.561   2.2260  0.00  0.00     0.000 C
ATOM     35  C2  GCU B   3     -19.550  49.272   3.0480  0.00  0.00     0.000 C
ATOM     36  C3  GCU B   3     -19.113  49.567   4.4670  0.00  0.00     0.000 C
ATOM     37  C4  GCU B   3     -17.753  50.250   4.4520  0.00  0.00     0.000 C
ATOM     38  C5  GCU B   3     -17.826  51.526   3.6110  0.00  0.00     0.000 C
ATOM     39  O5  GCU B   3     -18.236  51.175   2.2860  0.00  0.00     0.000 O
ATOM     40   O  GCU B   3     -20.878  48.742   3.0400  0.00  0.00     0.000 O
ATOM     42  HD  GCU B   3     -21.497  48.440   3.5640  0.00  0.00     0.000 HD
ATOM     42   O  GCU B   3     -19.054  48.363   5.2520  0.00  0.00     0.000 O
ATOM     44  HD  GCU B   3     -19.674  48.060   5.7760  0.00  0.00     0.000 HD
BRANCH 38 44
ATOM     44   C  GCU B   3     -16.504  52.245   3.5290  0.00  0.00     0.000 C
ATOM     45   O  GCU B   3     -15.572  51.707   2.9120  0.00  0.00     0.000 OA
ATOM     46   O  GCU B   3     -16.371  53.358   4.0730  0.00  0.00     0.000 OA
ENDBRANCH 38 44
BRANCH 34 47
ATOM     47  O3  NAG B   4     -19.708  50.257   0.9490  0.00  0.00     0.000 O
BRANCH 47 50
ATOM     48  C1  NAG B   4     -18.566  49.871  -2.5580  0.00  0.00     0.000 C
ATOM     49  C2  NAG B   4     -18.893  50.582  -1.2490  0.00  0.00     0.000 C
ATOM     50  C3  NAG B   4     -18.983  49.603  -0.0900  0.00  0.00     0.000 C
ATOM     51  C4  NAG B   4     -19.681  48.285  -0.4470  0.00  0.00     0.000 C
ATOM     52  C5  NAG B   4     -18.954  47.564  -1.5710  0.00  0.00     0.000 C
ATOM     53  O5  NAG B   4     -18.506  48.432  -2.6360  0.00  0.00     0.000 O
BRANCH 49 56
ATOM     54   N  NAG B   4     -17.865  51.631  -1.1310  0.00  0.00     0.000 N
ATOM     56  HD  NAG B   4     -17.921  52.433  -1.4550  0.00  0.00     0.000 HD
ATOM     56   C  NAG B   4     -15.758  52.689  -0.5550  0.00  0.00     0.000 C
ATOM     57   O  NAG B   4     -16.131  50.382  -0.3590  0.00  0.00     0.000 OA
ATOM     58   C  NAG B   4     -16.606  51.461  -0.6820  0.00  0.00     0.000 C
ENDBRANCH 49 56
ATOM     59   O  NAG B   4     -19.130  45.508  -2.9250  0.00  0.00     0.000 O
ATOM     61  HD  NAG B   4     -19.307  46.350  -2.8310  0.00  0.00     0.000 HD
ATOM     61   O  NAG B   4     -19.130  45.508  -2.9250  0.00  0.00     0.000 O
ATOM     63  HD  NAG B   4     -19.307  46.350  -2.8310  0.00  0.00     0.000 HD
ENDBRANCH 47 50
ENDBRANCH 34 47
ENDBRANCH 33 37
ENDBRANCH 17 33
ENDBRANCH 16 19
ENDBRANCH 1 16
TORSDOF 10
ENDMDL
MODEL 59
REMARK VINA RESULT:      -7.8     13.454     16.397
ROOT
ATOM      1  C1  GCU B   1       3.556  20.254   2.3660  0.00  0.00     0.000 C
ATOM      2  C2  GCU B   1       4.504  19.356   1.5860  0.00  0.00     0.000 C
ATOM      3  C3  GCU B   1       5.418  18.596   2.5350  0.00  0.00     0.000 C
ATOM      4  C4  GCU B   1       6.087  19.560   3.5030  0.00  0.00     0.000 C
ATOM      5  C5  GCU B   1       5.055  20.457   4.1880  0.00  0.00     0.000 C
ATOM      6  O5  GCU B   1       4.307  21.161   3.1880  0.00  0.00     0.000 O
ATOM      7   O  GCU B   1       3.712  18.454   0.8180  0.00  0.00     0.000 O
ATOM      9  HD  GCU B   1       3.780  18.312  -0.0330  0.00  0.00     0.000 HD
ATOM      9   O  GCU B   1       6.413  17.874   1.8050  0.00  0.00     0.000 O
ATOM     11  HD  GCU B   1       6.481  17.732   0.9540  0.00  0.00     0.000 HD
ATOM     11   O  GCU B   1       6.800  18.806   4.4840  0.00  0.00     0.000 O
ATOM     13  HD  GCU B   1       6.868  18.665   3.6330  0.00  0.00     0.000 HD
ENDROOT
BRANCH 5 13
ATOM     13   C  GCU B   1       5.745  21.391   5.1520  0.00  0.00     0.000 C
ATOM     14   O  GCU B   1       6.389  20.937   6.1200  0.00  0.00     0.000 OA
ATOM     15   O  GCU B   1       5.667  22.614   4.9220  0.00  0.00     0.000 OA
ENDBRANCH 5 13
BRANCH 1 16
ATOM     16  O3  NAG B   2       2.964  21.374   1.9430  0.00  0.00     0.000 O
BRANCH 16 19
ATOM     17  C1  NAG B   2      -0.610  22.566   2.1120  0.00  0.00     0.000 C
ATOM     18  C2  NAG B   2       0.545  21.638   1.7610  0.00  0.00     0.000 C
ATOM     19  C3  NAG B   2       1.837  22.131   2.4100  0.00  0.00     0.000 C
ATOM     20  C4  NAG B   2       2.077  23.601   2.0670  0.00  0.00     0.000 C
ATOM     21  C5  NAG B   2       0.863  24.428   2.4650  0.00  0.00     0.000 C
ATOM     22  O5  NAG B   2      -0.291  23.924   1.7700  0.00  0.00     0.000 O
ATOM     23   O  NAG B   2       3.253  24.039   2.7580  0.00  0.00     0.000 O
ATOM     25  HD  NAG B   2       3.299  23.984   1.8950  0.00  0.00     0.000 HD
ATOM     25   C  NAG B   2       1.039  25.916   2.1650  0.00  0.00     0.000 C
ATOM     26   O  NAG B   2       0.953  26.187   0.7580  0.00  0.00     0.000 O
ATOM     28  HD  NAG B   2       1.000  26.131  -0.1050  0.00  0.00     0.000 HD
BRANCH 18 30
ATOM     28   N  NAG B   2      -0.262  20.448   1.9580  0.00  0.00     0.000 N
ATOM     30  HD  NAG B   2       0.365  20.176   1.4260  0.00  0.00     0.000 HD
ATOM     30   C  NAG B   2      -0.067  19.298   1.3020  0.00  0.00     0.000 C
ATOM     31   C  NAG B   2      -1.016  18.167   1.5830  0.00  0.00     0.000 C
ATOM     32   O  NAG B   2       0.838  19.160   0.5040  0.00  0.00     0.000 OA
ENDBRANCH 18 30
BRANCH 17 33
ATOM     33  O4  GCU B   3      -1.787  22.069   1.4440  0.00  0.00     0.000 O
BRANCH 33 37
ATOM     34  C1  GCU B   3      -5.742  23.366   1.5520  0.00  0.00     0.000 C
ATOM     35  C2  GCU B   3      -4.767  24.135   0.6600  0.00  0.00     0.000 C
ATOM     36  C3  GCU B   3      -3.532  23.294   0.4160  0.00  0.00     0.000 C
ATOM     37  C4  GCU B   3      -2.928  22.872   1.7480  0.00  0.00     0.000 C
ATOM     38  C5  GCU B   3      -3.972  22.110   2.5670  0.00  0.00     0.000 C
ATOM     39  O5  GCU B   3      -5.105  22.962   2.7680  0.00  0.00     0.000 O
ATOM     40   O  GCU B   3      -5.412  24.437  -0.5790  0.00  0.00     0.000 O
ATOM     42  HD  GCU B   3      -5.303  24.390  -1.4360  0.00  0.00     0.000 HD
ATOM     42   O  GCU B   3      -2.559  24.016  -0.3610  0.00  0.00     0.000 O
ATOM     44  HD  GCU B   3      -2.451  23.969  -1.2190  0.00  0.00     0.000 HD
BRANCH 38 44
ATOM     44   C  GCU B   3      -3.452  21.681   3.9160  0.00  0.00     0.000 C
ATOM     45   O  GCU B   3      -3.663  22.413   4.8950  0.00  0.00     0.000 OA
ATOM     46   O  GCU B   3      -2.829  20.607   4.0250  0.00  0.00     0.000 OA
ENDBRANCH 38 44
BRANCH 34 47
ATOM     47  O3  NAG B   4      -6.716  24.183   1.9250  0.00  0.00     0.000 O
BRANCH 47 50
ATOM     48  C1  NAG B   4      -8.656  26.243   4.3230  0.00  0.00     0.000 C
ATOM     49  C2  NAG B   4      -8.101  24.981   3.6720  0.00  0.00     0.000 C
ATOM     50  C3  NAG B   4      -6.881  25.285   2.8170  0.00  0.00     0.000 C
ATOM     51  C4  NAG B   4      -7.001  26.581   2.0080  0.00  0.00     0.000 C
ATOM     52  C5  NAG B   4      -7.204  27.782   2.9180  0.00  0.00     0.000 C
ATOM     53  O5  NAG B   4      -8.124  27.547   4.0070  0.00  0.00     0.000 O
BRANCH 49 56
ATOM     54   N  NAG B   4      -7.402  24.465   4.8620  0.00  0.00     0.000 N
ATOM     56  HD  NAG B   4      -6.762  24.865   5.2850  0.00  0.00     0.000 HD
ATOM     56   C  NAG B   4      -6.777  22.936   6.6400  0.00  0.00     0.000 C
ATOM     57   O  NAG B   4      -8.161  22.322   4.8490  0.00  0.00     0.000 OA
ATOM     58   C  NAG B   4      -7.504  23.217   5.3610  0.00  0.00     0.000 C
ENDBRANCH 49 56
ATOM     59   O  NAG B   4      -7.528  30.225   2.7850  0.00  0.00     0.000 O
ATOM     61  HD  NAG B   4      -7.875  29.433   2.8270  0.00  0.00     0.000 HD
ATOM     61   O  NAG B   4      -7.528  30.225   2.7850  0.00  0.00     0.000 O
ATOM     63  HD  NAG B   4      -7.875  29.433   2.8270  0.00  0.00     0.000 HD
ENDBRANCH 47 50
ENDBRANCH 34 47
ENDBRANCH 33 37
ENDBRANCH 17 33
ENDBRANCH 16 19
ENDBRANCH 1 16
TORSDOF 10
ENDMDL
MODEL 60
REMARK VINA RESULT:      -7.8      8.030     13.182
ROOT
ATOM      1  C1  GCU B   1       7.338  21.880   1.8700  0.00  0.00     0.000 C
ATOM      2  C2  GCU B   1       8.355  20.756   1.9970  0.00  0.00     0.000 C
ATOM      3  C3  GCU B   1       7.713  19.527   2.6210  0.00  0.00     0.000 C
ATOM      4  C4  GCU B   1       7.000  19.904   3.9100  0.00  0.00     0.000 C
ATOM      5  C5  GCU B   1       6.048  21.081   3.6880  0.00  0.00     0.000 C
ATOM      6  O5  GCU B   1       6.788  22.190   3.1610  0.00  0.00     0.000 O
ATOM      7   O  GCU B   1       8.841  20.463   0.6910  0.00  0.00     0.000 O
ATOM      9  HD  GCU B   1       9.672  20.427   0.4510  0.00  0.00     0.000 HD
ATOM      9   O  GCU B   1       8.698  18.525   2.8880  0.00  0.00     0.000 O
ATOM     11  HD  GCU B   1       9.530  18.489   2.6490  0.00  0.00     0.000 HD
ATOM     11   O  GCU B   1       6.267  18.772   4.3810  0.00  0.00     0.000 O
ATOM     13  HD  GCU B   1       7.099  18.735   4.1410  0.00  0.00     0.000 HD
ENDROOT
BRANCH 5 13
ATOM     13   C  GCU B   1       5.345  21.423   4.9800  0.00  0.00     0.000 C
ATOM     14   O  GCU B   1       4.205  21.932   4.9620  0.00  0.00     0.000 OA
ATOM     15   O  GCU B   1       5.934  21.152   6.0440  0.00  0.00     0.000 OA
ENDBRANCH 5 13
BRANCH 1 16
ATOM     16  O3  NAG B   2       7.577  23.193   1.8310  0.00  0.00     0.000 O
BRANCH 16 19
ATOM     17  C1  NAG B   2       6.330  25.742  -0.6540  0.00  0.00     0.000 C
ATOM     18  C2  NAG B   2       6.963  24.442  -0.1730  0.00  0.00     0.000 C
ATOM     19  C3  NAG B   2       6.830  24.318   1.3440  0.00  0.00     0.000 C
ATOM     20  C4  NAG B   2       7.363  25.576   2.0290  0.00  0.00     0.000 C
ATOM     21  C5  NAG B   2       6.658  26.805   1.4730  0.00  0.00     0.000 C
ATOM     22  O5  NAG B   2       6.879  26.865   0.0530  0.00  0.00     0.000 O
ATOM     23   O  NAG B   2       7.147  25.447   3.4390  0.00  0.00     0.000 O
ATOM     25  HD  NAG B   2       7.967  25.429   3.1620  0.00  0.00     0.000 HD
ATOM     25   C  NAG B   2       7.131  28.102   2.1260  0.00  0.00     0.000 C
ATOM     26   O  NAG B   2       8.447  28.469   1.6850  0.00  0.00     0.000 O
ATOM     28  HD  NAG B   2       9.267  28.452   1.4080  0.00  0.00     0.000 HD
BRANCH 18 30
ATOM     28   N  NAG B   2       6.340  23.582  -1.1610  0.00  0.00     0.000 N
ATOM     30  HD  NAG B   2       7.126  23.231  -1.0610  0.00  0.00     0.000 HD
ATOM     30   C  NAG B   2       6.980  22.596  -1.8020  0.00  0.00     0.000 C
ATOM     31   C  NAG B   2       6.210  21.820  -2.8330  0.00  0.00     0.000 C
ATOM     32   O  NAG B   2       8.143  22.331  -1.5710  0.00  0.00     0.000 OA
ENDBRANCH 18 30
BRANCH 17 33
ATOM     33  O4  GCU B   3       6.520  25.816  -2.0820  0.00  0.00     0.000 O
BRANCH 33 37
ATOM     34  C1  GCU B   3       4.572  28.113  -4.9560  0.00  0.00     0.000 C
ATOM     35  C2  GCU B   3       5.788  28.727  -4.2620  0.00  0.00     0.000 C
ATOM     36  C3  GCU B   3       6.597  27.634  -3.5950  0.00  0.00     0.000 C
ATOM     37  C4  GCU B   3       5.703  26.838  -2.6560  0.00  0.00     0.000 C
ATOM     38  C5  GCU B   3       4.519  26.262  -3.4360  0.00  0.00     0.000 C
ATOM     39  O5  GCU B   3       3.796  27.345  -4.0310  0.00  0.00     0.000 O
ATOM     40   O  GCU B   3       6.584  29.406  -5.2360  0.00  0.00     0.000 O
ATOM     42  HD  GCU B   3       7.397  29.480  -5.5250  0.00  0.00     0.000 HD
ATOM     42   O  GCU B   3       7.712  28.184  -2.8710  0.00  0.00     0.000 O
ATOM     44  HD  GCU B   3       8.525  28.258  -3.1590  0.00  0.00     0.000 HD
BRANCH 38 44
ATOM     44   C  GCU B   3       3.572  25.479  -2.5620  0.00  0.00     0.000 C
ATOM     45   O  GCU B   3       3.619  24.240  -2.5980  0.00  0.00     0.000 OA
ATOM     46   O  GCU B   3       2.769  26.082  -1.8250  0.00  0.00     0.000 OA
ENDBRANCH 38 44
BRANCH 34 47
ATOM     47  O3  NAG B   4       3.769  29.090  -5.3540  0.00  0.00     0.000 O
BRANCH 47 50
ATOM     48  C1  NAG B   4       2.114  28.296  -8.5770  0.00  0.00     0.000 C
ATOM     49  C2  NAG B   4       2.510  28.130  -7.1140  0.00  0.00     0.000 C
ATOM     50  C3  NAG B   4       3.029  29.432  -6.5250  0.00  0.00     0.000 C
ATOM     51  C4  NAG B   4       3.925  30.228  -7.4800  0.00  0.00     0.000 C
ATOM     52  C5  NAG B   4       3.183  30.593  -8.7560  0.00  0.00     0.000 C
ATOM     53  O5  NAG B   4       2.364  29.528  -9.2870  0.00  0.00     0.000 O
BRANCH 49 56
ATOM     54   N  NAG B   4       1.171  28.200  -6.5030  0.00  0.00     0.000 N
ATOM     56  HD  NAG B   4       0.684  28.912  -6.4330  0.00  0.00     0.000 HD
ATOM     56   C  NAG B   4      -0.833  27.476  -5.3400  0.00  0.00     0.000 C
ATOM     57   O  NAG B   4       1.102  26.161  -5.5000  0.00  0.00     0.000 OA
ATOM     58   C  NAG B   4       0.575  27.226  -5.7860  0.00  0.00     0.000 C
ENDBRANCH 49 56
ATOM     59   O  NAG B   4       3.561  31.764 -10.8960  0.00  0.00     0.000 O
ATOM     61  HD  NAG B   4       3.559  31.024 -10.4470  0.00  0.00     0.000 HD
ATOM     61   O  NAG B   4       3.561  31.764 -10.8960  0.00  0.00     0.000 O
ATOM     63  HD  NAG B   4       3.559  31.024 -10.4470  0.00  0.00     0.000 HD
ENDBRANCH 47 50
ENDBRANCH 34 47
ENDBRANCH 33 37
ENDBRANCH 17 33
ENDBRANCH 16 19
ENDBRANCH 1 16
TORSDOF 10
ENDMDL
MODEL 61
REMARK VINA RESULT:      -7.8     26.936     30.148
ROOT
ATOM      1  C1  GCU B   1      -3.199  54.827   3.9990  0.00  0.00     0.000 C
ATOM      2  C2  GCU B   1      -3.645  55.495   2.7080  0.00  0.00     0.000 C
ATOM      3  C3  GCU B   1      -5.136  55.289   2.4890  0.00  0.00     0.000 C
ATOM      4  C4  GCU B   1      -5.485  53.813   2.6100  0.00  0.00     0.000 C
ATOM      5  C5  GCU B   1      -4.940  53.224   3.9120  0.00  0.00     0.000 C
ATOM      6  O5  GCU B   1      -3.522  53.428   3.9630  0.00  0.00     0.000 O
ATOM      7   O  GCU B   1      -3.337  56.882   2.8090  0.00  0.00     0.000 O
ATOM      9  HD  GCU B   1      -2.890  57.349   2.2340  0.00  0.00     0.000 HD
ATOM      9   O  GCU B   1      -5.529  55.775   1.2030  0.00  0.00     0.000 O
ATOM     11  HD  GCU B   1      -5.082  56.243   0.6280  0.00  0.00     0.000 HD
ATOM     11   O  GCU B   1      -6.906  53.671   2.5720  0.00  0.00     0.000 O
ATOM     13  HD  GCU B   1      -6.458  54.138   1.9970  0.00  0.00     0.000 HD
ENDROOT
BRANCH 5 13
ATOM     13   C  GCU B   1      -5.314  51.764   4.0110  0.00  0.00     0.000 C
ATOM     14   O  GCU B   1      -5.233  51.165   5.1030  0.00  0.00     0.000 OA
ATOM     15   O  GCU B   1      -5.726  51.206   2.9760  0.00  0.00     0.000 OA
ENDBRANCH 5 13
BRANCH 1 16
ATOM     16  O3  NAG B   2      -1.980  54.378   4.3030  0.00  0.00     0.000 O
BRANCH 16 19
ATOM     17  C1  NAG B   2      -0.738  53.052   7.6090  0.00  0.00     0.000 C
ATOM     18  C2  NAG B   2      -1.436  54.012   6.6540  0.00  0.00     0.000 C
ATOM     19  C3  NAG B   2      -1.490  53.414   5.2490  0.00  0.00     0.000 C
ATOM     20  C4  NAG B   2      -0.096  52.976   4.8030  0.00  0.00     0.000 C
ATOM     21  C5  NAG B   2       0.497  52.020   5.8280  0.00  0.00     0.000 C
ATOM     22  O5  NAG B   2       0.555  52.683   7.1030  0.00  0.00     0.000 O
ATOM     23   O  NAG B   2      -0.208  52.353   3.5180  0.00  0.00     0.000 O
ATOM     25  HD  NAG B   2       0.204  53.114   3.5530  0.00  0.00     0.000 HD
ATOM     25   C  NAG B   2       1.889  51.526   5.4390  0.00  0.00     0.000 C
ATOM     26   O  NAG B   2       2.880  52.553   5.5970  0.00  0.00     0.000 O
ATOM     28  HD  NAG B   2       3.292  53.314   5.6330  0.00  0.00     0.000 HD
BRANCH 18 30
ATOM     28   N  NAG B   2      -1.906  55.311   7.0940  0.00  0.00     0.000 N
ATOM     30  HD  NAG B   2      -2.519  54.771   7.3830  0.00  0.00     0.000 HD
ATOM     30   C  NAG B   2      -3.095  55.517   7.6750  0.00  0.00     0.000 C
ATOM     31   C  NAG B   2      -3.459  56.930   8.0350  0.00  0.00     0.000 C
ATOM     32   O  NAG B   2      -3.861  54.604   7.9070  0.00  0.00     0.000 OA
ENDBRANCH 18 30
BRANCH 17 33
ATOM     33  O4  GCU B   3      -0.687  53.686   8.9030  0.00  0.00     0.000 O
BRANCH 33 37
ATOM     34  C1  GCU B   3       0.318  52.065  12.6040  0.00  0.00     0.000 C
ATOM     35  C2  GCU B   3       1.391  52.865  11.8640  0.00  0.00     0.000 C
ATOM     36  C3  GCU B   3       0.742  53.711  10.7890  0.00  0.00     0.000 C
ATOM     37  C4  GCU B   3      -0.090  52.824   9.8740  0.00  0.00     0.000 C
ATOM     38  C5  GCU B   3      -1.134  52.069  10.6990  0.00  0.00     0.000 C
ATOM     39  O5  GCU B   3      -0.455  51.287  11.6860  0.00  0.00     0.000 O
ATOM     40   O  GCU B   3       2.077  53.697  12.8020  0.00  0.00     0.000 O
ATOM     42  HD  GCU B   3       2.337  54.513  12.9310  0.00  0.00     0.000 HD
ATOM     42   O  GCU B   3       1.731  54.423  10.0240  0.00  0.00     0.000 O
ATOM     44  HD  GCU B   3       1.990  55.239  10.1530  0.00  0.00     0.000 HD
BRANCH 38 44
ATOM     44   C  GCU B   3      -1.983  51.148   9.8590  0.00  0.00     0.000 C
ATOM     45   O  GCU B   3      -3.203  51.362   9.7920  0.00  0.00     0.000 OA
ATOM     46   O  GCU B   3      -1.451  50.199   9.2520  0.00  0.00     0.000 OA
ENDBRANCH 38 44
BRANCH 34 47
ATOM     47  O3  NAG B   4       0.912  51.182  13.3940  0.00  0.00     0.000 O
BRANCH 47 50
ATOM     48  C1  NAG B   4       1.055  49.609  16.7500  0.00  0.00     0.000 C
ATOM     49  C2  NAG B   4       0.985  50.728  15.7160  0.00  0.00     0.000 C
ATOM     50  C3  NAG B   4       0.524  50.210  14.3640  0.00  0.00     0.000 C
ATOM     51  C4  NAG B   4       1.122  48.849  13.9880  0.00  0.00     0.000 C
ATOM     52  C5  NAG B   4       0.755  47.785  15.0090  0.00  0.00     0.000 C
ATOM     53  O5  NAG B   4       0.836  48.232  16.3800  0.00  0.00     0.000 O
BRANCH 49 56
ATOM     54   N  NAG B   4      -0.260  51.491  15.9150  0.00  0.00     0.000 N
ATOM     56  HD  NAG B   4      -0.907  51.562  15.3440  0.00  0.00     0.000 HD
ATOM     56   C  NAG B   4      -1.882  52.950  16.9810  0.00  0.00     0.000 C
ATOM     57   O  NAG B   4       0.304  52.663  17.7800  0.00  0.00     0.000 OA
ATOM     58   C  NAG B   4      -0.508  52.356  16.9200  0.00  0.00     0.000 C
ENDBRANCH 49 56
ATOM     59   O  NAG B   4       1.127  45.387  15.4610  0.00  0.00     0.000 O
ATOM     61  HD  NAG B   4       1.369  46.210  15.5810  0.00  0.00     0.000 HD
ATOM     61   O  NAG B   4       1.127  45.387  15.4610  0.00  0.00     0.000 O
ATOM     63  HD  NAG B   4       1.369  46.210  15.5810  0.00  0.00     0.000 HD
ENDBRANCH 47 50
ENDBRANCH 34 47
ENDBRANCH 33 37
ENDBRANCH 17 33
ENDBRANCH 16 19
ENDBRANCH 1 16
TORSDOF 10
ENDMDL
MODEL 62
REMARK VINA RESULT:      -7.8      4.356      6.907
ROOT
ATOM      1  C1  GCU B   1       7.946  29.809  -5.9150  0.00  0.00     0.000 C
ATOM      2  C2  GCU B   1       8.614  30.543  -7.0670  0.00  0.00     0.000 C
ATOM      3  C3  GCU B   1      10.078  30.145  -7.1750  0.00  0.00     0.000 C
ATOM      4  C4  GCU B   1      10.764  30.295  -5.8260  0.00  0.00     0.000 C
ATOM      5  C5  GCU B   1       9.982  29.572  -4.7280  0.00  0.00     0.000 C
ATOM      6  O5  GCU B   1       8.644  30.085  -4.6890  0.00  0.00     0.000 O
ATOM      7   O  GCU B   1       7.910  30.208  -8.2590  0.00  0.00     0.000 O
ATOM      9  HD  GCU B   1       7.584  30.768  -8.8340  0.00  0.00     0.000 HD
ATOM      9   O  GCU B   1      10.748  30.947  -8.1510  0.00  0.00     0.000 O
ATOM     11  HD  GCU B   1      10.422  31.506  -8.7260  0.00  0.00     0.000 HD
ATOM     11   O  GCU B   1      12.083  29.754  -5.9170  0.00  0.00     0.000 O
ATOM     13  HD  GCU B   1      11.757  30.313  -6.4920  0.00  0.00     0.000 HD
ENDROOT
BRANCH 5 13
ATOM     13   C  GCU B   1      10.693  29.727  -3.4050  0.00  0.00     0.000 C
ATOM     14   O  GCU B   1      10.697  28.792  -2.5770  0.00  0.00     0.000 OA
ATOM     15   O  GCU B   1      11.290  30.801  -3.1960  0.00  0.00     0.000 OA
ENDBRANCH 5 13
BRANCH 1 16
ATOM     16  O3  NAG B   2       6.880  30.196  -5.2120  0.00  0.00     0.000 O
BRANCH 16 19
ATOM     17  C1  NAG B   2       3.262  29.318  -4.6070  0.00  0.00     0.000 C
ATOM     18  C2  NAG B   2       4.459  29.918  -5.3330  0.00  0.00     0.000 C
ATOM     19  C3  NAG B   2       5.759  29.495  -4.6520  0.00  0.00     0.000 C
ATOM     20  C4  NAG B   2       5.702  29.807  -3.1570  0.00  0.00     0.000 C
ATOM     21  C5  NAG B   2       4.473  29.155  -2.5400  0.00  0.00     0.000 C
ATOM     22  O5  NAG B   2       3.299  29.648  -3.2090  0.00  0.00     0.000 O
ATOM     23   O  NAG B   2       6.905  29.325  -2.5490  0.00  0.00     0.000 O
ATOM     25  HD  NAG B   2       6.796  30.183  -2.5810  0.00  0.00     0.000 HD
ATOM     25   C  NAG B   2       4.358  29.412  -1.0390  0.00  0.00     0.000 C
ATOM     26   O  NAG B   2       3.968  30.765  -0.7610  0.00  0.00     0.000 O
ATOM     28  HD  NAG B   2       3.859  31.624  -0.7930  0.00  0.00     0.000 HD
BRANCH 18 30
ATOM     28   N  NAG B   2       3.671  29.941  -6.5510  0.00  0.00     0.000 N
ATOM     30  HD  NAG B   2       4.462  30.165  -6.8230  0.00  0.00     0.000 HD
ATOM     30   C  NAG B   2       4.136  30.366  -7.7330  0.00  0.00     0.000 C
ATOM     31   C  NAG B   2       3.183  30.372  -8.8950  0.00  0.00     0.000 C
ATOM     32   O  NAG B   2       5.284  30.739  -7.8730  0.00  0.00     0.000 OA
ENDBRANCH 18 30
BRANCH 17 33
ATOM     33  O4  GCU B   3       2.070  29.781  -5.2730  0.00  0.00     0.000 O
BRANCH 33 37
ATOM     34  C1  GCU B   3      -1.843  28.418  -4.8660  0.00  0.00     0.000 C
ATOM     35  C2  GCU B   3      -1.480  29.745  -4.1990  0.00  0.00     0.000 C
ATOM     36  C3  GCU B   3      -0.194  30.277  -4.7940  0.00  0.00     0.000 C
ATOM     37  C4  GCU B   3       0.898  29.223  -4.6760  0.00  0.00     0.000 C
ATOM     38  C5  GCU B   3       0.449  27.937  -5.3720  0.00  0.00     0.000 C
ATOM     39  O5  GCU B   3      -0.763  27.486  -4.7580  0.00  0.00     0.000 O
ATOM     40   O  GCU B   3      -2.544  30.676  -4.4100  0.00  0.00     0.000 O
ATOM     42  HD  GCU B   3      -2.704  31.484  -4.6780  0.00  0.00     0.000 HD
ATOM     42   O  GCU B   3       0.217  31.491  -4.1380  0.00  0.00     0.000 O
ATOM     44  HD  GCU B   3       0.057  32.298  -4.4070  0.00  0.00     0.000 HD
BRANCH 38 44
ATOM     44   C  GCU B   3       1.473  26.835  -5.2750  0.00  0.00     0.000 C
ATOM     45   O  GCU B   3       1.639  26.273  -4.1810  0.00  0.00     0.000 OA
ATOM     46   O  GCU B   3       2.127  26.508  -6.2840  0.00  0.00     0.000 OA
ENDBRANCH 38 44
BRANCH 34 47
ATOM     47  O3  NAG B   4      -2.847  27.865  -4.2000  0.00  0.00     0.000 O
BRANCH 47 50
ATOM     48  C1  NAG B   4      -3.292  24.381  -3.0100  0.00  0.00     0.000 C
ATOM     49  C2  NAG B   4      -3.023  25.880  -2.9240  0.00  0.00     0.000 C
ATOM     50  C3  NAG B   4      -3.518  26.607  -4.1630  0.00  0.00     0.000 C
ATOM     51  C4  NAG B   4      -3.254  25.850  -5.4700  0.00  0.00     0.000 C
ATOM     52  C5  NAG B   4      -3.932  24.490  -5.4650  0.00  0.00     0.000 C
ATOM     53  O5  NAG B   4      -3.823  23.782  -4.2110  0.00  0.00     0.000 O
BRANCH 49 56
ATOM     54   N  NAG B   4      -4.111  26.406  -2.0810  0.00  0.00     0.000 N
ATOM     56  HD  NAG B   4      -4.844  26.766  -2.3680  0.00  0.00     0.000 HD
ATOM     56   C  NAG B   4      -5.320  27.049  -0.0770  0.00  0.00     0.000 C
ATOM     57   O  NAG B   4      -3.067  26.397  -0.0620  0.00  0.00     0.000 OA
ATOM     58   C  NAG B   4      -4.060  26.593  -0.7470  0.00  0.00     0.000 C
ENDBRANCH 49 56
ATOM     59   O  NAG B   4      -4.190  22.499  -6.9020  0.00  0.00     0.000 O
ATOM     61  HD  NAG B   4      -3.760  22.906  -6.2700  0.00  0.00     0.000 HD
ATOM     61   O  NAG B   4      -4.190  22.499  -6.9020  0.00  0.00     0.000 O
ATOM     63  HD  NAG B   4      -3.760  22.906  -6.2700  0.00  0.00     0.000 HD
ENDBRANCH 47 50
ENDBRANCH 34 47
ENDBRANCH 33 37
ENDBRANCH 17 33
ENDBRANCH 16 19
ENDBRANCH 1 16
TORSDOF 10
ENDMDL
MODEL 63
REMARK VINA RESULT:      -7.8     23.773     27.140
ROOT
ATOM      1  C1  GCU B   1      -4.801  53.713  -8.6980  0.00  0.00     0.000 C
ATOM      2  C2  GCU B   1      -4.445  53.326 -10.1250  0.00  0.00     0.000 C
ATOM      3  C3  GCU B   1      -5.572  53.701 -11.0750  0.00  0.00     0.000 C
ATOM      4  C4  GCU B   1      -6.895  53.149 -10.5650  0.00  0.00     0.000 C
ATOM      5  C5  GCU B   1      -7.128  53.543  -9.1050  0.00  0.00     0.000 C
ATOM      6  O5  GCU B   1      -6.030  53.076  -8.3110  0.00  0.00     0.000 O
ATOM      7   O  GCU B   1      -3.245  54.010 -10.4720  0.00  0.00     0.000 O
ATOM      9  HD  GCU B   1      -2.527  53.649 -10.7950  0.00  0.00     0.000 HD
ATOM      9   O  GCU B   1      -5.313  53.198 -12.3880  0.00  0.00     0.000 O
ATOM     11  HD  GCU B   1      -4.595  52.838 -12.7110  0.00  0.00     0.000 HD
ATOM     11   O  GCU B   1      -7.952  53.659 -11.3780  0.00  0.00     0.000 O
ATOM     13  HD  GCU B   1      -7.234  53.298 -11.7010  0.00  0.00     0.000 HD
ENDROOT
BRANCH 5 13
ATOM     13   C  GCU B   1      -8.453  52.994  -8.6310  0.00  0.00     0.000 C
ATOM     14   O  GCU B   1      -8.492  52.130  -7.7310  0.00  0.00     0.000 OA
ATOM     15   O  GCU B   1      -9.486  53.458  -9.1520  0.00  0.00     0.000 OA
ENDBRANCH 5 13
BRANCH 1 16
ATOM     16  O3  NAG B   2      -4.345  53.166  -7.5690  0.00  0.00     0.000 O
BRANCH 16 19
ATOM     17  C1  NAG B   2      -4.322  53.843  -3.8580  0.00  0.00     0.000 C
ATOM     18  C2  NAG B   2      -3.926  54.014  -5.3190  0.00  0.00     0.000 C
ATOM     19  C3  NAG B   2      -4.821  53.157  -6.2140  0.00  0.00     0.000 C
ATOM     20  C4  NAG B   2      -4.833  51.709  -5.7250  0.00  0.00     0.000 C
ATOM     21  C5  NAG B   2      -5.246  51.664  -4.2600  0.00  0.00     0.000 C
ATOM     22  O5  NAG B   2      -4.322  52.454  -3.4910  0.00  0.00     0.000 O
ATOM     23   O  NAG B   2      -5.742  50.964  -6.5430  0.00  0.00     0.000 O
ATOM     25  HD  NAG B   2      -4.899  50.777  -6.6160  0.00  0.00     0.000 HD
ATOM     25   C  NAG B   2      -5.296  50.242  -3.7050  0.00  0.00     0.000 C
ATOM     26   O  NAG B   2      -3.980  49.702  -3.5090  0.00  0.00     0.000 O
ATOM     28  HD  NAG B   2      -3.137  49.514  -3.5820  0.00  0.00     0.000 HD
BRANCH 18 30
ATOM     28   N  NAG B   2      -3.655  55.420  -5.0920  0.00  0.00     0.000 N
ATOM     30  HD  NAG B   2      -3.304  55.275  -5.8700  0.00  0.00     0.000 HD
ATOM     30   C  NAG B   2      -2.904  56.176  -5.9030  0.00  0.00     0.000 C
ATOM     31   C  NAG B   2      -2.677  57.608  -5.5080  0.00  0.00     0.000 C
ATOM     32   O  NAG B   2      -2.414  55.731  -6.9220  0.00  0.00     0.000 OA
ENDBRANCH 18 30
BRANCH 17 33
ATOM     33  O4  GCU B   3      -3.423  54.645  -3.0670  0.00  0.00     0.000 O
BRANCH 33 37
ATOM     34  C1  GCU B   3      -3.281  55.357   1.0330  0.00  0.00     0.000 C
ATOM     35  C2  GCU B   3      -2.818  53.988   0.5340  0.00  0.00     0.000 C
ATOM     36  C3  GCU B   3      -2.537  54.058  -0.9520  0.00  0.00     0.000 C
ATOM     37  C4  GCU B   3      -3.765  54.584  -1.6810  0.00  0.00     0.000 C
ATOM     38  C5  GCU B   3      -4.151  55.953  -1.1180  0.00  0.00     0.000 C
ATOM     39  O5  GCU B   3      -4.410  55.814   0.2820  0.00  0.00     0.000 O
ATOM     40   O  GCU B   3      -1.637  53.611   1.2440  0.00  0.00     0.000 O
ATOM     42  HD  GCU B   3      -0.831  53.318   1.1250  0.00  0.00     0.000 HD
ATOM     42   O  GCU B   3      -2.168  52.768  -1.4700  0.00  0.00     0.000 O
ATOM     44  HD  GCU B   3      -1.362  52.474  -1.5900  0.00  0.00     0.000 HD
BRANCH 38 44
ATOM     44   C  GCU B   3      -5.379  56.528  -1.7780  0.00  0.00     0.000 C
ATOM     45   O  GCU B   3      -5.243  57.170  -2.8300  0.00  0.00     0.000 OA
ATOM     46   O  GCU B   3      -6.499  56.348  -1.2610  0.00  0.00     0.000 OA
ENDBRANCH 38 44
BRANCH 34 47
ATOM     47  O3  NAG B   4      -3.719  55.233   2.2780  0.00  0.00     0.000 O
BRANCH 47 50
ATOM     48  C1  NAG B   4      -6.091  54.632   5.0660  0.00  0.00     0.000 C
ATOM     49  C2  NAG B   4      -5.378  55.401   3.9580  0.00  0.00     0.000 C
ATOM     50  C3  NAG B   4      -4.694  54.462   2.9780  0.00  0.00     0.000 C
ATOM     51  C4  NAG B   4      -4.012  53.262   3.6460  0.00  0.00     0.000 C
ATOM     52  C5  NAG B   4      -5.011  52.424   4.4260  0.00  0.00     0.000 C
ATOM     53  O5  NAG B   4      -5.966  53.199   5.1840  0.00  0.00     0.000 O
BRANCH 49 56
ATOM     54   N  NAG B   4      -6.624  55.721   3.2390  0.00  0.00     0.000 N
ATOM     56  HD  NAG B   4      -7.268  55.166   3.0720  0.00  0.00     0.000 HD
ATOM     56   C  NAG B   4      -8.251  57.011   1.9820  0.00  0.00     0.000 C
ATOM     57   O  NAG B   4      -6.069  57.760   2.4030  0.00  0.00     0.000 OA
ATOM     58   C  NAG B   4      -6.877  56.856   2.5580  0.00  0.00     0.000 C
ENDBRANCH 49 56
ATOM     59   O  NAG B   4      -5.089  50.402   5.8400  0.00  0.00     0.000 O
ATOM     61  HD  NAG B   4      -5.015  51.263   5.7810  0.00  0.00     0.000 HD
ATOM     61   O  NAG B   4      -5.089  50.402   5.8400  0.00  0.00     0.000 O
ATOM     63  HD  NAG B   4      -5.015  51.263   5.7810  0.00  0.00     0.000 HD
ENDBRANCH 47 50
ENDBRANCH 34 47
ENDBRANCH 33 37
ENDBRANCH 17 33
ENDBRANCH 16 19
ENDBRANCH 1 16
TORSDOF 10
ENDMDL
MODEL 64
REMARK VINA RESULT:      -7.8      8.257     12.025
ROOT
ATOM      1  C1  GCU B   1       3.569  27.093  -2.4790  0.00  0.00     0.000 C
ATOM      2  C2  GCU B   1       4.804  26.647  -3.2470  0.00  0.00     0.000 C
ATOM      3  C3  GCU B   1       6.067  27.030  -2.4920  0.00  0.00     0.000 C
ATOM      4  C4  GCU B   1       6.031  28.505  -2.1210  0.00  0.00     0.000 C
ATOM      5  C5  GCU B   1       4.725  28.862  -1.4090  0.00  0.00     0.000 C
ATOM      6  O5  GCU B   1       3.620  28.511  -2.2520  0.00  0.00     0.000 O
ATOM      7   O  GCU B   1       4.724  25.235  -3.4130  0.00  0.00     0.000 O
ATOM      9  HD  GCU B   1       4.796  24.804  -4.1610  0.00  0.00     0.000 HD
ATOM      9   O  GCU B   1       7.228  26.757  -3.2800  0.00  0.00     0.000 O
ATOM     11  HD  GCU B   1       7.301  26.326  -4.0270  0.00  0.00     0.000 HD
ATOM     11   O  GCU B   1       7.141  28.794  -1.2700  0.00  0.00     0.000 O
ATOM     13  HD  GCU B   1       7.213  28.363  -2.0170  0.00  0.00     0.000 HD
ENDROOT
BRANCH 5 13
ATOM     13   C  GCU B   1       4.724  30.326  -1.0420  0.00  0.00     0.000 C
ATOM     14   O  GCU B   1       5.250  31.168  -1.8000  0.00  0.00     0.000 OA
ATOM     15   O  GCU B   1       4.158  30.651   0.0190  0.00  0.00     0.000 OA
ENDBRANCH 5 13
BRANCH 1 16
ATOM     16  O3  NAG B   2       2.361  27.374  -2.9730  0.00  0.00     0.000 O
BRANCH 16 19
ATOM     17  C1  NAG B   2      -0.938  26.141  -1.6240  0.00  0.00     0.000 C
ATOM     18  C2  NAG B   2       0.520  26.060  -2.0580  0.00  0.00     0.000 C
ATOM     19  C3  NAG B   2       1.051  27.453  -2.3910  0.00  0.00     0.000 C
ATOM     20  C4  NAG B   2       0.128  28.149  -3.3910  0.00  0.00     0.000 C
ATOM     21  C5  NAG B   2      -1.294  28.173  -2.8500  0.00  0.00     0.000 C
ATOM     22  O5  NAG B   2      -1.726  26.822  -2.6140  0.00  0.00     0.000 O
ATOM     23   O  NAG B   2       0.621  29.475  -3.6130  0.00  0.00     0.000 O
ATOM     25  HD  NAG B   2       0.674  28.919  -4.2750  0.00  0.00     0.000 HD
ATOM     25   C  NAG B   2      -2.273  28.871  -3.7930  0.00  0.00     0.000 C
ATOM     26   O  NAG B   2      -2.563  28.066  -4.9470  0.00  0.00     0.000 O
ATOM     28  HD  NAG B   2      -2.510  27.510  -5.6080  0.00  0.00     0.000 HD
BRANCH 18 30
ATOM     28   N  NAG B   2       1.008  25.241  -0.9650  0.00  0.00     0.000 N
ATOM     30  HD  NAG B   2       1.429  24.924  -1.6520  0.00  0.00     0.000 HD
ATOM     30   C  NAG B   2       1.809  24.181  -1.1270  0.00  0.00     0.000 C
ATOM     31   C  NAG B   2       2.194  23.404   0.1010  0.00  0.00     0.000 C
ATOM     32   O  NAG B   2       2.214  23.846  -2.2220  0.00  0.00     0.000 OA
ENDBRANCH 18 30
BRANCH 17 33
ATOM     33  O4  GCU B   3      -1.389  24.797  -1.3590  0.00  0.00     0.000 O
BRANCH 33 37
ATOM     34  C1  GCU B   3      -4.483  23.395   1.0480  0.00  0.00     0.000 C
ATOM     35  C2  GCU B   3      -4.827  23.802  -0.3850  0.00  0.00     0.000 C
ATOM     36  C3  GCU B   3      -3.560  23.867  -1.2120  0.00  0.00     0.000 C
ATOM     37  C4  GCU B   3      -2.561  24.800  -0.5420  0.00  0.00     0.000 C
ATOM     38  C5  GCU B   3      -2.277  24.314   0.8800  0.00  0.00     0.000 C
ATOM     39  O5  GCU B   3      -3.510  24.283   1.6060  0.00  0.00     0.000 O
ATOM     40   O  GCU B   3      -5.728  22.838  -0.9370  0.00  0.00     0.000 O
ATOM     42  HD  GCU B   3      -5.852  22.337  -1.6320  0.00  0.00     0.000 HD
ATOM     42   O  GCU B   3      -3.838  24.318  -2.5500  0.00  0.00     0.000 O
ATOM     44  HD  GCU B   3      -3.963  23.816  -3.2450  0.00  0.00     0.000 HD
BRANCH 38 44
ATOM     44   C  GCU B   3      -1.311  25.206   1.6180  0.00  0.00     0.000 C
ATOM     45   O  GCU B   3      -1.701  26.322   1.9930  0.00  0.00     0.000 OA
ATOM     46   O  GCU B   3      -0.150  24.811   1.8390  0.00  0.00     0.000 OA
ENDBRANCH 38 44
BRANCH 34 47
ATOM     47  O3  NAG B   4      -5.562  23.541   1.8040  0.00  0.00     0.000 O
BRANCH 47 50
ATOM     48  C1  NAG B   4      -7.779  26.237   3.0590  0.00  0.00     0.000 C
ATOM     49  C2  NAG B   4      -6.485  25.567   2.6090  0.00  0.00     0.000 C
ATOM     50  C3  NAG B   4      -6.759  24.317   1.7900  0.00  0.00     0.000 C
ATOM     51  C4  NAG B   4      -7.920  23.470   2.3240  0.00  0.00     0.000 C
ATOM     52  C5  NAG B   4      -9.215  24.265   2.3510  0.00  0.00     0.000 C
ATOM     53  O5  NAG B   4      -9.063  25.623   2.8200  0.00  0.00     0.000 O
BRANCH 49 56
ATOM     54   N  NAG B   4      -5.711  26.615   1.9210  0.00  0.00     0.000 N
ATOM     56  HD  NAG B   4      -5.112  27.123   2.2850  0.00  0.00     0.000 HD
ATOM     56   C  NAG B   4      -4.971  28.087   0.1390  0.00  0.00     0.000 C
ATOM     57   O  NAG B   4      -6.879  26.734  -0.0260  0.00  0.00     0.000 OA
ATOM     58   C  NAG B   4      -5.945  27.086   0.6790  0.00  0.00     0.000 C
ENDBRANCH 49 56
ATOM     59   O  NAG B   4     -11.586  24.001   2.9860  0.00  0.00     0.000 O
ATOM     61  HD  NAG B   4     -10.783  24.243   3.2030  0.00  0.00     0.000 HD
ATOM     61   O  NAG B   4     -11.586  24.001   2.9860  0.00  0.00     0.000 O
ATOM     63  HD  NAG B   4     -10.783  24.243   3.2030  0.00  0.00     0.000 HD
ENDBRANCH 47 50
ENDBRANCH 34 47
ENDBRANCH 33 37
ENDBRANCH 17 33
ENDBRANCH 16 19
ENDBRANCH 1 16
TORSDOF 10
ENDMDL
MODEL 65
REMARK VINA RESULT:      -7.8      4.908     11.399
ROOT
ATOM      1  C1  GCU B   1       0.987  28.838  -5.1990  0.00  0.00     0.000 C
ATOM      2  C2  GCU B   1      -0.194  29.506  -4.5120  0.00  0.00     0.000 C
ATOM      3  C3  GCU B   1      -1.227  28.469  -4.1020  0.00  0.00     0.000 C
ATOM      4  C4  GCU B   1      -1.582  27.585  -5.2880  0.00  0.00     0.000 C
ATOM      5  C5  GCU B   1      -0.324  27.012  -5.9430  0.00  0.00     0.000 C
ATOM      6  O5  GCU B   1       0.532  28.092  -6.3390  0.00  0.00     0.000 O
ATOM      7   O  GCU B   1       0.304  30.200  -3.3720  0.00  0.00     0.000 O
ATOM      9  HD  GCU B   1       0.163  31.032  -3.1780  0.00  0.00     0.000 HD
ATOM      9   O  GCU B   1      -2.407  29.103  -3.6010  0.00  0.00     0.000 O
ATOM     11  HD  GCU B   1      -2.548  29.935  -3.4070  0.00  0.00     0.000 HD
ATOM     11   O  GCU B   1      -2.419  26.519  -4.8350  0.00  0.00     0.000 O
ATOM     13  HD  GCU B   1      -2.560  27.351  -4.6410  0.00  0.00     0.000 HD
ENDROOT
BRANCH 5 13
ATOM     13   C  GCU B   1      -0.708  26.129  -7.1070  0.00  0.00     0.000 C
ATOM     14   O  GCU B   1       0.012  25.161  -7.4280  0.00  0.00     0.000 OA
ATOM     15   O  GCU B   1      -1.771  26.391  -7.7000  0.00  0.00     0.000 OA
ENDBRANCH 5 13
BRANCH 1 16
ATOM     16  O3  NAG B   2       1.826  29.380  -6.0850  0.00  0.00     0.000 O
BRANCH 16 19
ATOM     17  C1  NAG B   2       5.587  29.608  -5.9260  0.00  0.00     0.000 C
ATOM     18  C2  NAG B   2       4.151  29.731  -5.4340  0.00  0.00     0.000 C
ATOM     19  C3  NAG B   2       3.189  29.111  -6.4460  0.00  0.00     0.000 C
ATOM     20  C4  NAG B   2       3.436  29.691  -7.8390  0.00  0.00     0.000 C
ATOM     21  C5  NAG B   2       4.897  29.507  -8.2230  0.00  0.00     0.000 C
ATOM     22  O5  NAG B   2       5.722  30.163  -7.2440  0.00  0.00     0.000 O
ATOM     23   O  NAG B   2       2.568  29.027  -8.7640  0.00  0.00     0.000 O
ATOM     25  HD  NAG B   2       2.410  29.863  -8.6050  0.00  0.00     0.000 HD
ATOM     25   C  NAG B   2       5.214  30.051  -9.6140  0.00  0.00     0.000 C
ATOM     26   O  NAG B   2       5.232  31.487  -9.6310  0.00  0.00     0.000 O
ATOM     28  HD  NAG B   2       5.074  32.324  -9.4730  0.00  0.00     0.000 HD
BRANCH 18 30
ATOM     28   N  NAG B   2       4.413  30.279  -4.1160  0.00  0.00     0.000 N
ATOM     30  HD  NAG B   2       3.930  29.580  -3.9470  0.00  0.00     0.000 HD
ATOM     30   C  NAG B   2       3.862  29.808  -2.9900  0.00  0.00     0.000 C
ATOM     31   C  NAG B   2       4.197  30.512  -1.7050  0.00  0.00     0.000 C
ATOM     32   O  NAG B   2       3.116  28.850  -2.9940  0.00  0.00     0.000 OA
ENDBRANCH 18 30
BRANCH 17 33
ATOM     33  O4  GCU B   3       6.438  30.240  -4.9490  0.00  0.00     0.000 O
BRANCH 33 37
ATOM     34  C1  GCU B   3      10.241  29.236  -3.5820  0.00  0.00     0.000 C
ATOM     35  C2  GCU B   3      10.139  29.981  -4.9140  0.00  0.00     0.000 C
ATOM     36  C3  GCU B   3       8.772  30.623  -5.0330  0.00  0.00     0.000 C
ATOM     37  C4  GCU B   3       7.693  29.565  -4.8470  0.00  0.00     0.000 C
ATOM     38  C5  GCU B   3       7.874  28.878  -3.4920  0.00  0.00     0.000 C
ATOM     39  O5  GCU B   3       9.178  28.288  -3.4500  0.00  0.00     0.000 O
ATOM     40   O  GCU B   3      11.160  30.980  -4.9650  0.00  0.00     0.000 O
ATOM     42  HD  GCU B   3      11.288  31.820  -5.1320  0.00  0.00     0.000 HD
ATOM     42   O  GCU B   3       8.615  31.273  -6.3060  0.00  0.00     0.000 O
ATOM     44  HD  GCU B   3       8.743  32.113  -6.4730  0.00  0.00     0.000 HD
BRANCH 38 44
ATOM     44   C  GCU B   3       6.852  27.796  -3.2480  0.00  0.00     0.000 C
ATOM     45   O  GCU B   3       6.324  27.720  -2.1280  0.00  0.00     0.000 OA
ATOM     46   O  GCU B   3       6.555  27.008  -4.1650  0.00  0.00     0.000 OA
ENDBRANCH 38 44
BRANCH 34 47
ATOM     47  O3  NAG B   4      11.352  28.514  -3.5810  0.00  0.00     0.000 O
BRANCH 47 50
ATOM     48  C1  NAG B   4      14.693  27.677  -2.2060  0.00  0.00     0.000 C
ATOM     49  C2  NAG B   4      13.598  28.533  -2.8330  0.00  0.00     0.000 C
ATOM     50  C3  NAG B   4      12.222  27.923  -2.6170  0.00  0.00     0.000 C
ATOM     51  C4  NAG B   4      12.191  26.398  -2.7690  0.00  0.00     0.000 C
ATOM     52  C5  NAG B   4      13.125  25.726  -1.7760  0.00  0.00     0.000 C
ATOM     53  O5  NAG B   4      14.399  26.390  -1.6230  0.00  0.00     0.000 O
BRANCH 49 56
ATOM     54   N  NAG B   4      13.632  29.549  -1.7670  0.00  0.00     0.000 N
ATOM     56  HD  NAG B   4      13.637  29.389  -0.9160  0.00  0.00     0.000 HD
ATOM     56   C  NAG B   4      13.632  31.738  -0.7180  0.00  0.00     0.000 C
ATOM     57   O  NAG B   4      13.197  31.409  -2.9990  0.00  0.00     0.000 OA
ATOM     58   C  NAG B   4      13.460  30.876  -1.9310  0.00  0.00     0.000 C
ENDBRANCH 49 56
ATOM     59   O  NAG B   4      13.891  23.472  -1.1250  0.00  0.00     0.000 O
ATOM     61  HD  NAG B   4      14.009  24.186  -1.6000  0.00  0.00     0.000 HD
ATOM     61   O  NAG B   4      13.891  23.472  -1.1250  0.00  0.00     0.000 O
ATOM     63  HD  NAG B   4      14.009  24.186  -1.6000  0.00  0.00     0.000 HD
ENDBRANCH 47 50
ENDBRANCH 34 47
ENDBRANCH 33 37
ENDBRANCH 17 33
ENDBRANCH 16 19
ENDBRANCH 1 16
TORSDOF 10
ENDMDL
MODEL 66
REMARK VINA RESULT:      -7.7      3.741     11.384
ROOT
ATOM      1  C1  GCU B   1       0.753  27.812  -6.0140  0.00  0.00     0.000 C
ATOM      2  C2  GCU B   1       0.159  26.449  -6.3340  0.00  0.00     0.000 C
ATOM      3  C3  GCU B   1      -1.341  26.562  -6.5580  0.00  0.00     0.000 C
ATOM      4  C4  GCU B   1      -1.992  27.296  -5.3960  0.00  0.00     0.000 C
ATOM      5  C5  GCU B   1      -1.284  28.623  -5.1180  0.00  0.00     0.000 C
ATOM      6  O5  GCU B   1       0.104  28.370  -4.8610  0.00  0.00     0.000 O
ATOM      7   O  GCU B   1       0.808  25.957  -7.5020  0.00  0.00     0.000 O
ATOM      9  HD  GCU B   1       1.188  25.184  -7.5880  0.00  0.00     0.000 HD
ATOM      9   O  GCU B   1      -1.928  25.266  -6.7010  0.00  0.00     0.000 O
ATOM     11  HD  GCU B   1      -1.548  24.492  -6.7870  0.00  0.00     0.000 HD
ATOM     11   O  GCU B   1      -3.364  27.537  -5.7130  0.00  0.00     0.000 O
ATOM     13  HD  GCU B   1      -2.984  26.764  -5.7990  0.00  0.00     0.000 HD
ENDROOT
BRANCH 5 13
ATOM     13   C  GCU B   1      -1.959  29.336  -3.9710  0.00  0.00     0.000 C
ATOM     14   O  GCU B   1      -1.843  30.571  -3.8390  0.00  0.00     0.000 OA
ATOM     15   O  GCU B   1      -2.649  28.647  -3.1940  0.00  0.00     0.000 OA
ENDBRANCH 5 13
BRANCH 1 16
ATOM     16  O3  NAG B   2       1.863  28.073  -5.3220  0.00  0.00     0.000 O
BRANCH 16 19
ATOM     17  C1  NAG B   2       5.150  29.716  -6.1720  0.00  0.00     0.000 C
ATOM     18  C2  NAG B   2       4.030  28.688  -6.2600  0.00  0.00     0.000 C
ATOM     19  C3  NAG B   2       2.848  29.116  -5.3920  0.00  0.00     0.000 C
ATOM     20  C4  NAG B   2       3.317  29.423  -3.9700  0.00  0.00     0.000 C
ATOM     21  C5  NAG B   2       4.429  30.462  -4.0070  0.00  0.00     0.000 C
ATOM     22  O5  NAG B   2       5.514  29.953  -4.8030  0.00  0.00     0.000 O
ATOM     23   O  NAG B   2       2.194  29.893  -3.2170  0.00  0.00     0.000 O
ATOM     25  HD  NAG B   2       2.520  29.121  -2.9990  0.00  0.00     0.000 HD
ATOM     25   C  NAG B   2       4.938  30.832  -2.6150  0.00  0.00     0.000 C
ATOM     26   O  NAG B   2       5.731  29.780  -2.0430  0.00  0.00     0.000 O
ATOM     28  HD  NAG B   2       6.057  29.008  -1.8250  0.00  0.00     0.000 HD
BRANCH 18 30
ATOM     28   N  NAG B   2       4.085  28.561  -7.7040  0.00  0.00     0.000 N
ATOM     30  HD  NAG B   2       3.844  27.770  -7.4460  0.00  0.00     0.000 HD
ATOM     30   C  NAG B   2       3.923  27.404  -8.3580  0.00  0.00     0.000 C
ATOM     31   C  NAG B   2       4.053  27.426  -9.8560  0.00  0.00     0.000 C
ATOM     32   O  NAG B   2       3.681  26.367  -7.7750  0.00  0.00     0.000 OA
ENDBRANCH 18 30
BRANCH 17 33
ATOM     33  O4  GCU B   3       6.245  29.239  -6.9810  0.00  0.00     0.000 O
BRANCH 33 37
ATOM     34  C1  GCU B   3       9.857  31.028  -8.0230  0.00  0.00     0.000 C
ATOM     35  C2  GCU B   3       9.677  30.586  -6.5700  0.00  0.00     0.000 C
ATOM     36  C3  GCU B   3       8.528  29.603  -6.4780  0.00  0.00     0.000 C
ATOM     37  C4  GCU B   3       7.276  30.223  -7.0810  0.00  0.00     0.000 C
ATOM     38  C5  GCU B   3       7.550  30.630  -8.5300  0.00  0.00     0.000 C
ATOM     39  O5  GCU B   3       8.636  31.561  -8.5440  0.00  0.00     0.000 O
ATOM     40   O  GCU B   3      10.887  29.975  -6.1180  0.00  0.00     0.000 O
ATOM     42  HD  GCU B   3      11.190  29.268  -5.7210  0.00  0.00     0.000 HD
ATOM     42   O  GCU B   3       8.283  29.221  -5.1120  0.00  0.00     0.000 O
ATOM     44  HD  GCU B   3       8.586  28.514  -4.7150  0.00  0.00     0.000 HD
BRANCH 38 44
ATOM     44   C  GCU B   3       6.357  31.277  -9.1880  0.00  0.00     0.000 C
ATOM     45   O  GCU B   3       6.449  32.458  -9.5560  0.00  0.00     0.000 OA
ATOM     46   O  GCU B   3       5.311  30.620  -9.3540  0.00  0.00     0.000 OA
ENDBRANCH 38 44
BRANCH 34 47
ATOM     47  O3  NAG B   4      10.719  32.034  -8.0600  0.00  0.00     0.000 O
BRANCH 47 50
ATOM     48  C1  NAG B   4      11.786  35.559  -8.4960  0.00  0.00     0.000 C
ATOM     49  C2  NAG B   4      11.278  34.177  -8.8940  0.00  0.00     0.000 C
ATOM     50  C3  NAG B   4      10.744  33.412  -7.6940  0.00  0.00     0.000 C
ATOM     51  C4  NAG B   4      11.586  33.588  -6.4250  0.00  0.00     0.000 C
ATOM     52  C5  NAG B   4      11.661  35.049  -6.0120  0.00  0.00     0.000 C
ATOM     53  O5  NAG B   4      11.853  35.964  -7.1130  0.00  0.00     0.000 O
BRANCH 49 56
ATOM     54   N  NAG B   4      10.235  34.245  -9.9330  0.00  0.00     0.000 N
ATOM     56  HD  NAG B   4      10.249  33.827 -10.6910  0.00  0.00     0.000 HD
ATOM     56   C  NAG B   4       8.202  34.935 -11.0650  0.00  0.00     0.000 C
ATOM     57   O  NAG B   4       9.022  35.997  -9.1410  0.00  0.00     0.000 OA
ATOM     58   C  NAG B   4       9.200  35.108  -9.9620  0.00  0.00     0.000 C
ENDBRANCH 49 56
ATOM     59   O  NAG B   4      12.675  36.473  -4.2690  0.00  0.00     0.000 O
ATOM     61  HD  NAG B   4      12.725  36.117  -5.0570  0.00  0.00     0.000 HD
ATOM     61   O  NAG B   4      12.675  36.473  -4.2690  0.00  0.00     0.000 O
ATOM     63  HD  NAG B   4      12.725  36.117  -5.0570  0.00  0.00     0.000 HD
ENDBRANCH 47 50
ENDBRANCH 34 47
ENDBRANCH 33 37
ENDBRANCH 17 33
ENDBRANCH 16 19
ENDBRANCH 1 16
TORSDOF 10
ENDMDL
MODEL 67
REMARK VINA RESULT:      -7.7      2.756      5.218
ROOT
ATOM      1  C1  GCU B   1       9.862  34.152 -15.7770  0.00  0.00     0.000 C
ATOM      2  C2  GCU B   1      11.123  34.999 -15.8380  0.00  0.00     0.000 C
ATOM      3  C3  GCU B   1      11.011  36.043 -16.9390  0.00  0.00     0.000 C
ATOM      4  C4  GCU B   1      10.609  35.383 -18.2490  0.00  0.00     0.000 C
ATOM      5  C5  GCU B   1       9.368  34.507 -18.0660  0.00  0.00     0.000 C
ATOM      6  O5  GCU B   1       9.629  33.529 -17.0510  0.00  0.00     0.000 O
ATOM      7   O  GCU B   1      11.288  35.621 -14.5680  0.00  0.00     0.000 O
ATOM      9  HD  GCU B   1      12.003  35.603 -14.0790  0.00  0.00     0.000 HD
ATOM      9   O  GCU B   1      12.250  36.735 -17.1060  0.00  0.00     0.000 O
ATOM     11  HD  GCU B   1      12.965  36.716 -16.6170  0.00  0.00     0.000 HD
ATOM     11   O  GCU B   1      10.344  36.400 -19.2160  0.00  0.00     0.000 O
ATOM     13  HD  GCU B   1      11.059  36.382 -18.7270  0.00  0.00     0.000 HD
ENDROOT
BRANCH 5 13
ATOM     13   C  GCU B   1       8.985  33.878 -19.3840  0.00  0.00     0.000 C
ATOM     14   O  GCU B   1       8.486  34.572 -20.2940  0.00  0.00     0.000 OA
ATOM     15   O  GCU B   1       9.213  32.661 -19.5260  0.00  0.00     0.000 OA
ENDBRANCH 5 13
BRANCH 1 16
ATOM     16  O3  NAG B   2       9.741  32.903 -15.3210  0.00  0.00     0.000 O
BRANCH 16 19
ATOM     17  C1  NAG B   2       7.462  31.569 -12.6280  0.00  0.00     0.000 C
ATOM     18  C2  NAG B   2       8.487  32.497 -13.2680  0.00  0.00     0.000 C
ATOM     19  C3  NAG B   2       8.653  32.162 -14.7490  0.00  0.00     0.000 C
ATOM     20  C4  NAG B   2       8.946  30.672 -14.9280  0.00  0.00     0.000 C
ATOM     21  C5  NAG B   2       7.859  29.848 -14.2540  0.00  0.00     0.000 C
ATOM     22  O5  NAG B   2       7.809  30.194 -12.8580  0.00  0.00     0.000 O
ATOM     23   O  NAG B   2       9.016  30.392 -16.3300  0.00  0.00     0.000 O
ATOM     25  HD  NAG B   2       9.752  30.331 -15.8780  0.00  0.00     0.000 HD
ATOM     25   C  NAG B   2       8.078  28.344 -14.4060  0.00  0.00     0.000 C
ATOM     26   O  NAG B   2       9.156  27.879 -13.5790  0.00  0.00     0.000 O
ATOM     28  HD  NAG B   2       9.892  27.818 -13.1270  0.00  0.00     0.000 HD
BRANCH 18 30
ATOM     28   N  NAG B   2       7.952  33.716 -12.6910  0.00  0.00     0.000 N
ATOM     30  HD  NAG B   2       8.803  33.872 -12.7280  0.00  0.00     0.000 HD
ATOM     30   C  NAG B   2       8.710  34.719 -12.2310  0.00  0.00     0.000 C
ATOM     31   C  NAG B   2       8.007  35.899 -11.6200  0.00  0.00     0.000 C
ATOM     32   O  NAG B   2       9.922  34.688 -12.2960  0.00  0.00     0.000 OA
ENDBRANCH 18 30
BRANCH 17 33
ATOM     33  O4  GCU B   3       7.378  31.911 -11.2290  0.00  0.00     0.000 O
BRANCH 33 37
ATOM     34  C1  GCU B   3       5.006  30.370  -8.1750  0.00  0.00     0.000 C
ATOM     35  C2  GCU B   3       6.204  29.537  -8.6320  0.00  0.00     0.000 C
ATOM     36  C3  GCU B   3       7.163  30.413  -9.4100  0.00  0.00     0.000 C
ATOM     37  C4  GCU B   3       6.424  31.089 -10.5560  0.00  0.00     0.000 C
ATOM     38  C5  GCU B   3       5.248  31.898 -10.0040  0.00  0.00     0.000 C
ATOM     39  O5  GCU B   3       4.381  31.011  -9.2900  0.00  0.00     0.000 O
ATOM     40   O  GCU B   3       6.854  28.991  -7.4830  0.00  0.00     0.000 O
ATOM     42  HD  GCU B   3       7.633  28.905  -7.1130  0.00  0.00     0.000 HD
ATOM     42   O  GCU B   3       8.269  29.645  -9.9190  0.00  0.00     0.000 O
ATOM     44  HD  GCU B   3       9.047  29.559  -9.5490  0.00  0.00     0.000 HD
BRANCH 38 44
ATOM     44   C  GCU B   3       4.451  32.578 -11.0880  0.00  0.00     0.000 C
ATOM     45   O  GCU B   3       3.325  32.136 -11.3630  0.00  0.00     0.000 OA
ATOM     46   O  GCU B   3       4.929  33.564 -11.6810  0.00  0.00     0.000 OA
ENDBRANCH 38 44
BRANCH 34 47
ATOM     47  O3  NAG B   4       4.084  29.556  -7.6800  0.00  0.00     0.000 O
BRANCH 47 50
ATOM     48  C1  NAG B   4       1.399  29.365  -5.1290  0.00  0.00     0.000 C
ATOM     49  C2  NAG B   4       2.053  29.257  -6.5030  0.00  0.00     0.000 C
ATOM     50  C3  NAG B   4       3.568  29.208  -6.3970  0.00  0.00     0.000 C
ATOM     51  C4  NAG B   4       4.144  30.159  -5.3410  0.00  0.00     0.000 C
ATOM     52  C5  NAG B   4       3.602  29.840  -3.9580  0.00  0.00     0.000 C
ATOM     53  O5  NAG B   4       2.189  29.540  -3.9340  0.00  0.00     0.000 O
BRANCH 49 56
ATOM     54   N  NAG B   4       1.697  27.836  -6.6550  0.00  0.00     0.000 N
ATOM     56  HD  NAG B   4       1.737  27.235  -6.0320  0.00  0.00     0.000 HD
ATOM     56   C  NAG B   4       1.008  25.772  -7.7310  0.00  0.00     0.000 C
ATOM     57   O  NAG B   4       1.537  27.723  -8.9190  0.00  0.00     0.000 OA
ATOM     58   C  NAG B   4       1.447  27.201  -7.8180  0.00  0.00     0.000 C
ENDBRANCH 49 56
ATOM     59   O  NAG B   4       3.768  30.640  -1.6280  0.00  0.00     0.000 O
ATOM     61  HD  NAG B   4       3.361  30.662  -2.3920  0.00  0.00     0.000 HD
ATOM     61   O  NAG B   4       3.768  30.640  -1.6280  0.00  0.00     0.000 O
ATOM     63  HD  NAG B   4       3.361  30.662  -2.3920  0.00  0.00     0.000 HD
ENDBRANCH 47 50
ENDBRANCH 34 47
ENDBRANCH 33 37
ENDBRANCH 17 33
ENDBRANCH 16 19
ENDBRANCH 1 16
TORSDOF 10
ENDMDL
MODEL 68
REMARK VINA RESULT:      -7.7      7.579     12.586
ROOT
ATOM      1  C1  GCU B   1       7.223  22.296   1.4940  0.00  0.00     0.000 C
ATOM      2  C2  GCU B   1       8.291  21.307   1.9340  0.00  0.00     0.000 C
ATOM      3  C3  GCU B   1       7.656  20.109   2.6230  0.00  0.00     0.000 C
ATOM      4  C4  GCU B   1       6.711  20.574   3.7200  0.00  0.00     0.000 C
ATOM      5  C5  GCU B   1       5.718  21.610   3.1890  0.00  0.00     0.000 C
ATOM      6  O5  GCU B   1       6.444  22.711   2.6270  0.00  0.00     0.000 O
ATOM      7   O  GCU B   1       9.009  20.900   0.7730  0.00  0.00     0.000 O
ATOM      9  HD  GCU B   1       9.868  20.918   0.6710  0.00  0.00     0.000 HD
ATOM      9   O  GCU B   1       8.660  19.256   3.1780  0.00  0.00     0.000 O
ATOM     11  HD  GCU B   1       9.520  19.274   3.0760  0.00  0.00     0.000 HD
ATOM     11   O  GCU B   1       6.004  19.443   4.2300  0.00  0.00     0.000 O
ATOM     13  HD  GCU B   1       6.863  19.461   4.1280  0.00  0.00     0.000 HD
ENDROOT
BRANCH 5 13
ATOM     13   C  GCU B   1       4.786  22.042   4.2950  0.00  0.00     0.000 C
ATOM     14   O  GCU B   1       3.756  21.384   4.5460  0.00  0.00     0.000 OA
ATOM     15   O  GCU B   1       5.104  23.052   4.9520  0.00  0.00     0.000 OA
ENDBRANCH 5 13
BRANCH 1 16
ATOM     16  O3  NAG B   2       7.360  23.610   1.3040  0.00  0.00     0.000 O
BRANCH 16 19
ATOM     17  C1  NAG B   2       5.582  26.087  -0.9170  0.00  0.00     0.000 C
ATOM     18  C2  NAG B   2       6.405  24.854  -0.5650  0.00  0.00     0.000 C
ATOM     19  C3  NAG B   2       6.443  24.657   0.9490  0.00  0.00     0.000 C
ATOM     20  C4  NAG B   2       6.898  25.942   1.6410  0.00  0.00     0.000 C
ATOM     21  C5  NAG B   2       6.004  27.099   1.2190  0.00  0.00     0.000 C
ATOM     22  O5  NAG B   2       6.069  27.240  -0.2110  0.00  0.00     0.000 O
ATOM     23   O  NAG B   2       6.844  25.735   3.0570  0.00  0.00     0.000 O
ATOM     25  HD  NAG B   2       7.628  25.825   2.7010  0.00  0.00     0.000 HD
ATOM     25   C  NAG B   2       6.390  28.417   1.8860  0.00  0.00     0.000 C
ATOM     26   O  NAG B   2       7.604  28.954   1.3370  0.00  0.00     0.000 O
ATOM     28  HD  NAG B   2       8.388  29.044   0.9810  0.00  0.00     0.000 HD
BRANCH 18 30
ATOM     28   N  NAG B   2       6.837  24.292  -1.8310  0.00  0.00     0.000 N
ATOM     30  HD  NAG B   2       6.258  23.715  -1.5460  0.00  0.00     0.000 HD
ATOM     30   C  NAG B   2       6.464  23.087  -2.2780  0.00  0.00     0.000 C
ATOM     31   C  NAG B   2       7.034  22.624  -3.5900  0.00  0.00     0.000 C
ATOM     32   O  NAG B   2       5.696  22.381  -1.6550  0.00  0.00     0.000 OA
ENDBRANCH 18 30
BRANCH 17 33
ATOM     33  O4  GCU B   3       5.614  26.238  -2.3500  0.00  0.00     0.000 O
BRANCH 33 37
ATOM     34  C1  GCU B   3       2.788  27.753  -5.0050  0.00  0.00     0.000 C
ATOM     35  C2  GCU B   3       3.534  28.750  -4.1180  0.00  0.00     0.000 C
ATOM     36  C3  GCU B   3       4.778  28.095  -3.5560  0.00  0.00     0.000 C
ATOM     37  C4  GCU B   3       4.398  26.810  -2.8340  0.00  0.00     0.000 C
ATOM     38  C5  GCU B   3       3.661  25.877  -3.7970  0.00  0.00     0.000 C
ATOM     39  O5  GCU B   3       2.496  26.553  -4.2830  0.00  0.00     0.000 O
ATOM     40   O  GCU B   3       3.888  29.892  -4.9010  0.00  0.00     0.000 O
ATOM     42  HD  GCU B   3       4.556  30.406  -5.0990  0.00  0.00     0.000 HD
ATOM     42   O  GCU B   3       5.468  28.982  -2.6570  0.00  0.00     0.000 O
ATOM     44  HD  GCU B   3       6.137  29.496  -2.8550  0.00  0.00     0.000 HD
BRANCH 38 44
ATOM     44   C  GCU B   3       3.229  24.589  -3.1430  0.00  0.00     0.000 C
ATOM     45   O  GCU B   3       3.407  23.524  -3.7540  0.00  0.00     0.000 OA
ATOM     46   O  GCU B   3       2.708  24.615  -2.0120  0.00  0.00     0.000 OA
ENDBRANCH 38 44
BRANCH 34 47
ATOM     47  O3  NAG B   4       1.606  28.263  -5.3210  0.00  0.00     0.000 O
BRANCH 47 50
ATOM     48  C1  NAG B   4      -1.992  28.844  -4.6360  0.00  0.00     0.000 C
ATOM     49  C2  NAG B   4      -0.712  28.055  -4.8890  0.00  0.00     0.000 C
ATOM     50  C3  NAG B   4       0.524  28.906  -4.6500  0.00  0.00     0.000 C
ATOM     51  C4  NAG B   4       0.391  30.346  -5.1600  0.00  0.00     0.000 C
ATOM     52  C5  NAG B   4      -0.768  31.064  -4.4880  0.00  0.00     0.000 C
ATOM     53  O5  NAG B   4      -1.958  30.257  -4.3470  0.00  0.00     0.000 O
BRANCH 49 56
ATOM     54   N  NAG B   4      -0.679  27.314  -3.6160  0.00  0.00     0.000 N
ATOM     56  HD  NAG B   4      -0.563  27.663  -2.8310  0.00  0.00     0.000 HD
ATOM     56   C  NAG B   4      -0.695  25.430  -2.0860  0.00  0.00     0.000 C
ATOM     57   O  NAG B   4      -0.536  25.191  -4.4140  0.00  0.00     0.000 OA
ATOM     58   C  NAG B   4      -0.622  25.975  -3.4800  0.00  0.00     0.000 C
ENDBRANCH 49 56
ATOM     59   O  NAG B   4      -1.902  33.256  -4.5060  0.00  0.00     0.000 O
ATOM     61  HD  NAG B   4      -1.852  32.445  -4.8060  0.00  0.00     0.000 HD
ATOM     61   O  NAG B   4      -1.902  33.256  -4.5060  0.00  0.00     0.000 O
ATOM     63  HD  NAG B   4      -1.852  32.445  -4.8060  0.00  0.00     0.000 HD
ENDBRANCH 47 50
ENDBRANCH 34 47
ENDBRANCH 33 37
ENDBRANCH 17 33
ENDBRANCH 16 19
ENDBRANCH 1 16
TORSDOF 10
ENDMDL
MODEL 69
REMARK VINA RESULT:      -7.7      5.199     11.664
ROOT
ATOM      1  C1  GCU B   1       1.757  28.314  -5.6660  0.00  0.00     0.000 C
ATOM      2  C2  GCU B   1       0.594  28.735  -4.7800  0.00  0.00     0.000 C
ATOM      3  C3  GCU B   1      -0.431  27.616  -4.6820  0.00  0.00     0.000 C
ATOM      4  C4  GCU B   1      -0.817  27.133  -6.0710  0.00  0.00     0.000 C
ATOM      5  C5  GCU B   1       0.423  26.795  -6.9000  0.00  0.00     0.000 C
ATOM      6  O5  GCU B   1       1.272  27.949  -6.9680  0.00  0.00     0.000 O
ATOM      7   O  GCU B   1       1.122  29.050  -3.4960  0.00  0.00     0.000 O
ATOM      9  HD  GCU B   1       0.987  29.783  -3.0540  0.00  0.00     0.000 HD
ATOM      9   O  GCU B   1      -1.597  28.061  -3.9830  0.00  0.00     0.000 O
ATOM     11  HD  GCU B   1      -1.732  28.793  -3.5410  0.00  0.00     0.000 HD
ATOM     11   O  GCU B   1      -1.644  25.975  -5.9440  0.00  0.00     0.000 O
ATOM     13  HD  GCU B   1      -1.779  26.708  -5.5030  0.00  0.00     0.000 HD
ENDROOT
BRANCH 5 13
ATOM     13   C  GCU B   1       0.010  26.305  -8.2670  0.00  0.00     0.000 C
ATOM     14   O  GCU B   1       0.852  25.801  -9.0380  0.00  0.00     0.000 OA
ATOM     15   O  GCU B   1      -1.195  26.402  -8.5710  0.00  0.00     0.000 OA
ENDBRANCH 5 13
BRANCH 1 16
ATOM     16  O3  NAG B   2       2.574  29.105  -6.3650  0.00  0.00     0.000 O
BRANCH 16 19
ATOM     17  C1  NAG B   2       6.257  29.869  -6.0860  0.00  0.00     0.000 C
ATOM     18  C2  NAG B   2       4.804  29.776  -5.6380  0.00  0.00     0.000 C
ATOM     19  C3  NAG B   2       3.972  29.041  -6.6870  0.00  0.00     0.000 C
ATOM     20  C4  NAG B   2       4.172  29.675  -8.0640  0.00  0.00     0.000 C
ATOM     21  C5  NAG B   2       5.655  29.709  -8.4050  0.00  0.00     0.000 C
ATOM     22  O5  NAG B   2       6.348  30.460  -7.3930  0.00  0.00     0.000 O
ATOM     23   O  NAG B   2       3.437  28.908  -9.0240  0.00  0.00     0.000 O
ATOM     25  HD  NAG B   2       3.155  29.710  -8.8600  0.00  0.00     0.000 HD
ATOM     25   C  NAG B   2       5.930  30.317  -9.7790  0.00  0.00     0.000 C
ATOM     26   O  NAG B   2       5.741  31.740  -9.7770  0.00  0.00     0.000 O
ATOM     28  HD  NAG B   2       5.460  32.543  -9.6130  0.00  0.00     0.000 HD
BRANCH 18 30
ATOM     28   N  NAG B   2       4.831  30.389  -4.3230  0.00  0.00     0.000 N
ATOM     30  HD  NAG B   2       4.605  29.570  -4.1550  0.00  0.00     0.000 HD
ATOM     30   C  NAG B   2       4.438  29.769  -3.2030  0.00  0.00     0.000 C
ATOM     31   C  NAG B   2       4.482  30.553  -1.9220  0.00  0.00     0.000 C
ATOM     32   O  NAG B   2       4.054  28.616  -3.2100  0.00  0.00     0.000 OA
ENDBRANCH 18 30
BRANCH 17 33
ATOM     33  O4  GCU B   3       6.980  30.601  -5.0760  0.00  0.00     0.000 O
BRANCH 33 37
ATOM     34  C1  GCU B   3      10.949  30.368  -3.8410  0.00  0.00     0.000 C
ATOM     35  C2  GCU B   3      10.663  31.025  -5.1920  0.00  0.00     0.000 C
ATOM     36  C3  GCU B   3       9.198  31.400  -5.2730  0.00  0.00     0.000 C
ATOM     37  C4  GCU B   3       8.340  30.172  -5.0050  0.00  0.00     0.000 C
ATOM     38  C5  GCU B   3       8.694  29.586  -3.6370  0.00  0.00     0.000 C
ATOM     39  O5  GCU B   3      10.084  29.248  -3.6310  0.00  0.00     0.000 O
ATOM     40   O  GCU B   3      11.479  32.191  -5.3220  0.00  0.00     0.000 O
ATOM     42  HD  GCU B   3      11.444  33.033  -5.5230  0.00  0.00     0.000 HD
ATOM     42   O  GCU B   3       8.877  31.956  -6.5610  0.00  0.00     0.000 O
ATOM     44  HD  GCU B   3       8.842  32.798  -6.7620  0.00  0.00     0.000 HD
BRANCH 38 44
ATOM     44   C  GCU B   3       7.899  28.347  -3.3110  0.00  0.00     0.000 C
ATOM     45   O  GCU B   3       7.373  28.255  -2.1910  0.00  0.00     0.000 OA
ATOM     46   O  GCU B   3       7.781  27.446  -4.1640  0.00  0.00     0.000 OA
ENDBRANCH 38 44
BRANCH 34 47
ATOM     47  O3  NAG B   4      12.174  29.862  -3.8630  0.00  0.00     0.000 O
BRANCH 47 50
ATOM     48  C1  NAG B   4      14.668  28.405  -1.5370  0.00  0.00     0.000 C
ATOM     49  C2  NAG B   4      13.736  28.482  -2.7410  0.00  0.00     0.000 C
ATOM     50  C3  NAG B   4      13.350  29.918  -3.0580  0.00  0.00     0.000 C
ATOM     51  C4  NAG B   4      13.075  30.771  -1.8140  0.00  0.00     0.000 C
ATOM     52  C5  NAG B   4      14.295  30.838  -0.9110  0.00  0.00     0.000 C
ATOM     53  O5  NAG B   4      14.985  29.578  -0.7580  0.00  0.00     0.000 O
BRANCH 49 56
ATOM     54   N  NAG B   4      14.753  28.329  -3.7960  0.00  0.00     0.000 N
ATOM     56  HD  NAG B   4      15.377  28.900  -3.9840  0.00  0.00     0.000 HD
ATOM     56   C  NAG B   4      15.948  27.358  -5.6720  0.00  0.00     0.000 C
ATOM     57   O  NAG B   4      13.879  26.554  -4.9140  0.00  0.00     0.000 OA
ATOM     58   C  NAG B   4      14.761  27.386  -4.7590  0.00  0.00     0.000 C
ENDBRANCH 49 56
ATOM     59   O  NAG B   4      15.009  31.824   1.2370  0.00  0.00     0.000 O
ATOM     61  HD  NAG B   4      14.677  31.152   0.8040  0.00  0.00     0.000 HD
ATOM     61   O  NAG B   4      15.009  31.824   1.2370  0.00  0.00     0.000 O
ATOM     63  HD  NAG B   4      14.677  31.152   0.8040  0.00  0.00     0.000 HD
ENDBRANCH 47 50
ENDBRANCH 34 47
ENDBRANCH 33 37
ENDBRANCH 17 33
ENDBRANCH 16 19
ENDBRANCH 1 16
TORSDOF 10
ENDMDL
MODEL 70
REMARK VINA RESULT:      -7.7      8.958     13.601
ROOT
ATOM      1  C1  GCU B   1       0.163  26.900  -2.7470  0.00  0.00     0.000 C
ATOM      2  C2  GCU B   1      -1.169  27.626  -2.8620  0.00  0.00     0.000 C
ATOM      3  C3  GCU B   1      -1.913  27.176  -4.1110  0.00  0.00     0.000 C
ATOM      4  C4  GCU B   1      -1.008  27.284  -5.3290  0.00  0.00     0.000 C
ATOM      5  C5  GCU B   1       0.326  26.575  -5.0870  0.00  0.00     0.000 C
ATOM      6  O5  GCU B   1       0.951  27.135  -3.9250  0.00  0.00     0.000 O
ATOM      7   O  GCU B   1      -1.925  27.332  -1.6920  0.00  0.00     0.000 O
ATOM      9  HD  GCU B   1      -2.298  27.910  -1.1660  0.00  0.00     0.000 HD
ATOM      9   O  GCU B   1      -3.088  27.967  -4.3090  0.00  0.00     0.000 O
ATOM     11  HD  GCU B   1      -3.461  28.545  -3.7840  0.00  0.00     0.000 HD
ATOM     11   O  GCU B   1      -1.671  26.697  -6.4490  0.00  0.00     0.000 O
ATOM     13  HD  GCU B   1      -2.045  27.276  -5.9240  0.00  0.00     0.000 HD
ENDROOT
BRANCH 5 13
ATOM     13   C  GCU B   1       1.196  26.686  -6.3160  0.00  0.00     0.000 C
ATOM     14   O  GCU B   1       2.206  25.964  -6.4410  0.00  0.00     0.000 OA
ATOM     15   O  GCU B   1       0.847  27.498  -7.1950  0.00  0.00     0.000 OA
ENDBRANCH 5 13
BRANCH 1 16
ATOM     16  O3  NAG B   2       1.264  27.317  -2.1170  0.00  0.00     0.000 O
BRANCH 16 19
ATOM     17  C1  NAG B   2       3.152  25.543   0.6240  0.00  0.00     0.000 C
ATOM     18  C2  NAG B   2       1.941  26.093  -0.1180  0.00  0.00     0.000 C
ATOM     19  C3  NAG B   2       2.357  26.633  -1.4840  0.00  0.00     0.000 C
ATOM     20  C4  NAG B   2       3.513  27.622  -1.3360  0.00  0.00     0.000 C
ATOM     21  C5  NAG B   2       4.662  26.963  -0.5870  0.00  0.00     0.000 C
ATOM     22  O5  NAG B   2       4.191  26.532   0.7020  0.00  0.00     0.000 O
ATOM     23   O  NAG B   2       3.919  28.041  -2.6440  0.00  0.00     0.000 O
ATOM     25  HD  NAG B   2       3.542  28.634  -2.1390  0.00  0.00     0.000 HD
ATOM     25   C  NAG B   2       5.864  27.890  -0.4150  0.00  0.00     0.000 C
ATOM     26   O  NAG B   2       5.611  28.910   0.5630  0.00  0.00     0.000 O
ATOM     28  HD  NAG B   2       5.233  29.504   1.0680  0.00  0.00     0.000 HD
BRANCH 18 30
ATOM     28   N  NAG B   2       0.772  25.924   0.7250  0.00  0.00     0.000 N
ATOM     30  HD  NAG B   2       0.678  25.301   0.1310  0.00  0.00     0.000 HD
ATOM     30   C  NAG B   2      -0.221  25.066   0.4600  0.00  0.00     0.000 C
ATOM     31   C  NAG B   2      -1.389  25.038   1.4060  0.00  0.00     0.000 C
ATOM     32   O  NAG B   2      -0.194  24.333  -0.5080  0.00  0.00     0.000 OA
ENDBRANCH 18 30
BRANCH 17 33
ATOM     33  O4  GCU B   3       2.701  25.083   1.9140  0.00  0.00     0.000 O
BRANCH 33 37
ATOM     34  C1  GCU B   3       4.094  22.016   4.3600  0.00  0.00     0.000 C
ATOM     35  C2  GCU B   3       5.004  23.228   4.1540  0.00  0.00     0.000 C
ATOM     36  C3  GCU B   3       4.191  24.386   3.6160  0.00  0.00     0.000 C
ATOM     37  C4  GCU B   3       3.461  23.955   2.3520  0.00  0.00     0.000 C
ATOM     38  C5  GCU B   3       2.577  22.744   2.6550  0.00  0.00     0.000 C
ATOM     39  O5  GCU B   3       3.407  21.687   3.1500  0.00  0.00     0.000 O
ATOM     40   O  GCU B   3       5.598  23.579   5.4050  0.00  0.00     0.000 O
ATOM     42  HD  GCU B   3       5.739  24.253   5.9310  0.00  0.00     0.000 HD
ATOM     42   O  GCU B   3       5.029  25.523   3.3410  0.00  0.00     0.000 O
ATOM     44  HD  GCU B   3       5.169  26.196   3.8670  0.00  0.00     0.000 HD
BRANCH 38 44
ATOM     44   C  GCU B   3       1.839  22.243   1.4390  0.00  0.00     0.000 C
ATOM     45   O  GCU B   3       2.442  22.198   0.3560  0.00  0.00     0.000 OA
ATOM     46   O  GCU B   3       0.651  21.883   1.5420  0.00  0.00     0.000 OA
ENDBRANCH 38 44
BRANCH 34 47
ATOM     47  O3  NAG B   4       4.846  20.958   4.6310  0.00  0.00     0.000 O
BRANCH 47 50
ATOM     48  C1  NAG B   4       7.211  18.676   2.9120  0.00  0.00     0.000 C
ATOM     49  C2  NAG B   4       6.007  19.596   3.0810  0.00  0.00     0.000 C
ATOM     50  C3  NAG B   4       6.153  20.486   4.3060  0.00  0.00     0.000 C
ATOM     51  C4  NAG B   4       6.752  19.769   5.5210  0.00  0.00     0.000 C
ATOM     52  C5  NAG B   4       8.137  19.226   5.2120  0.00  0.00     0.000 C
ATOM     53  O5  NAG B   4       8.252  18.611   3.9100  0.00  0.00     0.000 O
BRANCH 49 56
ATOM     54   N  NAG B   4       5.885  20.294   1.7890  0.00  0.00     0.000 N
ATOM     56  HD  NAG B   4       5.428  20.018   1.1070  0.00  0.00     0.000 HD
ATOM     56   C  NAG B   4       6.252  21.968   0.0710  0.00  0.00     0.000 C
ATOM     57   O  NAG B   4       7.518  21.854   2.0410  0.00  0.00     0.000 OA
ATOM     58   C  NAG B   4       6.611  21.357   1.3900  0.00  0.00     0.000 C
ENDBRANCH 49 56
ATOM     59   O  NAG B   4       9.957  17.956   6.2950  0.00  0.00     0.000 O
ATOM     61  HD  NAG B   4       9.241  17.956   5.8080  0.00  0.00     0.000 HD
ATOM     61   O  NAG B   4       9.957  17.956   6.2950  0.00  0.00     0.000 O
ATOM     63  HD  NAG B   4       9.241  17.956   5.8080  0.00  0.00     0.000 HD
ENDBRANCH 47 50
ENDBRANCH 34 47
ENDBRANCH 33 37
ENDBRANCH 17 33
ENDBRANCH 16 19
ENDBRANCH 1 16
TORSDOF 10
ENDMDL
MODEL 71
REMARK VINA RESULT:      -7.7      9.577     13.400
ROOT
ATOM      1  C1  GCU B   1       5.724  26.420   0.0670  0.00  0.00     0.000 C
ATOM      2  C2  GCU B   1       7.185  26.145  -0.2520  0.00  0.00     0.000 C
ATOM      3  C3  GCU B   1       8.086  26.759   0.8070  0.00  0.00     0.000 C
ATOM      4  C4  GCU B   1       7.733  28.224   1.0130  0.00  0.00     0.000 C
ATOM      5  C5  GCU B   1       6.234  28.398   1.2660  0.00  0.00     0.000 C
ATOM      6  O5  GCU B   1       5.504  27.837   0.1670  0.00  0.00     0.000 O
ATOM      7   O  GCU B   1       7.357  24.732  -0.3040  0.00  0.00     0.000 O
ATOM      9  HD  GCU B   1       7.717  24.285  -0.9520  0.00  0.00     0.000 HD
ATOM      9   O  GCU B   1       9.460  26.642   0.4300  0.00  0.00     0.000 O
ATOM     11  HD  GCU B   1       9.820  26.194  -0.2180  0.00  0.00     0.000 HD
ATOM     11   O  GCU B   1       8.473  28.726   2.1260  0.00  0.00     0.000 O
ATOM     13  HD  GCU B   1       8.832  28.279   1.4780  0.00  0.00     0.000 HD
ENDROOT
BRANCH 5 13
ATOM     13   C  GCU B   1       5.915  29.859   1.4800  0.00  0.00     0.000 C
ATOM     14   O  GCU B   1       5.268  30.495   0.6230  0.00  0.00     0.000 OA
ATOM     15   O  GCU B   1       6.297  30.379   2.5450  0.00  0.00     0.000 OA
ENDBRANCH 5 13
BRANCH 1 16
ATOM     16  O3  NAG B   2       4.701  26.480  -0.7890  0.00  0.00     0.000 O
BRANCH 16 19
ATOM     17  C1  NAG B   2       1.166  25.524   0.1150  0.00  0.00     0.000 C
ATOM     18  C2  NAG B   2       2.687  25.441   0.1150  0.00  0.00     0.000 C
ATOM     19  C3  NAG B   2       3.283  26.638  -0.6230  0.00  0.00     0.000 C
ATOM     20  C4  NAG B   2       2.655  26.775  -2.0100  0.00  0.00     0.000 C
ATOM     21  C5  NAG B   2       1.141  26.854  -1.8840  0.00  0.00     0.000 C
ATOM     22  O5  NAG B   2       0.666  25.667  -1.2250  0.00  0.00     0.000 O
ATOM     23   O  NAG B   2       3.186  27.951  -2.6310  0.00  0.00     0.000 O
ATOM     25  HD  NAG B   2       3.413  27.188  -2.9720  0.00  0.00     0.000 HD
ATOM     25   C  NAG B   2       0.444  27.009  -3.2350  0.00  0.00     0.000 C
ATOM     26   O  NAG B   2       0.471  25.787  -3.9890  0.00  0.00     0.000 O
ATOM     28  HD  NAG B   2       0.697  25.024  -4.3300  0.00  0.00     0.000 HD
BRANCH 18 30
ATOM     28   N  NAG B   2       2.742  25.035   1.5060  0.00  0.00     0.000 N
ATOM     30  HD  NAG B   2       3.478  24.719   1.1790  0.00  0.00     0.000 HD
ATOM     30   C  NAG B   2       3.689  24.237   2.0140  0.00  0.00     0.000 C
ATOM     31   C  NAG B   2       3.585  23.870   3.4680  0.00  0.00     0.000 C
ATOM     32   O  NAG B   2       4.604  23.816   1.3350  0.00  0.00     0.000 OA
ENDBRANCH 18 30
BRANCH 17 33
ATOM     33  O4  GCU B   3       0.665  24.354   0.7910  0.00  0.00     0.000 O
BRANCH 33 37
ATOM     34  C1  GCU B   3      -3.194  23.315   1.9580  0.00  0.00     0.000 C
ATOM     35  C2  GCU B   3      -2.819  23.116   0.4890  0.00  0.00     0.000 C
ATOM     36  C3  GCU B   3      -1.312  23.131   0.3440  0.00  0.00     0.000 C
ATOM     37  C4  GCU B   3      -0.754  24.416   0.9410  0.00  0.00     0.000 C
ATOM     38  C5  GCU B   3      -1.178  24.527   2.4070  0.00  0.00     0.000 C
ATOM     39  O5  GCU B   3      -2.607  24.514   2.4710  0.00  0.00     0.000 O
ATOM     40   O  GCU B   3      -3.345  21.864   0.0420  0.00  0.00     0.000 O
ATOM     42  HD  GCU B   3      -3.123  21.136  -0.3710  0.00  0.00     0.000 HD
ATOM     42   O  GCU B   3      -0.924  23.019  -1.0370  0.00  0.00     0.000 O
ATOM     44  HD  GCU B   3      -0.701  22.291  -1.4500  0.00  0.00     0.000 HD
BRANCH 38 44
ATOM     44   C  GCU B   3      -0.681  25.792   3.0620  0.00  0.00     0.000 C
ATOM     45   O  GCU B   3       0.455  25.796   3.5600  0.00  0.00     0.000 OA
ATOM     46   O  GCU B   3      -1.411  26.802   3.0870  0.00  0.00     0.000 OA
ENDBRANCH 38 44
BRANCH 34 47
ATOM     47  O3  NAG B   4      -4.503  23.505   2.0420  0.00  0.00     0.000 O
BRANCH 47 50
ATOM     48  C1  NAG B   4      -7.596  21.691   2.9890  0.00  0.00     0.000 C
ATOM     49  C2  NAG B   4      -6.200  21.897   2.4110  0.00  0.00     0.000 C
ATOM     50  C3  NAG B   4      -5.559  23.169   2.9400  0.00  0.00     0.000 C
ATOM     51  C4  NAG B   4      -6.530  24.351   3.0490  0.00  0.00     0.000 C
ATOM     52  C5  NAG B   4      -7.688  24.028   3.9790  0.00  0.00     0.000 C
ATOM     53  O5  NAG B   4      -8.221  22.695   3.8160  0.00  0.00     0.000 O
BRANCH 49 56
ATOM     54   N  NAG B   4      -5.491  20.944   3.2840  0.00  0.00     0.000 N
ATOM     56  HD  NAG B   4      -5.404  21.013   4.1420  0.00  0.00     0.000 HD
ATOM     56   C  NAG B   4      -4.157  19.024   3.9350  0.00  0.00     0.000 C
ATOM     57   O  NAG B   4      -4.428  19.701   1.7060  0.00  0.00     0.000 OA
ATOM     58   C  NAG B   4      -4.703  19.930   2.8740  0.00  0.00     0.000 C
ENDBRANCH 49 56
ATOM     59   O  NAG B   4      -9.749  25.059   4.8640  0.00  0.00     0.000 O
ATOM     61  HD  NAG B   4      -9.366  24.565   4.2650  0.00  0.00     0.000 HD
ATOM     61   O  NAG B   4      -9.749  25.059   4.8640  0.00  0.00     0.000 O
ATOM     63  HD  NAG B   4      -9.366  24.565   4.2650  0.00  0.00     0.000 HD
ENDBRANCH 47 50
ENDBRANCH 34 47
ENDBRANCH 33 37
ENDBRANCH 17 33
ENDBRANCH 16 19
ENDBRANCH 1 16
TORSDOF 10
ENDMDL
MODEL 72
REMARK VINA RESULT:      -7.7      6.862      8.943
ROOT
ATOM      1  C1  GCU B   1       5.750  28.936  -7.1790  0.00  0.00     0.000 C
ATOM      2  C2  GCU B   1       6.528  30.052  -7.8590  0.00  0.00     0.000 C
ATOM      3  C3  GCU B   1       5.611  30.871  -8.7540  0.00  0.00     0.000 C
ATOM      4  C4  GCU B   1       4.838  29.956  -9.6920  0.00  0.00     0.000 C
ATOM      5  C5  GCU B   1       4.144  28.834  -8.9170  0.00  0.00     0.000 C
ATOM      6  O5  GCU B   1       5.125  28.103  -8.1690  0.00  0.00     0.000 O
ATOM      7   O  GCU B   1       7.095  30.867  -6.8380  0.00  0.00     0.000 O
ATOM      9  HD  GCU B   1       7.928  31.095  -6.7700  0.00  0.00     0.000 HD
ATOM      9   O  GCU B   1       6.364  31.818  -9.5150  0.00  0.00     0.000 O
ATOM     11  HD  GCU B   1       7.197  32.046  -9.4470  0.00  0.00     0.000 HD
ATOM     11   O  GCU B   1       3.866  30.730 -10.3960  0.00  0.00     0.000 O
ATOM     13  HD  GCU B   1       4.699  30.958 -10.3280  0.00  0.00     0.000 HD
ENDROOT
BRANCH 5 13
ATOM     13   C  GCU B   1       3.375  27.951  -9.8700  0.00  0.00     0.000 C
ATOM     14   O  GCU B   1       2.588  27.086  -9.4330  0.00  0.00     0.000 OA
ATOM     15   O  GCU B   1       3.539  28.144 -11.0900  0.00  0.00     0.000 OA
ENDBRANCH 5 13
BRANCH 1 16
ATOM     16  O3  NAG B   2       6.224  27.773  -6.7270  0.00  0.00     0.000 O
BRANCH 16 19
ATOM     17  C1  NAG B   2       6.013  26.413  -3.2150  0.00  0.00     0.000 C
ATOM     18  C2  NAG B   2       6.266  27.442  -4.3100  0.00  0.00     0.000 C
ATOM     19  C3  NAG B   2       5.827  26.891  -5.6650  0.00  0.00     0.000 C
ATOM     20  C4  NAG B   2       6.466  25.526  -5.9170  0.00  0.00     0.000 C
ATOM     21  C5  NAG B   2       6.144  24.585  -4.7660  0.00  0.00     0.000 C
ATOM     22  O5  NAG B   2       6.636  25.160  -3.5420  0.00  0.00     0.000 O
ATOM     23   O  NAG B   2       5.967  25.016  -7.1590  0.00  0.00     0.000 O
ATOM     25  HD  NAG B   2       6.804  25.238  -7.1310  0.00  0.00     0.000 HD
ATOM     25   C  NAG B   2       6.739  23.191  -4.9570  0.00  0.00     0.000 C
ATOM     26   O  NAG B   2       8.161  23.190  -4.7610  0.00  0.00     0.000 O
ATOM     28  HD  NAG B   2       8.998  23.412  -4.7330  0.00  0.00     0.000 HD
BRANCH 18 30
ATOM     28   N  NAG B   2       5.655  28.581  -3.6520  0.00  0.00     0.000 N
ATOM     30  HD  NAG B   2       6.355  28.923  -4.0300  0.00  0.00     0.000 HD
ATOM     30   C  NAG B   2       6.214  29.797  -3.5940  0.00  0.00     0.000 C
ATOM     31   C  NAG B   2       5.478  30.866  -2.8370  0.00  0.00     0.000 C
ATOM     32   O  NAG B   2       7.278  30.039  -4.1270  0.00  0.00     0.000 OA
ENDBRANCH 18 30
BRANCH 17 33
ATOM     33  O4  GCU B   3       6.479  26.976  -1.9720  0.00  0.00     0.000 O
BRANCH 33 37
ATOM     34  C1  GCU B   3       5.539  26.009   1.9670  0.00  0.00     0.000 C
ATOM     35  C2  GCU B   3       6.662  25.222   1.2910  0.00  0.00     0.000 C
ATOM     36  C3  GCU B   3       7.141  25.971   0.0660  0.00  0.00     0.000 C
ATOM     37  C4  GCU B   3       5.962  26.252  -0.8540  0.00  0.00     0.000 C
ATOM     38  C5  GCU B   3       4.894  27.043  -0.0960  0.00  0.00     0.000 C
ATOM     39  O5  GCU B   3       4.482  26.277   1.0410  0.00  0.00     0.000 O
ATOM     40   O  GCU B   3       7.735  25.057   2.2210  0.00  0.00     0.000 O
ATOM     42  HD  GCU B   3       8.593  25.151   2.3000  0.00  0.00     0.000 HD
ATOM     42   O  GCU B   3       8.150  25.223  -0.6360  0.00  0.00     0.000 O
ATOM     44  HD  GCU B   3       9.007  25.317  -0.5570  0.00  0.00     0.000 HD
BRANCH 38 44
ATOM     44   C  GCU B   3       3.679  27.338  -0.9400  0.00  0.00     0.000 C
ATOM     45   O  GCU B   3       3.479  28.507  -1.3040  0.00  0.00     0.000 OA
ATOM     46   O  GCU B   3       2.907  26.413  -1.2570  0.00  0.00     0.000 OA
ENDBRANCH 38 44
BRANCH 34 47
ATOM     47  O3  NAG B   4       4.993  25.252   2.9080  0.00  0.00     0.000 O
BRANCH 47 50
ATOM     48  C1  NAG B   4       3.088  22.181   3.7430  0.00  0.00     0.000 C
ATOM     49  C2  NAG B   4       3.425  23.483   3.0230  0.00  0.00     0.000 C
ATOM     50  C3  NAG B   4       4.885  23.862   3.2090  0.00  0.00     0.000 C
ATOM     51  C4  NAG B   4       5.414  23.605   4.6250  0.00  0.00     0.000 C
ATOM     52  C5  NAG B   4       5.295  22.137   4.9990  0.00  0.00     0.000 C
ATOM     53  O5  NAG B   4       4.051  21.524   4.5930  0.00  0.00     0.000 O
BRANCH 49 56
ATOM     54   N  NAG B   4       3.600  23.017   1.6360  0.00  0.00     0.000 N
ATOM     56  HD  NAG B   4       4.324  22.676   1.3050  0.00  0.00     0.000 HD
ATOM     56   C  NAG B   4       3.078  22.578  -0.6930  0.00  0.00     0.000 C
ATOM     57   O  NAG B   4       1.720  23.887   0.7010  0.00  0.00     0.000 OA
ATOM     58   C  NAG B   4       2.745  23.226   0.6150  0.00  0.00     0.000 C
ENDBRANCH 49 56
ATOM     59   O  NAG B   4       5.762  20.622   6.8920  0.00  0.00     0.000 O
ATOM     61  HD  NAG B   4       5.203  21.134   6.4730  0.00  0.00     0.000 HD
ATOM     61   O  NAG B   4       5.762  20.622   6.8920  0.00  0.00     0.000 O
ATOM     63  HD  NAG B   4       5.203  21.134   6.4730  0.00  0.00     0.000 HD
ENDBRANCH 47 50
ENDBRANCH 34 47
ENDBRANCH 33 37
ENDBRANCH 17 33
ENDBRANCH 16 19
ENDBRANCH 1 16
TORSDOF 10
ENDMDL
MODEL 73
REMARK VINA RESULT:      -7.7      6.947     11.900
ROOT
ATOM      1  C1  GCU B   1       4.803  29.489  -6.6680  0.00  0.00     0.000 C
ATOM      2  C2  GCU B   1       3.443  29.632  -6.0010  0.00  0.00     0.000 C
ATOM      3  C3  GCU B   1       2.456  28.634  -6.5870  0.00  0.00     0.000 C
ATOM      4  C4  GCU B   1       2.448  28.732  -8.1050  0.00  0.00     0.000 C
ATOM      5  C5  GCU B   1       3.866  28.638  -8.6700  0.00  0.00     0.000 C
ATOM      6  O5  GCU B   1       4.673  29.670  -8.0870  0.00  0.00     0.000 O
ATOM      7   O  GCU B   1       3.619  29.407  -4.6060  0.00  0.00     0.000 O
ATOM      9  HD  GCU B   1       3.358  29.931  -3.9680  0.00  0.00     0.000 HD
ATOM      9   O  GCU B   1       1.140  28.870  -6.0800  0.00  0.00     0.000 O
ATOM     11  HD  GCU B   1       0.879  29.393  -5.4410  0.00  0.00     0.000 HD
ATOM     11   O  GCU B   1       1.647  27.674  -8.6310  0.00  0.00     0.000 O
ATOM     13  HD  GCU B   1       1.385  28.197  -7.9930  0.00  0.00     0.000 HD
ENDROOT
BRANCH 5 13
ATOM     13   C  GCU B   1       3.826  28.724 -10.1770  0.00  0.00     0.000 C
ATOM     14   O  GCU B   1       4.663  28.107 -10.8670  0.00  0.00     0.000 OA
ATOM     15   O  GCU B   1       2.916  29.406 -10.6880  0.00  0.00     0.000 OA
ENDBRANCH 5 13
BRANCH 1 16
ATOM     16  O3  NAG B   2       5.750  30.421  -6.7930  0.00  0.00     0.000 O
BRANCH 16 19
ATOM     17  C1  NAG B   2       9.151  30.780  -5.2020  0.00  0.00     0.000 C
ATOM     18  C2  NAG B   2       7.637  30.620  -5.2590  0.00  0.00     0.000 C
ATOM     19  C3  NAG B   2       7.182  30.392  -6.6990  0.00  0.00     0.000 C
ATOM     20  C4  NAG B   2       7.740  31.483  -7.6130  0.00  0.00     0.000 C
ATOM     21  C5  NAG B   2       9.255  31.546  -7.4750  0.00  0.00     0.000 C
ATOM     22  O5  NAG B   2       9.586  31.813  -6.1000  0.00  0.00     0.000 O
ATOM     23   O  NAG B   2       7.354  31.185  -8.9590  0.00  0.00     0.000 O
ATOM     25  HD  NAG B   2       6.997  31.883  -8.5910  0.00  0.00     0.000 HD
ATOM     25   C  NAG B   2       9.885  32.608  -8.3740  0.00  0.00     0.000 C
ATOM     26   O  NAG B   2       9.633  33.934  -7.8860  0.00  0.00     0.000 O
ATOM     28  HD  NAG B   2       9.275  34.632  -7.5180  0.00  0.00     0.000 HD
BRANCH 18 30
ATOM     28   N  NAG B   2       7.485  29.631  -4.2090  0.00  0.00     0.000 N
ATOM     30  HD  NAG B   2       6.823  30.171  -4.0680  0.00  0.00     0.000 HD
ATOM     30   C  NAG B   2       6.581  29.720  -3.2250  0.00  0.00     0.000 C
ATOM     31   C  NAG B   2       6.577  28.637  -2.1830  0.00  0.00     0.000 C
ATOM     32   O  NAG B   2       5.790  30.639  -3.1640  0.00  0.00     0.000 OA
ENDBRANCH 18 30
BRANCH 17 33
ATOM     33  O4  GCU B   3       9.512  31.027  -3.8280  0.00  0.00     0.000 O
BRANCH 33 37
ATOM     34  C1  GCU B   3      13.072  30.218  -1.8280  0.00  0.00     0.000 C
ATOM     35  C2  GCU B   3      12.861  31.637  -2.3560  0.00  0.00     0.000 C
ATOM     36  C3  GCU B   3      11.393  31.854  -2.6550  0.00  0.00     0.000 C
ATOM     37  C4  GCU B   3      10.901  30.775  -3.6090  0.00  0.00     0.000 C
ATOM     38  C5  GCU B   3      11.150  29.395  -2.9970  0.00  0.00     0.000 C
ATOM     39  O5  GCU B   3      12.552  29.254  -2.7480  0.00  0.00     0.000 O
ATOM     40   O  GCU B   3      13.308  32.569  -1.3690  0.00  0.00     0.000 O
ATOM     42  HD  GCU B   3      13.064  33.281  -0.9390  0.00  0.00     0.000 HD
ATOM     42   O  GCU B   3      11.167  33.157  -3.2220  0.00  0.00     0.000 O
ATOM     44  HD  GCU B   3      10.924  33.869  -2.7930  0.00  0.00     0.000 HD
BRANCH 38 44
ATOM     44   C  GCU B   3      10.709  28.270  -3.9000  0.00  0.00     0.000 C
ATOM     45   O  GCU B   3      11.392  28.011  -4.9020  0.00  0.00     0.000 OA
ATOM     46   O  GCU B   3       9.679  27.626  -3.6260  0.00  0.00     0.000 OA
ENDBRANCH 38 44
BRANCH 34 47
ATOM     47  O3  NAG B   4      14.374  29.973  -1.7680  0.00  0.00     0.000 O
BRANCH 47 50
ATOM     48  C1  NAG B   4      17.784  29.099  -0.6020  0.00  0.00     0.000 C
ATOM     49  C2  NAG B   4      16.673  29.950  -1.2070  0.00  0.00     0.000 C
ATOM     50  C3  NAG B   4      15.298  29.423  -0.8310  0.00  0.00     0.000 C
ATOM     51  C4  NAG B   4      15.196  27.894  -0.8530  0.00  0.00     0.000 C
ATOM     52  C5  NAG B   4      16.183  27.262   0.1150  0.00  0.00     0.000 C
ATOM     53  O5  NAG B   4      17.490  27.877   0.1090  0.00  0.00     0.000 O
BRANCH 49 56
ATOM     54   N  NAG B   4      16.850  31.046  -0.2380  0.00  0.00     0.000 N
ATOM     56  HD  NAG B   4      16.956  30.953   0.6170  0.00  0.00     0.000 HD
ATOM     56   C  NAG B   4      17.007  33.309   0.6240  0.00  0.00     0.000 C
ATOM     57   O  NAG B   4      16.296  32.814  -1.5550  0.00  0.00     0.000 OA
ATOM     58   C  NAG B   4      16.679  32.360  -0.4870  0.00  0.00     0.000 C
ENDBRANCH 49 56
ATOM     59   O  NAG B   4      16.914  25.034   0.8880  0.00  0.00     0.000 O
ATOM     61  HD  NAG B   4      17.019  25.702   0.3460  0.00  0.00     0.000 HD
ATOM     61   O  NAG B   4      16.914  25.034   0.8880  0.00  0.00     0.000 O
ATOM     63  HD  NAG B   4      17.019  25.702   0.3460  0.00  0.00     0.000 HD
ENDBRANCH 47 50
ENDBRANCH 34 47
ENDBRANCH 33 37
ENDBRANCH 17 33
ENDBRANCH 16 19
ENDBRANCH 1 16
TORSDOF 10
ENDMDL
MODEL 74
REMARK VINA RESULT:      -7.7     30.017     33.551
ROOT
ATOM      1  C1  GCU B   1     -14.038  50.388   7.8340  0.00  0.00     0.000 C
ATOM      2  C2  GCU B   1     -12.712  49.820   8.3160  0.00  0.00     0.000 C
ATOM      3  C3  GCU B   1     -12.655  49.820   9.8360  0.00  0.00     0.000 C
ATOM      4  C4  GCU B   1     -13.004  51.199  10.3750  0.00  0.00     0.000 C
ATOM      5  C5  GCU B   1     -14.321  51.703   9.7830  0.00  0.00     0.000 C
ATOM      6  O5  GCU B   1     -14.219  51.715   8.3530  0.00  0.00     0.000 O
ATOM      7   O  GCU B   1     -12.598  48.495   7.8070  0.00  0.00     0.000 O
ATOM      9  HD  GCU B   1     -11.928  48.175   7.3620  0.00  0.00     0.000 HD
ATOM      9   O  GCU B   1     -11.355  49.438  10.2920  0.00  0.00     0.000 O
ATOM     11  HD  GCU B   1     -10.685  49.117   9.8470  0.00  0.00     0.000 HD
ATOM     11   O  GCU B   1     -13.111  51.125  11.7970  0.00  0.00     0.000 O
ATOM     13  HD  GCU B   1     -12.440  50.804  11.3520  0.00  0.00     0.000 HD
ENDROOT
BRANCH 5 13
ATOM     13   C  GCU B   1     -14.649  53.066  10.3460  0.00  0.00     0.000 C
ATOM     14   O  GCU B   1     -15.139  53.175  11.4880  0.00  0.00     0.000 OA
ATOM     15   O  GCU B   1     -14.385  54.057   9.6390  0.00  0.00     0.000 OA
ENDBRANCH 5 13
BRANCH 1 16
ATOM     16  O3  NAG B   2     -14.292  50.979   6.6640  0.00  0.00     0.000 O
BRANCH 16 19
ATOM     17  C1  NAG B   2     -16.798  50.247   3.9420  0.00  0.00     0.000 C
ATOM     18  C2  NAG B   2     -15.646  49.975   4.9010  0.00  0.00     0.000 C
ATOM     19  C3  NAG B   2     -15.482  51.138   5.8770  0.00  0.00     0.000 C
ATOM     20  C4  NAG B   2     -15.376  52.460   5.1160  0.00  0.00     0.000 C
ATOM     21  C5  NAG B   2     -16.579  52.624   4.1980  0.00  0.00     0.000 C
ATOM     22  O5  NAG B   2     -16.623  51.513   3.2860  0.00  0.00     0.000 O
ATOM     23   O  NAG B   2     -15.303  53.525   6.0710  0.00  0.00     0.000 O
ATOM     25  HD  NAG B   2     -14.594  53.367   5.6000  0.00  0.00     0.000 HD
ATOM     25   C  NAG B   2     -16.548  53.935   3.4150  0.00  0.00     0.000 C
ATOM     26   O  NAG B   2     -15.563  53.907   2.3710  0.00  0.00     0.000 O
ATOM     28  HD  NAG B   2     -14.853  53.750   1.9000  0.00  0.00     0.000 HD
BRANCH 18 30
ATOM     28   N  NAG B   2     -14.873  48.757   4.7450  0.00  0.00     0.000 N
ATOM     30  HD  NAG B   2     -15.555  48.500   5.2130  0.00  0.00     0.000 HD
ATOM     30   C  NAG B   2     -15.172  47.601   5.3510  0.00  0.00     0.000 C
ATOM     31   C  NAG B   2     -14.248  46.437   5.1260  0.00  0.00     0.000 C
ATOM     32   O  NAG B   2     -16.149  47.485   6.0630  0.00  0.00     0.000 OA
ENDBRANCH 18 30
BRANCH 17 33
ATOM     33  O4  GCU B   3     -16.878  49.135   3.0280  0.00  0.00     0.000 O
BRANCH 33 37
ATOM     34  C1  GCU B   3     -20.005  48.011   0.5210  0.00  0.00     0.000 C
ATOM     35  C2  GCU B   3     -18.820  48.744  -0.1080  0.00  0.00     0.000 C
ATOM     36  C3  GCU B   3     -17.633  48.688   0.8310  0.00  0.00     0.000 C
ATOM     37  C4  GCU B   3     -18.031  49.239   2.1920  0.00  0.00     0.000 C
ATOM     38  C5  GCU B   3     -19.219  48.445   2.7410  0.00  0.00     0.000 C
ATOM     39  O5  GCU B   3     -20.303  48.547   1.8130  0.00  0.00     0.000 O
ATOM     40   O  GCU B   3     -18.496  48.120  -1.3520  0.00  0.00     0.000 O
ATOM     42  HD  GCU B   3     -17.831  47.797  -1.8040  0.00  0.00     0.000 HD
ATOM     42   O  GCU B   3     -16.519  49.430   0.3030  0.00  0.00     0.000 O
ATOM     44  HD  GCU B   3     -15.855  49.107  -0.1490  0.00  0.00     0.000 HD
BRANCH 38 44
ATOM     44   C  GCU B   3     -19.687  48.952   4.0820  0.00  0.00     0.000 C
ATOM     45   O  GCU B   3     -20.346  50.002   4.1230  0.00  0.00     0.000 OA
ATOM     46   O  GCU B   3     -19.411  48.312   5.1150  0.00  0.00     0.000 OA
ENDBRANCH 38 44
BRANCH 34 47
ATOM     47  O3  NAG B   4     -21.087  48.244  -0.2090  0.00  0.00     0.000 O
BRANCH 47 50
ATOM     48  C1  NAG B   4     -23.743  45.743   0.4610  0.00  0.00     0.000 C
ATOM     49  C2  NAG B   4     -22.714  46.827   0.7650  0.00  0.00     0.000 C
ATOM     50  C3  NAG B   4     -22.327  47.596  -0.4880  0.00  0.00     0.000 C
ATOM     51  C4  NAG B   4     -22.173  46.713  -1.7310  0.00  0.00     0.000 C
ATOM     52  C5  NAG B   4     -23.466  45.982  -2.0520  0.00  0.00     0.000 C
ATOM     53  O5  NAG B   4     -24.144  45.449  -0.8930  0.00  0.00     0.000 O
BRANCH 49 56
ATOM     54   N  NAG B   4     -23.553  47.912   1.3030  0.00  0.00     0.000 N
ATOM     56  HD  NAG B   4     -23.960  48.517   0.8350  0.00  0.00     0.000 HD
ATOM     56   C  NAG B   4     -24.652  49.334   2.9350  0.00  0.00     0.000 C
ATOM     57   O  NAG B   4     -23.028  47.742   3.5080  0.00  0.00     0.000 OA
ATOM     58   C  NAG B   4     -23.664  48.259   2.6010  0.00  0.00     0.000 C
ENDBRANCH 49 56
ATOM     59   O  NAG B   4     -24.375  44.372  -3.6880  0.00  0.00     0.000 O
ATOM     61  HD  NAG B   4     -23.995  44.517  -2.9230  0.00  0.00     0.000 HD
ATOM     61   O  NAG B   4     -24.375  44.372  -3.6880  0.00  0.00     0.000 O
ATOM     63  HD  NAG B   4     -23.995  44.517  -2.9230  0.00  0.00     0.000 HD
ENDBRANCH 47 50
ENDBRANCH 34 47
ENDBRANCH 33 37
ENDBRANCH 17 33
ENDBRANCH 16 19
ENDBRANCH 1 16
TORSDOF 10
ENDMDL
MODEL 75
REMARK VINA RESULT:      -7.6     13.751     18.400
ROOT
ATOM      1  C1  GCU B   1       8.686  46.219 -13.0210  0.00  0.00     0.000 C
ATOM      2  C2  GCU B   1       8.624  46.581 -11.5450  0.00  0.00     0.000 C
ATOM      3  C3  GCU B   1       7.476  47.544 -11.2820  0.00  0.00     0.000 C
ATOM      4  C4  GCU B   1       7.553  48.726 -12.2360  0.00  0.00     0.000 C
ATOM      5  C5  GCU B   1       7.674  48.254 -13.6860  0.00  0.00     0.000 C
ATOM      6  O5  GCU B   1       8.827  47.410 -13.8110  0.00  0.00     0.000 O
ATOM      7   O  GCU B   1       8.448  45.374 -10.8100  0.00  0.00     0.000 O
ATOM      9  HD  GCU B   1       8.932  45.106 -10.1440  0.00  0.00     0.000 HD
ATOM      9   O  GCU B   1       7.510  48.011  -9.9310  0.00  0.00     0.000 O
ATOM     11  HD  GCU B   1       7.994  47.743  -9.2640  0.00  0.00     0.000 HD
ATOM     11   O  GCU B   1       6.375  49.519 -12.0830  0.00  0.00     0.000 O
ATOM     13  HD  GCU B   1       6.860  49.252 -11.4170  0.00  0.00     0.000 HD
ENDROOT
BRANCH 5 13
ATOM     13   C  GCU B   1       7.734  49.446 -14.6110  0.00  0.00     0.000 C
ATOM     14   O  GCU B   1       7.112  49.437 -15.6940  0.00  0.00     0.000 OA
ATOM     15   O  GCU B   1       8.397  50.431 -14.2350  0.00  0.00     0.000 OA
ENDBRANCH 5 13
BRANCH 1 16
ATOM     16  O3  NAG B   2       9.754  45.820 -13.7160  0.00  0.00     0.000 O
BRANCH 16 19
ATOM     17  C1  NAG B   2      10.277  42.963 -16.1220  0.00  0.00     0.000 C
ATOM     18  C2  NAG B   2       9.911  43.645 -14.8100  0.00  0.00     0.000 C
ATOM     19  C3  NAG B   2       9.918  45.163 -14.9820  0.00  0.00     0.000 C
ATOM     20  C4  NAG B   2      11.243  45.624 -15.5890  0.00  0.00     0.000 C
ATOM     21  C5  NAG B   2      11.499  44.881 -16.8920  0.00  0.00     0.000 C
ATOM     22  O5  NAG B   2      11.525  43.467 -16.6250  0.00  0.00     0.000 O
ATOM     23   O  NAG B   2      11.173  47.038 -15.8030  0.00  0.00     0.000 O
ATOM     25  HD  NAG B   2      11.720  46.757 -15.1930  0.00  0.00     0.000 HD
ATOM     25   C  NAG B   2      12.803  45.304 -17.5660  0.00  0.00     0.000 C
ATOM     26   O  NAG B   2      13.950  44.791 -16.8700  0.00  0.00     0.000 O
ATOM     28  HD  NAG B   2      14.497  44.510 -16.2600  0.00  0.00     0.000 HD
BRANCH 18 30
ATOM     28   N  NAG B   2       9.654  42.560 -13.8820  0.00  0.00     0.000 N
ATOM     30  HD  NAG B   2       8.871  42.912 -13.9970  0.00  0.00     0.000 HD
ATOM     30   C  NAG B   2       8.469  42.344 -13.2970  0.00  0.00     0.000 C
ATOM     31   C  NAG B   2       8.370  41.204 -12.3220  0.00  0.00     0.000 C
ATOM     32   O  NAG B   2       7.501  43.038 -13.5360  0.00  0.00     0.000 OA
ENDBRANCH 18 30
BRANCH 17 33
ATOM     33  O4  GCU B   3      10.289  41.541 -15.8860  0.00  0.00     0.000 O
BRANCH 33 37
ATOM     34  C1  GCU B   3       9.481  38.342 -18.4250  0.00  0.00     0.000 C
ATOM     35  C2  GCU B   3      10.850  39.013 -18.5420  0.00  0.00     0.000 C
ATOM     36  C3  GCU B   3      11.121  39.834 -17.2990  0.00  0.00     0.000 C
ATOM     37  C4  GCU B   3       9.981  40.819 -17.0790  0.00  0.00     0.000 C
ATOM     38  C5  GCU B   3       8.657  40.059 -16.9720  0.00  0.00     0.000 C
ATOM     39  O5  GCU B   3       8.461  39.314 -18.1780  0.00  0.00     0.000 O
ATOM     40   O  GCU B   3      11.850  38.003 -18.6940  0.00  0.00     0.000 O
ATOM     42  HD  GCU B   3      12.614  37.743 -18.3800  0.00  0.00     0.000 HD
ATOM     42   O  GCU B   3      12.370  40.539 -17.4060  0.00  0.00     0.000 O
ATOM     44  HD  GCU B   3      13.135  40.280 -17.0920  0.00  0.00     0.000 HD
BRANCH 38 44
ATOM     44   C  GCU B   3       7.475  40.975 -16.7780  0.00  0.00     0.000 C
ATOM     45   O  GCU B   3       6.750  40.806 -15.7860  0.00  0.00     0.000 OA
ATOM     46   O  GCU B   3       7.250  41.878 -17.6070  0.00  0.00     0.000 OA
ENDBRANCH 38 44
BRANCH 34 47
ATOM     47  O3  NAG B   4       9.170  37.800 -19.5940  0.00  0.00     0.000 O
BRANCH 47 50
ATOM     48  C1  NAG B   4       8.624  38.489 -23.1970  0.00  0.00     0.000 C
ATOM     49  C2  NAG B   4       8.531  38.698 -21.6890  0.00  0.00     0.000 C
ATOM     50  C3  NAG B   4       9.599  37.907 -20.9500  0.00  0.00     0.000 C
ATOM     51  C4  NAG B   4       9.834  36.504 -21.5220  0.00  0.00     0.000 C
ATOM     52  C5  NAG B   4      10.269  36.567 -22.9770  0.00  0.00     0.000 C
ATOM     53  O5  NAG B   4       9.543  37.533 -23.7680  0.00  0.00     0.000 O
BRANCH 49 56
ATOM     54   N  NAG B   4       9.208  40.002 -21.5830  0.00  0.00     0.000 N
ATOM     56  HD  NAG B   4      10.060  40.137 -21.6580  0.00  0.00     0.000 HD
ATOM     56   C  NAG B   4       9.498  42.385 -21.2250  0.00  0.00     0.000 C
ATOM     57   O  NAG B   4       7.500  41.251 -20.7530  0.00  0.00     0.000 OA
ATOM     58   C  NAG B   4       8.648  41.153 -21.1610  0.00  0.00     0.000 C
ENDBRANCH 49 56
ATOM     59   O  NAG B   4      10.875  35.064 -24.8380  0.00  0.00     0.000 O
ATOM     61  HD  NAG B   4      10.268  35.519 -24.4210  0.00  0.00     0.000 HD
ATOM     61   O  NAG B   4      10.875  35.064 -24.8380  0.00  0.00     0.000 O
ATOM     63  HD  NAG B   4      10.268  35.519 -24.4210  0.00  0.00     0.000 HD
ENDBRANCH 47 50
ENDBRANCH 34 47
ENDBRANCH 33 37
ENDBRANCH 17 33
ENDBRANCH 16 19
ENDBRANCH 1 16
TORSDOF 10
ENDMDL
MODEL 76
REMARK VINA RESULT:      -7.6      6.662     16.692
ROOT
ATOM      1  C1  GCU B   1      -5.710  23.194   3.4510  0.00  0.00     0.000 C
ATOM      2  C2  GCU B   1      -5.978  22.598   4.8250  0.00  0.00     0.000 C
ATOM      3  C3  GCU B   1      -7.026  21.500   4.7320  0.00  0.00     0.000 C
ATOM      4  C4  GCU B   1      -8.255  22.007   3.9950  0.00  0.00     0.000 C
ATOM      5  C5  GCU B   1      -7.871  22.641   2.6560  0.00  0.00     0.000 C
ATOM      6  O5  GCU B   1      -6.932  23.699   2.8900  0.00  0.00     0.000 O
ATOM      7   O  GCU B   1      -4.747  22.081   5.3190  0.00  0.00     0.000 O
ATOM      9  HD  GCU B   1      -4.391  22.258   6.0890  0.00  0.00     0.000 HD
ATOM      9   O  GCU B   1      -7.397  21.047   6.0370  0.00  0.00     0.000 O
ATOM     11  HD  GCU B   1      -7.041  21.223   6.8060  0.00  0.00     0.000 HD
ATOM     11   O  GCU B   1      -9.145  20.912   3.7730  0.00  0.00     0.000 O
ATOM     13  HD  GCU B   1      -8.789  21.089   4.5430  0.00  0.00     0.000 HD
ENDROOT
BRANCH 5 13
ATOM     13   C  GCU B   1      -9.111  23.122   1.9410  0.00  0.00     0.000 C
ATOM     14   O  GCU B   1     -10.161  23.345   2.5780  0.00  0.00     0.000 OA
ATOM     15   O  GCU B   1      -9.028  23.309   0.7120  0.00  0.00     0.000 OA
ENDBRANCH 5 13
BRANCH 1 16
ATOM     16  O3  NAG B   2      -5.258  24.418   3.1700  0.00  0.00     0.000 O
BRANCH 16 19
ATOM     17  C1  NAG B   2      -2.749  25.183   0.4590  0.00  0.00     0.000 C
ATOM     18  C2  NAG B   2      -3.389  24.405   1.6020  0.00  0.00     0.000 C
ATOM     19  C3  NAG B   2      -4.732  25.027   1.9810  0.00  0.00     0.000 C
ATOM     20  C4  NAG B   2      -4.569  26.524   2.2440  0.00  0.00     0.000 C
ATOM     21  C5  NAG B   2      -3.927  27.193   1.0380  0.00  0.00     0.000 C
ATOM     22  O5  NAG B   2      -2.651  26.578   0.7880  0.00  0.00     0.000 O
ATOM     23   O  NAG B   2      -5.862  27.076   2.5180  0.00  0.00     0.000 O
ATOM     25  HD  NAG B   2      -5.296  27.050   3.1740  0.00  0.00     0.000 HD
ATOM     25   C  NAG B   2      -3.748  28.699   1.2240  0.00  0.00     0.000 C
ATOM     26   O  NAG B   2      -2.687  28.996   2.1450  0.00  0.00     0.000 O
ATOM     28  HD  NAG B   2      -2.122  28.970   2.8010  0.00  0.00     0.000 HD
BRANCH 18 30
ATOM     28   N  NAG B   2      -3.193  23.083   1.0370  0.00  0.00     0.000 N
ATOM     30  HD  NAG B   2      -3.071  22.955   1.8840  0.00  0.00     0.000 HD
ATOM     30   C  NAG B   2      -2.781  22.023   1.7430  0.00  0.00     0.000 C
ATOM     31   C  NAG B   2      -2.582  20.729   1.0040  0.00  0.00     0.000 C
ATOM     32   O  NAG B   2      -2.570  22.092   2.9370  0.00  0.00     0.000 OA
ENDBRANCH 18 30
BRANCH 17 33
ATOM     33  O4  GCU B   3      -1.475  24.571   0.1750  0.00  0.00     0.000 O
BRANCH 33 37
ATOM     34  C1  GCU B   3       1.005  24.934  -3.1500  0.00  0.00     0.000 C
ATOM     35  C2  GCU B   3       1.235  25.896  -1.9840  0.00  0.00     0.000 C
ATOM     36  C3  GCU B   3       0.561  25.357  -0.7400  0.00  0.00     0.000 C
ATOM     37  C4  GCU B   3      -0.910  25.097  -1.0280  0.00  0.00     0.000 C
ATOM     38  C5  GCU B   3      -1.042  24.125  -2.2030  0.00  0.00     0.000 C
ATOM     39  O5  GCU B   3      -0.393  24.698  -3.3430  0.00  0.00     0.000 O
ATOM     40   O  GCU B   3       2.641  26.031  -1.7660  0.00  0.00     0.000 O
ATOM     42  HD  GCU B   3       3.243  26.001  -1.1440  0.00  0.00     0.000 HD
ATOM     42   O  GCU B   3       0.696  26.273   0.3610  0.00  0.00     0.000 O
ATOM     44  HD  GCU B   3       1.299  26.243   0.9820  0.00  0.00     0.000 HD
BRANCH 38 44
ATOM     44   C  GCU B   3      -2.478  23.839  -2.5630  0.00  0.00     0.000 C
ATOM     45   O  GCU B   3      -3.079  24.644  -3.2900  0.00  0.00     0.000 OA
ATOM     46   O  GCU B   3      -3.029  22.807  -2.1330  0.00  0.00     0.000 OA
ENDBRANCH 38 44
BRANCH 34 47
ATOM     47  O3  NAG B   4       1.417  25.512  -4.2690  0.00  0.00     0.000 O
BRANCH 47 50
ATOM     48  C1  NAG B   4       1.126  27.936  -7.0610  0.00  0.00     0.000 C
ATOM     49  C2  NAG B   4       0.759  26.748  -6.1780  0.00  0.00     0.000 C
ATOM     50  C3  NAG B   4       1.448  26.826  -4.8250  0.00  0.00     0.000 C
ATOM     51  C4  NAG B   4       2.899  27.314  -4.8980  0.00  0.00     0.000 C
ATOM     52  C5  NAG B   4       2.983  28.703  -5.5080  0.00  0.00     0.000 C
ATOM     53  O5  NAG B   4       2.120  28.898  -6.6500  0.00  0.00     0.000 O
BRANCH 49 56
ATOM     54   N  NAG B   4      -0.561  27.199  -5.7050  0.00  0.00     0.000 N
ATOM     56  HD  NAG B   4      -0.703  27.822  -5.1200  0.00  0.00     0.000 HD
ATOM     56   C  NAG B   4      -2.974  27.279  -5.4480  0.00  0.00     0.000 C
ATOM     57   O  NAG B   4      -1.859  25.540  -6.5590  0.00  0.00     0.000 OA
ATOM     58   C  NAG B   4      -1.740  26.592  -5.9480  0.00  0.00     0.000 C
ENDBRANCH 49 56
ATOM     59   O  NAG B   4       4.665  30.403  -6.1210  0.00  0.00     0.000 O
ATOM     61  HD  NAG B   4       4.178  29.725  -6.3520  0.00  0.00     0.000 HD
ATOM     61   O  NAG B   4       4.665  30.403  -6.1210  0.00  0.00     0.000 O
ATOM     63  HD  NAG B   4       4.178  29.725  -6.3520  0.00  0.00     0.000 HD
ENDBRANCH 47 50
ENDBRANCH 34 47
ENDBRANCH 33 37
ENDBRANCH 17 33
ENDBRANCH 16 19
ENDBRANCH 1 16
TORSDOF 10
ENDMDL
MODEL 77
REMARK VINA RESULT:      -7.6     12.947     18.063
ROOT
ATOM      1  C1  GCU B   1      -7.665  24.841   2.5500  0.00  0.00     0.000 C
ATOM      2  C2  GCU B   1      -9.110  25.195   2.8680  0.00  0.00     0.000 C
ATOM      3  C3  GCU B   1      -9.932  23.933   3.0810  0.00  0.00     0.000 C
ATOM      4  C4  GCU B   1      -9.740  22.978   1.9130  0.00  0.00     0.000 C
ATOM      5  C5  GCU B   1      -8.255  22.736   1.6380  0.00  0.00     0.000 C
ATOM      6  O5  GCU B   1      -7.613  23.994   1.3910  0.00  0.00     0.000 O
ATOM      7   O  GCU B   1      -9.110  26.001   4.0420  0.00  0.00     0.000 O
ATOM      9  HD  GCU B   1      -9.494  26.772   4.1320  0.00  0.00     0.000 HD
ATOM      9   O  GCU B   1     -11.319  24.252   3.2220  0.00  0.00     0.000 O
ATOM     11  HD  GCU B   1     -11.703  25.023   3.3120  0.00  0.00     0.000 HD
ATOM     11   O  GCU B   1     -10.383  21.739   2.2190  0.00  0.00     0.000 O
ATOM     13  HD  GCU B   1     -10.766  22.510   2.3100  0.00  0.00     0.000 HD
ENDROOT
BRANCH 5 13
ATOM     13   C  GCU B   1      -8.096  21.775   0.4850  0.00  0.00     0.000 C
ATOM     14   O  GCU B   1      -8.139  22.188  -0.6920  0.00  0.00     0.000 OA
ATOM     15   O  GCU B   1      -7.894  20.577   0.7600  0.00  0.00     0.000 OA
ENDBRANCH 5 13
BRANCH 1 16
ATOM     16  O3  NAG B   2      -6.781  25.569   1.8650  0.00  0.00     0.000 O
BRANCH 16 19
ATOM     17  C1  NAG B   2      -3.070  24.919   1.6850  0.00  0.00     0.000 C
ATOM     18  C2  NAG B   2      -4.445  25.042   2.3300  0.00  0.00     0.000 C
ATOM     19  C3  NAG B   2      -5.513  25.271   1.2620  0.00  0.00     0.000 C
ATOM     20  C4  NAG B   2      -5.125  26.446   0.3650  0.00  0.00     0.000 C
ATOM     21  C5  NAG B   2      -3.742  26.211  -0.2240  0.00  0.00     0.000 C
ATOM     22  O5  NAG B   2      -2.798  26.056   0.8510  0.00  0.00     0.000 O
ATOM     23   O  NAG B   2      -6.112  26.574  -0.6640  0.00  0.00     0.000 O
ATOM     25  HD  NAG B   2      -6.075  27.205  -0.0720  0.00  0.00     0.000 HD
ATOM     25   C  NAG B   2      -3.293  27.342  -1.1480  0.00  0.00     0.000 C
ATOM     26   O  NAG B   2      -2.944  28.523  -0.4090  0.00  0.00     0.000 O
ATOM     28  HD  NAG B   2      -2.907  29.154   0.1830  0.00  0.00     0.000 HD
BRANCH 18 30
ATOM     28   N  NAG B   2      -4.295  23.891   3.1990  0.00  0.00     0.000 N
ATOM     30  HD  NAG B   2      -4.784  24.430   3.6680  0.00  0.00     0.000 HD
ATOM     30   C  NAG B   2      -4.733  23.848   4.4630  0.00  0.00     0.000 C
ATOM     31   C  NAG B   2      -4.462  22.598   5.2530  0.00  0.00     0.000 C
ATOM     32   O  NAG B   2      -5.328  24.780   4.9670  0.00  0.00     0.000 OA
ENDBRANCH 18 30
BRANCH 17 33
ATOM     33  O4  GCU B   3      -2.107  24.741   2.7420  0.00  0.00     0.000 O
BRANCH 33 37
ATOM     34  C1  GCU B   3       1.732  23.130   2.6820  0.00  0.00     0.000 C
ATOM     35  C2  GCU B   3       1.575  24.604   2.3080  0.00  0.00     0.000 C
ATOM     36  C3  GCU B   3       0.231  25.109   2.7890  0.00  0.00     0.000 C
ATOM     37  C4  GCU B   3      -0.876  24.223   2.2340  0.00  0.00     0.000 C
ATOM     38  C5  GCU B   3      -0.637  22.774   2.6600  0.00  0.00     0.000 C
ATOM     39  O5  GCU B   3       0.642  22.359   2.1690  0.00  0.00     0.000 O
ATOM     40   O  GCU B   3       2.630  25.352   2.9170  0.00  0.00     0.000 O
ATOM     42  HD  GCU B   3       2.781  26.056   3.3980  0.00  0.00     0.000 HD
ATOM     42   O  GCU B   3       0.018  26.475   2.3900  0.00  0.00     0.000 O
ATOM     44  HD  GCU B   3       0.169  27.180   2.8700  0.00  0.00     0.000 HD
BRANCH 38 44
ATOM     44   C  GCU B   3      -1.684  21.830   2.1250  0.00  0.00     0.000 C
ATOM     45   O  GCU B   3      -2.486  21.318   2.9210  0.00  0.00     0.000 OA
ATOM     46   O  GCU B   3      -1.729  21.584   0.9040  0.00  0.00     0.000 OA
ENDBRANCH 38 44
BRANCH 34 47
ATOM     47  O3  NAG B   4       2.811  22.650   2.0810  0.00  0.00     0.000 O
BRANCH 47 50
ATOM     48  C1  NAG B   4       4.508  19.538   3.1750  0.00  0.00     0.000 C
ATOM     49  C2  NAG B   4       3.546  20.420   2.3860  0.00  0.00     0.000 C
ATOM     50  C3  NAG B   4       3.959  21.882   2.4370  0.00  0.00     0.000 C
ATOM     51  C4  NAG B   4       4.467  22.333   3.8110  0.00  0.00     0.000 C
ATOM     52  C5  NAG B   4       5.678  21.523   4.2440  0.00  0.00     0.000 C
ATOM     53  O5  NAG B   4       5.573  20.109   3.9650  0.00  0.00     0.000 O
BRANCH 49 56
ATOM     54   N  NAG B   4       4.081  20.021   1.0730  0.00  0.00     0.000 N
ATOM     56  HD  NAG B   4       4.919  19.991   0.8560  0.00  0.00     0.000 HD
ATOM     56   C  NAG B   4       4.102  19.334  -1.2550  0.00  0.00     0.000 C
ATOM     57   O  NAG B   4       2.159  20.027  -0.1400  0.00  0.00     0.000 OA
ATOM     58   C  NAG B   4       3.362  19.834  -0.0520  0.00  0.00     0.000 C
ENDBRANCH 49 56
ATOM     59   O  NAG B   4       7.246  21.328   6.1410  0.00  0.00     0.000 O
ATOM     61  HD  NAG B   4       6.516  21.069   5.7530  0.00  0.00     0.000 HD
ATOM     61   O  NAG B   4       7.246  21.328   6.1410  0.00  0.00     0.000 O
ATOM     63  HD  NAG B   4       6.516  21.069   5.7530  0.00  0.00     0.000 HD
ENDBRANCH 47 50
ENDBRANCH 34 47
ENDBRANCH 33 37
ENDBRANCH 17 33
ENDBRANCH 16 19
ENDBRANCH 1 16
TORSDOF 10
ENDMDL
MODEL 78
REMARK VINA RESULT:      -7.6     24.082     28.915
ROOT
ATOM      1  C1  GCU B   1      -6.394  53.628  -3.4260  0.00  0.00     0.000 C
ATOM      2  C2  GCU B   1      -7.481  54.022  -4.4140  0.00  0.00     0.000 C
ATOM      3  C3  GCU B   1      -7.885  52.829  -5.2650  0.00  0.00     0.000 C
ATOM      4  C4  GCU B   1      -6.654  52.181  -5.8800  0.00  0.00     0.000 C
ATOM      5  C5  GCU B   1      -5.599  51.881  -4.8130  0.00  0.00     0.000 C
ATOM      6  O5  GCU B   1      -5.261  53.096  -4.1310  0.00  0.00     0.000 O
ATOM      7   O  GCU B   1      -8.591  54.507  -3.6650  0.00  0.00     0.000 O
ATOM      9  HD  GCU B   1      -8.996  55.263  -3.7830  0.00  0.00     0.000 HD
ATOM      9   O  GCU B   1      -8.788  53.229  -6.2990  0.00  0.00     0.000 O
ATOM     11  HD  GCU B   1      -9.193  53.985  -6.4170  0.00  0.00     0.000 HD
ATOM     11   O  GCU B   1      -7.044  50.970  -6.5290  0.00  0.00     0.000 O
ATOM     13  HD  GCU B   1      -7.449  51.726  -6.6470  0.00  0.00     0.000 HD
ENDROOT
BRANCH 5 13
ATOM     13   C  GCU B   1      -4.396  51.227  -5.4500  0.00  0.00     0.000 C
ATOM     14   O  GCU B   1      -3.853  51.741  -6.4490  0.00  0.00     0.000 OA
ATOM     15   O  GCU B   1      -3.963  50.184  -4.9220  0.00  0.00     0.000 OA
ENDBRANCH 5 13
BRANCH 1 16
ATOM     16  O3  NAG B   2      -5.476  54.419  -2.8670  0.00  0.00     0.000 O
BRANCH 16 19
ATOM     17  C1  NAG B   2      -4.314  54.856   0.6950  0.00  0.00     0.000 C
ATOM     18  C2  NAG B   2      -5.297  54.828  -0.4680  0.00  0.00     0.000 C
ATOM     19  C3  NAG B   2      -4.619  54.282  -1.7230  0.00  0.00     0.000 C
ATOM     20  C4  NAG B   2      -3.325  55.047  -2.0040  0.00  0.00     0.000 C
ATOM     21  C5  NAG B   2      -2.424  55.002  -0.7780  0.00  0.00     0.000 C
ATOM     22  O5  NAG B   2      -3.126  55.580   0.3370  0.00  0.00     0.000 O
ATOM     23   O  NAG B   2      -2.687  54.452  -3.1390  0.00  0.00     0.000 O
ATOM     25  HD  NAG B   2      -3.007  55.250  -3.2390  0.00  0.00     0.000 HD
ATOM     25   C  NAG B   2      -1.101  55.735  -0.9920  0.00  0.00     0.000 C
ATOM     26   O  NAG B   2      -1.279  57.160  -0.9990  0.00  0.00     0.000 O
ATOM     28  HD  NAG B   2      -1.598  57.959  -1.0990  0.00  0.00     0.000 HD
BRANCH 18 30
ATOM     28   N  NAG B   2      -6.377  54.285   0.3350  0.00  0.00     0.000 N
ATOM     30  HD  NAG B   2      -6.793  54.722  -0.2860  0.00  0.00     0.000 HD
ATOM     30   C  NAG B   2      -7.669  54.580   0.1460  0.00  0.00     0.000 C
ATOM     31   C  NAG B   2      -8.668  53.972   1.0900  0.00  0.00     0.000 C
ATOM     32   O  NAG B   2      -8.034  55.313  -0.7510  0.00  0.00     0.000 OA
ENDBRANCH 18 30
BRANCH 17 33
ATOM     33  O4  GCU B   3      -5.001  55.412   1.8340  0.00  0.00     0.000 O
BRANCH 33 37
ATOM     34  C1  GCU B   3      -4.028  55.405   5.8820  0.00  0.00     0.000 C
ATOM     35  C2  GCU B   3      -3.316  56.417   4.9830  0.00  0.00     0.000 C
ATOM     36  C3  GCU B   3      -4.080  56.566   3.6840  0.00  0.00     0.000 C
ATOM     37  C4  GCU B   3      -4.258  55.200   3.0360  0.00  0.00     0.000 C
ATOM     38  C5  GCU B   3      -4.978  54.260   4.0050  0.00  0.00     0.000 C
ATOM     39  O5  GCU B   3      -4.201  54.158   5.2020  0.00  0.00     0.000 O
ATOM     40   O  GCU B   3      -3.247  57.672   5.6620  0.00  0.00     0.000 O
ATOM     42  HD  GCU B   3      -3.407  58.517   5.5570  0.00  0.00     0.000 HD
ATOM     42   O  GCU B   3      -3.400  57.457   2.7820  0.00  0.00     0.000 O
ATOM     44  HD  GCU B   3      -3.559  58.301   2.6780  0.00  0.00     0.000 HD
BRANCH 38 44
ATOM     44   C  GCU B   3      -5.168  52.875   3.4390  0.00  0.00     0.000 C
ATOM     45   O  GCU B   3      -6.281  52.565   2.9870  0.00  0.00     0.000 OA
ATOM     46   O  GCU B   3      -4.213  52.074   3.4310  0.00  0.00     0.000 OA
ENDBRANCH 38 44
BRANCH 34 47
ATOM     47  O3  NAG B   4      -3.247  55.131   6.9170  0.00  0.00     0.000 O
BRANCH 47 50
ATOM     48  C1  NAG B   4      -2.501  54.799  10.5350  0.00  0.00     0.000 C
ATOM     49  C2  NAG B   4      -2.855  55.492   9.2240  0.00  0.00     0.000 C
ATOM     50  C3  NAG B   4      -3.372  54.503   8.1920  0.00  0.00     0.000 C
ATOM     51  C4  NAG B   4      -2.614  53.170   8.1800  0.00  0.00     0.000 C
ATOM     52  C5  NAG B   4      -2.699  52.476   9.5290  0.00  0.00     0.000 C
ATOM     53  O5  NAG B   4      -2.541  53.362  10.6590  0.00  0.00     0.000 O
BRANCH 49 56
ATOM     54   N  NAG B   4      -4.121  56.052   9.7270  0.00  0.00     0.000 N
ATOM     56  HD  NAG B   4      -4.735  55.613  10.1520  0.00  0.00     0.000 HD
ATOM     56   C  NAG B   4      -5.879  57.674  10.1410  0.00  0.00     0.000 C
ATOM     57   O  NAG B   4      -4.097  58.063   8.6670  0.00  0.00     0.000 OA
ATOM     58   C  NAG B   4      -4.618  57.272   9.4390  0.00  0.00     0.000 C
ENDBRANCH 49 56
ATOM     59   O  NAG B   4      -1.911  50.425  10.6550  0.00  0.00     0.000 O
ATOM     61  HD  NAG B   4      -1.789  51.262  10.4700  0.00  0.00     0.000 HD
ATOM     61   O  NAG B   4      -1.911  50.425  10.6550  0.00  0.00     0.000 O
ATOM     63  HD  NAG B   4      -1.789  51.262  10.4700  0.00  0.00     0.000 HD
ENDBRANCH 47 50
ENDBRANCH 34 47
ENDBRANCH 33 37
ENDBRANCH 17 33
ENDBRANCH 16 19
ENDBRANCH 1 16
TORSDOF 10
ENDMDL
MODEL 79
REMARK VINA RESULT:      -7.6      6.276     10.690
ROOT
ATOM      1  C1  GCU B   1      10.864  41.222 -11.6360  0.00  0.00     0.000 C
ATOM      2  C2  GCU B   1      11.678  42.465 -11.3130  0.00  0.00     0.000 C
ATOM      3  C3  GCU B   1      10.760  43.634 -10.9910  0.00  0.00     0.000 C
ATOM      4  C4  GCU B   1       9.724  43.806 -12.0910  0.00  0.00     0.000 C
ATOM      5  C5  GCU B   1       9.005  42.488 -12.3810  0.00  0.00     0.000 C
ATOM      6  O5  GCU B   1       9.975  41.492 -12.7320  0.00  0.00     0.000 O
ATOM      7   O  GCU B   1      12.513  42.158 -10.2010  0.00  0.00     0.000 O
ATOM      9  HD  GCU B   1      13.370  42.274 -10.1580  0.00  0.00     0.000 HD
ATOM      9   O  GCU B   1      11.513  44.841 -10.8430  0.00  0.00     0.000 O
ATOM     11  HD  GCU B   1      12.370  44.956 -10.8000  0.00  0.00     0.000 HD
ATOM     11   O  GCU B   1       8.776  44.793 -11.6820  0.00  0.00     0.000 O
ATOM     13  HD  GCU B   1       9.633  44.909 -11.6390  0.00  0.00     0.000 HD
ENDROOT
BRANCH 5 13
ATOM     13   C  GCU B   1       7.974  42.692 -13.4650  0.00  0.00     0.000 C
ATOM     14   O  GCU B   1       7.052  41.865 -13.6230  0.00  0.00     0.000 OA
ATOM     15   O  GCU B   1       8.071  43.720 -14.1630  0.00  0.00     0.000 OA
ENDBRANCH 5 13
BRANCH 1 16
ATOM     16  O3  NAG B   2      11.229  40.184 -12.3920  0.00  0.00     0.000 O
BRANCH 16 19
ATOM     17  C1  NAG B   2      10.812  36.445 -12.1270  0.00  0.00     0.000 C
ATOM     18  C2  NAG B   2      11.286  37.837 -11.7290  0.00  0.00     0.000 C
ATOM     19  C3  NAG B   2      10.654  38.891 -12.6360  0.00  0.00     0.000 C
ATOM     20  C4  NAG B   2      10.887  38.537 -14.1050  0.00  0.00     0.000 C
ATOM     21  C5  NAG B   2      10.373  37.133 -14.3850  0.00  0.00     0.000 C
ATOM     22  O5  NAG B   2      11.056  36.206 -13.5220  0.00  0.00     0.000 O
ATOM     23   O  NAG B   2      10.214  39.507 -14.9150  0.00  0.00     0.000 O
ATOM     25  HD  NAG B   2      11.080  39.511 -14.9320  0.00  0.00     0.000 HD
ATOM     25   C  NAG B   2      10.558  36.716 -15.8420  0.00  0.00     0.000 C
ATOM     26   O  NAG B   2      11.934  36.436 -16.1430  0.00  0.00     0.000 O
ATOM     28  HD  NAG B   2      12.800  36.440 -16.1600  0.00  0.00     0.000 HD
BRANCH 18 30
ATOM     28   N  NAG B   2      12.087  37.539 -10.5570  0.00  0.00     0.000 N
ATOM     30  HD  NAG B   2      11.473  38.065 -10.2470  0.00  0.00     0.000 HD
ATOM     30   C  NAG B   2      11.906  38.116  -9.3630  0.00  0.00     0.000 C
ATOM     31   C  NAG B   2      12.848  37.736  -8.2550  0.00  0.00     0.000 C
ATOM     32   O  NAG B   2      11.019  38.922  -9.1690  0.00  0.00     0.000 OA
ENDBRANCH 18 30
BRANCH 17 33
ATOM     33  O4  GCU B   3      11.468  35.497 -11.2610  0.00  0.00     0.000 O
BRANCH 33 37
ATOM     34  C1  GCU B   3      10.136  31.905  -9.6300  0.00  0.00     0.000 C
ATOM     35  C2  GCU B   3      10.533  31.910 -11.1070  0.00  0.00     0.000 C
ATOM     36  C3  GCU B   3      11.370  33.136 -11.4030  0.00  0.00     0.000 C
ATOM     37  C4  GCU B   3      10.615  34.387 -10.9750  0.00  0.00     0.000 C
ATOM     38  C5  GCU B   3      10.264  34.293  -9.4890  0.00  0.00     0.000 C
ATOM     39  O5  GCU B   3       9.469  33.122  -9.2820  0.00  0.00     0.000 O
ATOM     40   O  GCU B   3      11.277  30.723 -11.3910  0.00  0.00     0.000 O
ATOM     42  HD  GCU B   3      12.009  30.446 -11.7600  0.00  0.00     0.000 HD
ATOM     42   O  GCU B   3      11.702  33.212 -12.8010  0.00  0.00     0.000 O
ATOM     44  HD  GCU B   3      12.435  32.935 -13.1700  0.00  0.00     0.000 HD
BRANCH 38 44
ATOM     44   C  GCU B   3       9.490  35.490  -8.9970  0.00  0.00     0.000 C
ATOM     45   O  GCU B   3       9.692  35.895  -7.8430  0.00  0.00     0.000 OA
ATOM     46   O  GCU B   3       8.670  36.048  -9.7520  0.00  0.00     0.000 OA
ENDBRANCH 38 44
BRANCH 34 47
ATOM     47  O3  NAG B   4       9.240  30.948  -9.4320  0.00  0.00     0.000 O
BRANCH 47 50
ATOM     48  C1  NAG B   4       5.645  30.156  -9.8800  0.00  0.00     0.000 C
ATOM     49  C2  NAG B   4       6.877  30.996  -9.5600  0.00  0.00     0.000 C
ATOM     50  C3  NAG B   4       8.140  30.376 -10.1360  0.00  0.00     0.000 C
ATOM     51  C4  NAG B   4       8.192  28.849 -10.0080  0.00  0.00     0.000 C
ATOM     52  C5  NAG B   4       7.021  28.195 -10.7230  0.00  0.00     0.000 C
ATOM     53  O5  NAG B   4       5.760  28.872 -10.5290  0.00  0.00     0.000 O
BRANCH 49 56
ATOM     54   N  NAG B   4       6.605  32.365 -10.0300  0.00  0.00     0.000 N
ATOM     56  HD  NAG B   4       6.354  33.030  -9.5350  0.00  0.00     0.000 HD
ATOM     56   C  NAG B   4       6.323  34.221 -11.5690  0.00  0.00     0.000 C
ATOM     57   O  NAG B   4       6.584  32.000 -12.2740  0.00  0.00     0.000 OA
ATOM     58   C  NAG B   4       6.509  32.756 -11.3170  0.00  0.00     0.000 C
ENDBRANCH 49 56
ATOM     59   O  NAG B   4       6.084  25.954 -11.1640  0.00  0.00     0.000 O
ATOM     61  HD  NAG B   4       6.104  26.665 -10.6690  0.00  0.00     0.000 HD
ATOM     61   O  NAG B   4       6.084  25.954 -11.1640  0.00  0.00     0.000 O
ATOM     63  HD  NAG B   4       6.104  26.665 -10.6690  0.00  0.00     0.000 HD
ENDBRANCH 47 50
ENDBRANCH 34 47
ENDBRANCH 33 37
ENDBRANCH 17 33
ENDBRANCH 16 19
ENDBRANCH 1 16
TORSDOF 10
ENDMDL
MODEL 80
REMARK VINA RESULT:      -7.6     13.433     15.852
ROOT
ATOM      1  C1  GCU B   1       4.438  18.874   2.3290  0.00  0.00     0.000 C
ATOM      2  C2  GCU B   1       4.906  17.906   1.2530  0.00  0.00     0.000 C
ATOM      3  C3  GCU B   1       5.393  16.609   1.8790  0.00  0.00     0.000 C
ATOM      4  C4  GCU B   1       6.408  16.901   2.9730  0.00  0.00     0.000 C
ATOM      5  C5  GCU B   1       5.864  17.929   3.9670  0.00  0.00     0.000 C
ATOM      6  O5  GCU B   1       5.504  19.123   3.2590  0.00  0.00     0.000 O
ATOM      7   O  GCU B   1       3.806  17.665   0.3810  0.00  0.00     0.000 O
ATOM      9  HD  GCU B   1       3.812  17.742  -0.4820  0.00  0.00     0.000 HD
ATOM      9   O  GCU B   1       5.980  15.760   0.8890  0.00  0.00     0.000 O
ATOM     11  HD  GCU B   1       5.985  15.838   0.0260  0.00  0.00     0.000 HD
ATOM     11   O  GCU B   1       6.715  15.685   3.6550  0.00  0.00     0.000 O
ATOM     13  HD  GCU B   1       6.721  15.762   2.7920  0.00  0.00     0.000 HD
ENDROOT
BRANCH 5 13
ATOM     13   C  GCU B   1       6.886  18.189   5.0480  0.00  0.00     0.000 C
ATOM     14   O  GCU B   1       6.978  17.421   6.0280  0.00  0.00     0.000 OA
ATOM     15   O  GCU B   1       7.637  19.172   4.9020  0.00  0.00     0.000 OA
ENDBRANCH 5 13
BRANCH 1 16
ATOM     16  O3  NAG B   2       4.395  20.206   2.2620  0.00  0.00     0.000 O
BRANCH 16 19
ATOM     17  C1  NAG B   2       1.551  22.681   2.3820  0.00  0.00     0.000 C
ATOM     18  C2  NAG B   2       2.364  21.500   1.8680  0.00  0.00     0.000 C
ATOM     19  C3  NAG B   2       3.517  21.195   2.8220  0.00  0.00     0.000 C
ATOM     20  C4  NAG B   2       4.334  22.459   3.0910  0.00  0.00     0.000 C
ATOM     21  C5  NAG B   2       3.421  23.564   3.6020  0.00  0.00     0.000 C
ATOM     22  O5  NAG B   2       2.400  23.815   2.6200  0.00  0.00     0.000 O
ATOM     23   O  NAG B   2       5.352  22.143   4.0470  0.00  0.00     0.000 O
ATOM     25  HD  NAG B   2       5.611  22.326   3.2410  0.00  0.00     0.000 HD
ATOM     25   C  NAG B   2       4.174  24.857   3.9080  0.00  0.00     0.000 C
ATOM     26   O  NAG B   2       4.575  25.534   2.7070  0.00  0.00     0.000 O
ATOM     28  HD  NAG B   2       4.834  25.717   1.9000  0.00  0.00     0.000 HD
BRANCH 18 30
ATOM     28   N  NAG B   2       1.222  20.657   1.5710  0.00  0.00     0.000 N
ATOM     30  HD  NAG B   2       1.791  20.441   0.9550  0.00  0.00     0.000 HD
ATOM     30   C  NAG B   2       1.132  19.876   0.4870  0.00  0.00     0.000 C
ATOM     31   C  NAG B   2      -0.137  19.093   0.2950  0.00  0.00     0.000 C
ATOM     32   O  NAG B   2       2.035  19.796  -0.3210  0.00  0.00     0.000 OA
ENDBRANCH 18 30
BRANCH 17 33
ATOM     33  O4  GCU B   3       0.506  22.940   1.4230  0.00  0.00     0.000 O
BRANCH 33 37
ATOM     34  C1  GCU B   3      -3.179  24.827   1.8690  0.00  0.00     0.000 C
ATOM     35  C2  GCU B   3      -1.961  25.706   1.5810  0.00  0.00     0.000 C
ATOM     36  C3  GCU B   3      -0.835  24.852   1.0380  0.00  0.00     0.000 C
ATOM     37  C4  GCU B   3      -0.545  23.713   2.0060  0.00  0.00     0.000 C
ATOM     38  C5  GCU B   3      -1.815  22.891   2.2290  0.00  0.00     0.000 C
ATOM     39  O5  GCU B   3      -2.831  23.754   2.7490  0.00  0.00     0.000 O
ATOM     40   O  GCU B   3      -2.326  26.706   0.6280  0.00  0.00     0.000 O
ATOM     42  HD  GCU B   3      -2.075  27.064  -0.1190  0.00  0.00     0.000 HD
ATOM     42   O  GCU B   3       0.352  25.635   0.8240  0.00  0.00     0.000 O
ATOM     44  HD  GCU B   3       0.604  25.993   0.0770  0.00  0.00     0.000 HD
BRANCH 38 44
ATOM     44   C  GCU B   3      -1.610  21.755   3.2010  0.00  0.00     0.000 C
ATOM     45   O  GCU B   3      -1.639  20.593   2.7700  0.00  0.00     0.000 OA
ATOM     46   O  GCU B   3      -1.413  22.002   4.4060  0.00  0.00     0.000 OA
ENDBRANCH 38 44
BRANCH 34 47
ATOM     47  O3  NAG B   4      -4.076  25.543   2.5310  0.00  0.00     0.000 O
BRANCH 47 50
ATOM     48  C1  NAG B   4      -7.065  27.731   2.7110  0.00  0.00     0.000 C
ATOM     49  C2  NAG B   4      -5.655  27.295   2.3280  0.00  0.00     0.000 C
ATOM     50  C3  NAG B   4      -5.479  25.791   2.4660  0.00  0.00     0.000 C
ATOM     51  C4  NAG B   4      -6.159  25.202   3.7070  0.00  0.00     0.000 C
ATOM     52  C5  NAG B   4      -7.655  25.465   3.6930  0.00  0.00     0.000 C
ATOM     53  O5  NAG B   4      -8.016  26.796   3.2630  0.00  0.00     0.000 O
BRANCH 49 56
ATOM     54   N  NAG B   4      -5.689  27.247   0.8560  0.00  0.00     0.000 N
ATOM     56  HD  NAG B   4      -5.864  26.547   0.3770  0.00  0.00     0.000 HD
ATOM     56   C  NAG B   4      -5.483  27.994  -1.4440  0.00  0.00     0.000 C
ATOM     57   O  NAG B   4      -4.737  29.257   0.3860  0.00  0.00     0.000 OA
ATOM     58   C  NAG B   4      -5.264  28.216   0.0210  0.00  0.00     0.000 C
ENDBRANCH 49 56
ATOM     59   O  NAG B   4      -9.663  25.050   5.0690  0.00  0.00     0.000 O
ATOM     61  HD  NAG B   4      -9.007  25.573   4.8540  0.00  0.00     0.000 HD
ATOM     61   O  NAG B   4      -9.663  25.050   5.0690  0.00  0.00     0.000 O
ATOM     63  HD  NAG B   4      -9.007  25.573   4.8540  0.00  0.00     0.000 HD
ENDBRANCH 47 50
ENDBRANCH 34 47
ENDBRANCH 33 37
ENDBRANCH 17 33
ENDBRANCH 16 19
ENDBRANCH 1 16
TORSDOF 10
ENDMDL
MODEL 81
REMARK VINA RESULT:      -7.6     20.430     25.814
ROOT
ATOM      1  C1  GCU B   1     -17.135  16.878   0.1550  0.00  0.00     0.000 C
ATOM      2  C2  GCU B   1     -17.834  16.132  -0.9710  0.00  0.00     0.000 C
ATOM      3  C3  GCU B   1     -19.098  16.866  -1.3910  0.00  0.00     0.000 C
ATOM      4  C4  GCU B   1     -19.962  17.162  -0.1750  0.00  0.00     0.000 C
ATOM      5  C5  GCU B   1     -19.151  17.857   0.9200  0.00  0.00     0.000 C
ATOM      6  O5  GCU B   1     -18.030  17.034   1.2680  0.00  0.00     0.000 O
ATOM      7   O  GCU B   1     -16.920  16.036  -2.0590  0.00  0.00     0.000 O
ATOM      9  HD  GCU B   1     -16.698  15.311  -2.4770  0.00  0.00     0.000 HD
ATOM      9   O  GCU B   1     -19.840  16.090  -2.3350  0.00  0.00     0.000 O
ATOM     11  HD  GCU B   1     -19.618  15.365  -2.7530  0.00  0.00     0.000 HD
ATOM     11   O  GCU B   1     -21.050  17.996  -0.5740  0.00  0.00     0.000 O
ATOM     13  HD  GCU B   1     -20.827  17.271  -0.9920  0.00  0.00     0.000 HD
ENDROOT
BRANCH 5 13
ATOM     13   C  GCU B   1     -20.037  18.151   2.1070  0.00  0.00     0.000 C
ATOM     14   O  GCU B   1     -21.063  17.470   2.3130  0.00  0.00     0.000 OA
ATOM     15   O  GCU B   1     -19.685  19.069   2.8720  0.00  0.00     0.000 OA
ENDBRANCH 5 13
BRANCH 1 16
ATOM     16  O3  NAG B   2     -16.319  16.372   1.0830  0.00  0.00     0.000 O
BRANCH 16 19
ATOM     17  C1  NAG B   2     -12.910  17.288   2.4100  0.00  0.00     0.000 C
ATOM     18  C2  NAG B   2     -13.945  16.846   1.3840  0.00  0.00     0.000 C
ATOM     19  C3  NAG B   2     -15.351  16.954   1.9700  0.00  0.00     0.000 C
ATOM     20  C4  NAG B   2     -15.429  16.219   3.3070  0.00  0.00     0.000 C
ATOM     21  C5  NAG B   2     -14.355  16.745   4.2480  0.00  0.00     0.000 C
ATOM     22  O5  NAG B   2     -13.067  16.557   3.6370  0.00  0.00     0.000 O
ATOM     23   O  NAG B   2     -16.738  16.413   3.8530  0.00  0.00     0.000 O
ATOM     25  HD  NAG B   2     -16.534  15.612   3.5940  0.00  0.00     0.000 HD
ATOM     25   C  NAG B   2     -14.383  16.065   5.6150  0.00  0.00     0.000 C
ATOM     26   O  NAG B   2     -13.882  14.721   5.5490  0.00  0.00     0.000 O
ATOM     28  HD  NAG B   2     -13.677  13.920   5.2900  0.00  0.00     0.000 HD
BRANCH 18 30
ATOM     28   N  NAG B   2     -13.225  17.509   0.3130  0.00  0.00     0.000 N
ATOM     30  HD  NAG B   2     -13.734  16.949  -0.1080  0.00  0.00     0.000 HD
ATOM     30   C  NAG B   2     -13.308  17.152  -0.9740  0.00  0.00     0.000 C
ATOM     31   C  NAG B   2     -12.464  17.908  -1.9630  0.00  0.00     0.000 C
ATOM     32   O  NAG B   2     -14.032  16.249  -1.3440  0.00  0.00     0.000 OA
ENDBRANCH 18 30
BRANCH 17 33
ATOM     33  O4  GCU B   3     -11.607  17.129   1.8120  0.00  0.00     0.000 O
BRANCH 33 37
ATOM     34  C1  GCU B   3      -7.820  18.141   3.2120  0.00  0.00     0.000 C
ATOM     35  C2  GCU B   3      -8.440  16.840   3.7230  0.00  0.00     0.000 C
ATOM     36  C3  GCU B   3      -9.579  16.431   2.8120  0.00  0.00     0.000 C
ATOM     37  C4  GCU B   3     -10.578  17.573   2.6970  0.00  0.00     0.000 C
ATOM     38  C5  GCU B   3      -9.869  18.827   2.1790  0.00  0.00     0.000 C
ATOM     39  O5  GCU B   3      -8.814  19.161   3.0870  0.00  0.00     0.000 O
ATOM     40   O  GCU B   3      -7.435  15.825   3.7440  0.00  0.00     0.000 O
ATOM     42  HD  GCU B   3      -7.279  15.010   3.4940  0.00  0.00     0.000 HD
ATOM     42   O  GCU B   3     -10.234  15.248   3.3030  0.00  0.00     0.000 O
ATOM     44  HD  GCU B   3     -10.078  14.433   3.0530  0.00  0.00     0.000 HD
BRANCH 38 44
ATOM     44   C  GCU B   3     -10.794  20.012   2.0630  0.00  0.00     0.000 C
ATOM     45   O  GCU B   3     -10.761  20.880   2.9480  0.00  0.00     0.000 OA
ATOM     46   O  GCU B   3     -11.566  20.100   1.0890  0.00  0.00     0.000 OA
ENDBRANCH 38 44
BRANCH 34 47
ATOM     47  O3  NAG B   4      -6.970  18.595   4.1230  0.00  0.00     0.000 O
BRANCH 47 50
ATOM     48  C1  NAG B   4      -5.572  20.965   6.6110  0.00  0.00     0.000 C
ATOM     49  C2  NAG B   4      -5.923  20.402   5.2370  0.00  0.00     0.000 C
ATOM     50  C3  NAG B   4      -7.026  19.360   5.3250  0.00  0.00     0.000 C
ATOM     51  C4  NAG B   4      -6.896  18.424   6.5320  0.00  0.00     0.000 C
ATOM     52  C5  NAG B   4      -6.925  19.200   7.8380  0.00  0.00     0.000 C
ATOM     53  O5  NAG B   4      -6.157  20.424   7.8140  0.00  0.00     0.000 O
BRANCH 49 56
ATOM     54   N  NAG B   4      -6.244  21.539   4.3570  0.00  0.00     0.000 N
ATOM     56  HD  NAG B   4      -5.720  21.877   3.7560  0.00  0.00     0.000 HD
ATOM     56   C  NAG B   4      -7.494  23.391   3.4080  0.00  0.00     0.000 C
ATOM     57   O  NAG B   4      -8.134  22.287   5.3750  0.00  0.00     0.000 OA
ATOM     58   C  NAG B   4      -7.311  22.355   4.4740  0.00  0.00     0.000 C
ENDBRANCH 49 56
ATOM     59   O  NAG B   4      -6.784  18.816  10.2730  0.00  0.00     0.000 O
ATOM     61  HD  NAG B   4      -6.384  19.001   9.5270  0.00  0.00     0.000 HD
ATOM     61   O  NAG B   4      -6.784  18.816  10.2730  0.00  0.00     0.000 O
ATOM     63  HD  NAG B   4      -6.384  19.001   9.5270  0.00  0.00     0.000 HD
ENDBRANCH 47 50
ENDBRANCH 34 47
ENDBRANCH 33 37
ENDBRANCH 17 33
ENDBRANCH 16 19
ENDBRANCH 1 16
TORSDOF 10
ENDMDL
MODEL 82
REMARK VINA RESULT:      -7.6     11.157     16.260
ROOT
ATOM      1  C1  GCU B   1      -4.413  26.937   1.2330  0.00  0.00     0.000 C
ATOM      2  C2  GCU B   1      -5.139  28.244   1.5120  0.00  0.00     0.000 C
ATOM      3  C3  GCU B   1      -6.412  27.987   2.3040  0.00  0.00     0.000 C
ATOM      4  C4  GCU B   1      -7.247  26.914   1.6230  0.00  0.00     0.000 C
ATOM      5  C5  GCU B   1      -6.409  25.667   1.3320  0.00  0.00     0.000 C
ATOM      6  O5  GCU B   1      -5.281  26.036   0.5280  0.00  0.00     0.000 O
ATOM      7   O  GCU B   1      -4.252  29.085   2.2420  0.00  0.00     0.000 O
ATOM      9  HD  GCU B   1      -4.040  29.901   2.0420  0.00  0.00     0.000 HD
ATOM      9   O  GCU B   1      -7.178  29.188   2.4310  0.00  0.00     0.000 O
ATOM     11  HD  GCU B   1      -6.966  30.003   2.2310  0.00  0.00     0.000 HD
ATOM     11   O  GCU B   1      -8.343  26.573   2.4720  0.00  0.00     0.000 O
ATOM     13  HD  GCU B   1      -8.131  27.388   2.2720  0.00  0.00     0.000 HD
ENDROOT
BRANCH 5 13
ATOM     13   C  GCU B   1      -7.266  24.615   0.6690  0.00  0.00     0.000 C
ATOM     14   O  GCU B   1      -6.940  23.412   0.7200  0.00  0.00     0.000 OA
ATOM     15   O  GCU B   1      -8.310  24.997   0.1050  0.00  0.00     0.000 OA
ENDBRANCH 5 13
BRANCH 1 16
ATOM     16  O3  NAG B   2      -3.576  26.670   0.2280  0.00  0.00     0.000 O
BRANCH 16 19
ATOM     17  C1  NAG B   2      -0.407  24.626   0.1750  0.00  0.00     0.000 C
ATOM     18  C2  NAG B   2      -1.377  25.701   0.6480  0.00  0.00     0.000 C
ATOM     19  C3  NAG B   2      -2.717  25.560  -0.0720  0.00  0.00     0.000 C
ATOM     20  C4  NAG B   2      -2.505  25.517  -1.5850  0.00  0.00     0.000 C
ATOM     21  C5  NAG B   2      -1.525  24.408  -1.9380  0.00  0.00     0.000 C
ATOM     22  O5  NAG B   2      -0.282  24.650  -1.2560  0.00  0.00     0.000 O
ATOM     23   O  NAG B   2      -3.775  25.307  -2.2130  0.00  0.00     0.000 O
ATOM     25  HD  NAG B   2      -3.399  26.078  -2.3310  0.00  0.00     0.000 HD
ATOM     25   C  NAG B   2      -1.277  24.296  -3.4410  0.00  0.00     0.000 C
ATOM     26   O  NAG B   2      -0.465  25.376  -3.9270  0.00  0.00     0.000 O
ATOM     28  HD  NAG B   2      -0.089  26.147  -4.0450  0.00  0.00     0.000 HD
BRANCH 18 30
ATOM     28   N  NAG B   2      -0.814  25.613   1.9820  0.00  0.00     0.000 N
ATOM     30  HD  NAG B   2      -1.339  26.300   2.0340  0.00  0.00     0.000 HD
ATOM     30   C  NAG B   2      -1.022  26.524   2.9410  0.00  0.00     0.000 C
ATOM     31   C  NAG B   2      -0.332  26.317   4.2600  0.00  0.00     0.000 C
ATOM     32   O  NAG B   2      -1.738  27.489   2.7640  0.00  0.00     0.000 OA
ENDBRANCH 18 30
BRANCH 17 33
ATOM     33  O4  GCU B   3       0.844  24.835   0.8620  0.00  0.00     0.000 O
BRANCH 33 37
ATOM     34  C1  GCU B   3       4.160  22.359   1.3110  0.00  0.00     0.000 C
ATOM     35  C2  GCU B   3       3.996  23.090  -0.0220  0.00  0.00     0.000 C
ATOM     36  C3  GCU B   3       3.017  24.233   0.1450  0.00  0.00     0.000 C
ATOM     37  C4  GCU B   3       1.707  23.706   0.7110  0.00  0.00     0.000 C
ATOM     38  C5  GCU B   3       1.969  22.995   2.0400  0.00  0.00     0.000 C
ATOM     39  O5  GCU B   3       2.892  21.926   1.8100  0.00  0.00     0.000 O
ATOM     40   O  GCU B   3       5.270  23.587  -0.4380  0.00  0.00     0.000 O
ATOM     42  HD  GCU B   3       5.667  24.303  -0.7210  0.00  0.00     0.000 HD
ATOM     42   O  GCU B   3       2.782  24.900  -1.1090  0.00  0.00     0.000 O
ATOM     44  HD  GCU B   3       3.179  25.616  -1.3910  0.00  0.00     0.000 HD
BRANCH 38 44
ATOM     44   C  GCU B   3       0.715  22.422   2.6510  0.00  0.00     0.000 C
ATOM     45   O  GCU B   3       0.150  21.481   2.0740  0.00  0.00     0.000 OA
ATOM     46   O  GCU B   3       0.274  22.896   3.7150  0.00  0.00     0.000 OA
ENDBRANCH 38 44
BRANCH 34 47
ATOM     47  O3  NAG B   4       4.851  21.246   1.1050  0.00  0.00     0.000 O
BRANCH 47 50
ATOM     48  C1  NAG B   4       8.435  21.717   1.9370  0.00  0.00     0.000 C
ATOM     49  C2  NAG B   4       6.923  21.885   2.0540  0.00  0.00     0.000 C
ATOM     50  C3  NAG B   4       6.181  20.778   1.3240  0.00  0.00     0.000 C
ATOM     51  C4  NAG B   4       6.812  20.392  -0.0180  0.00  0.00     0.000 C
ATOM     52  C5  NAG B   4       8.242  19.910   0.1640  0.00  0.00     0.000 C
ATOM     53  O5  NAG B   4       9.013  20.692   1.1020  0.00  0.00     0.000 O
BRANCH 49 56
ATOM     54   N  NAG B   4       6.759  21.345   3.4150  0.00  0.00     0.000 N
ATOM     56  HD  NAG B   4       6.879  20.520   3.6490  0.00  0.00     0.000 HD
ATOM     56   C  NAG B   4       6.231  21.284   5.7830  0.00  0.00     0.000 C
ATOM     57   O  NAG B   4       5.719  23.109   4.4020  0.00  0.00     0.000 OA
ATOM     58   C  NAG B   4       6.209  21.991   4.4630  0.00  0.00     0.000 C
ENDBRANCH 49 56
ATOM     59   O  NAG B   4      10.150  19.096  -1.1750  0.00  0.00     0.000 O
ATOM     61  HD  NAG B   4       9.737  19.758  -0.7990  0.00  0.00     0.000 HD
ATOM     61   O  NAG B   4      10.150  19.096  -1.1750  0.00  0.00     0.000 O
ATOM     63  HD  NAG B   4       9.737  19.758  -0.7990  0.00  0.00     0.000 HD
ENDBRANCH 47 50
ENDBRANCH 34 47
ENDBRANCH 33 37
ENDBRANCH 17 33
ENDBRANCH 16 19
ENDBRANCH 1 16
TORSDOF 10
ENDMDL
MODEL 83
REMARK VINA RESULT:      -7.5      8.232     18.490
ROOT
ATOM      1  C1  GCU B   1      -5.774  21.577   5.6590  0.00  0.00     0.000 C
ATOM      2  C2  GCU B   1      -5.934  21.048   7.0760  0.00  0.00     0.000 C
ATOM      3  C3  GCU B   1      -6.090  19.535   7.0640  0.00  0.00     0.000 C
ATOM      4  C4  GCU B   1      -7.187  19.127   6.0930  0.00  0.00     0.000 C
ATOM      5  C5  GCU B   1      -6.966  19.760   4.7170  0.00  0.00     0.000 C
ATOM      6  O5  GCU B   1      -6.902  21.185   4.8610  0.00  0.00     0.000 O
ATOM      7   O  GCU B   1      -4.778  21.430   7.8140  0.00  0.00     0.000 O
ATOM      9  HD  GCU B   1      -4.771  21.845   8.5740  0.00  0.00     0.000 HD
ATOM      9   O  GCU B   1      -6.399  19.050   8.3730  0.00  0.00     0.000 O
ATOM     11  HD  GCU B   1      -6.392  19.465   9.1330  0.00  0.00     0.000 HD
ATOM     11   O  GCU B   1      -7.193  17.704   5.9750  0.00  0.00     0.000 O
ATOM     13  HD  GCU B   1      -7.186  18.119   6.7350  0.00  0.00     0.000 HD
ENDROOT
BRANCH 5 13
ATOM     13   C  GCU B   1      -8.060  19.327   3.7710  0.00  0.00     0.000 C
ATOM     14   O  GCU B   1      -8.109  18.150   3.3590  0.00  0.00     0.000 OA
ATOM     15   O  GCU B   1      -8.912  20.178   3.4500  0.00  0.00     0.000 OA
ENDBRANCH 5 13
BRANCH 1 16
ATOM     16  O3  NAG B   2      -6.077  22.796   5.2070  0.00  0.00     0.000 O
BRANCH 16 19
ATOM     17  C1  NAG B   2      -5.148  24.682   2.0750  0.00  0.00     0.000 C
ATOM     18  C2  NAG B   2      -4.923  23.930   3.3810  0.00  0.00     0.000 C
ATOM     19  C3  NAG B   2      -6.240  23.349   3.8920  0.00  0.00     0.000 C
ATOM     20  C4  NAG B   2      -7.310  24.437   3.9630  0.00  0.00     0.000 C
ATOM     21  C5  NAG B   2      -7.450  25.113   2.6060  0.00  0.00     0.000 C
ATOM     22  O5  NAG B   2      -6.178  25.671   2.2310  0.00  0.00     0.000 O
ATOM     23   O  NAG B   2      -8.542  23.833   4.3710  0.00  0.00     0.000 O
ATOM     25  HD  NAG B   2      -8.164  24.375   4.9300  0.00  0.00     0.000 HD
ATOM     25   C  NAG B   2      -8.517  26.205   2.5980  0.00  0.00     0.000 C
ATOM     26   O  NAG B   2      -8.083  27.376   3.3060  0.00  0.00     0.000 O
ATOM     28  HD  NAG B   2      -7.705  27.918   3.8660  0.00  0.00     0.000 HD
BRANCH 18 30
ATOM     28   N  NAG B   2      -3.778  23.153   2.9450  0.00  0.00     0.000 N
ATOM     30  HD  NAG B   2      -3.584  23.347   3.7670  0.00  0.00     0.000 HD
ATOM     30   C  NAG B   2      -2.676  22.969   3.6840  0.00  0.00     0.000 C
ATOM     31   C  NAG B   2      -1.554  22.176   3.0770  0.00  0.00     0.000 C
ATOM     32   O  NAG B   2      -2.574  23.424   4.8060  0.00  0.00     0.000 OA
ENDBRANCH 18 30
BRANCH 17 33
ATOM     33  O4  GCU B   3      -3.881  25.234   1.6660  0.00  0.00     0.000 O
BRANCH 33 37
ATOM     34  C1  GCU B   3      -2.485  26.264  -2.1190  0.00  0.00     0.000 C
ATOM     35  C2  GCU B   3      -3.204  27.344  -1.3090  0.00  0.00     0.000 C
ATOM     36  C3  GCU B   3      -3.251  26.938   0.1480  0.00  0.00     0.000 C
ATOM     37  C4  GCU B   3      -3.889  25.562   0.2750  0.00  0.00     0.000 C
ATOM     38  C5  GCU B   3      -3.104  24.551  -0.5630  0.00  0.00     0.000 C
ATOM     39  O5  GCU B   3      -3.105  24.990  -1.9250  0.00  0.00     0.000 O
ATOM     40   O  GCU B   3      -2.499  28.579  -1.4560  0.00  0.00     0.000 O
ATOM     42  HD  GCU B   3      -2.163  29.234  -0.9990  0.00  0.00     0.000 HD
ATOM     42   O  GCU B   3      -3.985  27.898   0.9300  0.00  0.00     0.000 O
ATOM     44  HD  GCU B   3      -3.649  28.553   1.3860  0.00  0.00     0.000 HD
BRANCH 38 44
ATOM     44   C  GCU B   3      -3.694  23.165  -0.5060  0.00  0.00     0.000 C
ATOM     45   O  GCU B   3      -3.051  22.268   0.0610  0.00  0.00     0.000 OA
ATOM     46   O  GCU B   3      -4.807  22.946  -1.0220  0.00  0.00     0.000 OA
ENDBRANCH 38 44
BRANCH 34 47
ATOM     47  O3  NAG B   4      -2.631  26.530  -3.4090  0.00  0.00     0.000 O
BRANCH 47 50
ATOM     48  C1  NAG B   4       0.165  25.645  -5.6800  0.00  0.00     0.000 C
ATOM     49  C2  NAG B   4      -1.078  25.436  -4.8220  0.00  0.00     0.000 C
ATOM     50  C3  NAG B   4      -1.789  26.750  -4.5400  0.00  0.00     0.000 C
ATOM     51  C4  NAG B   4      -0.837  27.916  -4.2470  0.00  0.00     0.000 C
ATOM     52  C5  NAG B   4       0.098  28.170  -5.4180  0.00  0.00     0.000 C
ATOM     53  O5  NAG B   4       0.626  26.969  -6.0220  0.00  0.00     0.000 O
BRANCH 49 56
ATOM     54   N  NAG B   4      -1.871  24.891  -5.9390  0.00  0.00     0.000 N
ATOM     56  HD  NAG B   4      -1.889  25.204  -6.7460  0.00  0.00     0.000 HD
ATOM     56   C  NAG B   4      -3.447  23.476  -7.1240  0.00  0.00     0.000 C
ATOM     57   O  NAG B   4      -3.220  23.468  -4.7900  0.00  0.00     0.000 OA
ATOM     58   C  NAG B   4      -2.836  23.955  -5.8430  0.00  0.00     0.000 C
ENDBRANCH 49 56
ATOM     59   O  NAG B   4       1.953  29.664  -6.0680  0.00  0.00     0.000 O
ATOM     61  HD  NAG B   4       1.691  28.915  -5.7210  0.00  0.00     0.000 HD
ATOM     61   O  NAG B   4       1.953  29.664  -6.0680  0.00  0.00     0.000 O
ATOM     63  HD  NAG B   4       1.691  28.915  -5.7210  0.00  0.00     0.000 HD
ENDBRANCH 47 50
ENDBRANCH 34 47
ENDBRANCH 33 37
ENDBRANCH 17 33
ENDBRANCH 16 19
ENDBRANCH 1 16
TORSDOF 10
ENDMDL
MODEL 84
REMARK VINA RESULT:      -7.5     10.346     15.695
ROOT
ATOM      1  C1  GCU B   1       9.912  36.275 -11.1430  0.00  0.00     0.000 C
ATOM      2  C2  GCU B   1       9.612  35.028 -11.9610  0.00  0.00     0.000 C
ATOM      3  C3  GCU B   1       8.609  34.144 -11.2350  0.00  0.00     0.000 C
ATOM      4  C4  GCU B   1       9.071  33.887  -9.8090  0.00  0.00     0.000 C
ATOM      5  C5  GCU B   1       9.405  35.198  -9.0950  0.00  0.00     0.000 C
ATOM      6  O5  GCU B   1      10.405  35.901  -9.8460  0.00  0.00     0.000 O
ATOM      7   O  GCU B   1       9.094  35.451 -13.2190  0.00  0.00     0.000 O
ATOM      9  HD  GCU B   1       9.382  35.207 -13.9980  0.00  0.00     0.000 HD
ATOM      9   O  GCU B   1       8.444  32.901 -11.9220  0.00  0.00     0.000 O
ATOM     11  HD  GCU B   1       8.732  32.657 -12.7010  0.00  0.00     0.000 HD
ATOM     11   O  GCU B   1       8.035  33.203  -9.1050  0.00  0.00     0.000 O
ATOM     13  HD  GCU B   1       8.322  32.959  -9.8840  0.00  0.00     0.000 HD
ENDROOT
BRANCH 5 13
ATOM     13   C  GCU B   1       9.847  34.913  -7.6790  0.00  0.00     0.000 C
ATOM     14   O  GCU B   1      11.039  35.073  -7.3460  0.00  0.00     0.000 OA
ATOM     15   O  GCU B   1       8.974  34.546  -6.8690  0.00  0.00     0.000 OA
ENDBRANCH 5 13
BRANCH 1 16
ATOM     16  O3  NAG B   2      11.018  37.021 -11.1740  0.00  0.00     0.000 O
BRANCH 16 19
ATOM     17  C1  NAG B   2      11.375  40.688 -11.9840  0.00  0.00     0.000 C
ATOM     18  C2  NAG B   2      10.920  39.246 -12.1710  0.00  0.00     0.000 C
ATOM     19  C3  NAG B   2      11.275  38.415 -10.9400  0.00  0.00     0.000 C
ATOM     20  C4  NAG B   2      12.757  38.574 -10.6000  0.00  0.00     0.000 C
ATOM     21  C5  NAG B   2      13.092  40.049 -10.4330  0.00  0.00     0.000 C
ATOM     22  O5  NAG B   2      12.772  40.740 -11.6530  0.00  0.00     0.000 O
ATOM     23   O  NAG B   2      13.025  37.842  -9.3990  0.00  0.00     0.000 O
ATOM     25  HD  NAG B   2      13.378  37.542 -10.1310  0.00  0.00     0.000 HD
ATOM     25   C  NAG B   2      14.558  40.285 -10.0750  0.00  0.00     0.000 C
ATOM     26   O  NAG B   2      15.421  40.059 -11.1990  0.00  0.00     0.000 O
ATOM     28  HD  NAG B   2      15.774  39.760 -11.9310  0.00  0.00     0.000 HD
BRANCH 18 30
ATOM     28   N  NAG B   2      10.255  39.284 -13.4600  0.00  0.00     0.000 N
ATOM     30  HD  NAG B   2       9.616  39.077 -12.9140  0.00  0.00     0.000 HD
ATOM     30   C  NAG B   2       8.981  38.923 -13.6530  0.00  0.00     0.000 C
ATOM     31   C  NAG B   2       8.447  38.974 -15.0570  0.00  0.00     0.000 C
ATOM     32   O  NAG B   2       8.271  38.561 -12.7360  0.00  0.00     0.000 OA
ENDBRANCH 18 30
BRANCH 17 33
ATOM     33  O4  GCU B   3      11.045  41.409 -13.1890  0.00  0.00     0.000 O
BRANCH 33 37
ATOM     34  C1  GCU B   3      10.142  45.432 -13.7650  0.00  0.00     0.000 C
ATOM     35  C2  GCU B   3      11.484  45.092 -13.1170  0.00  0.00     0.000 C
ATOM     36  C3  GCU B   3      11.818  43.638 -13.3750  0.00  0.00     0.000 C
ATOM     37  C4  GCU B   3      10.674  42.757 -12.8950  0.00  0.00     0.000 C
ATOM     38  C5  GCU B   3       9.378  43.168 -13.5970  0.00  0.00     0.000 C
ATOM     39  O5  GCU B   3       9.119  44.545 -13.3060  0.00  0.00     0.000 O
ATOM     40   O  GCU B   3      12.494  45.937 -13.6710  0.00  0.00     0.000 O
ATOM     42  HD  GCU B   3      13.284  45.918 -14.0270  0.00  0.00     0.000 HD
ATOM     42   O  GCU B   3      13.042  43.262 -12.7170  0.00  0.00     0.000 O
ATOM     44  HD  GCU B   3      13.831  43.243 -13.0730  0.00  0.00     0.000 HD
BRANCH 38 44
ATOM     44   C  GCU B   3       8.191  42.352 -13.1510  0.00  0.00     0.000 C
ATOM     45   O  GCU B   3       7.232  42.226 -13.9280  0.00  0.00     0.000 OA
ATOM     46   O  GCU B   3       8.194  41.822 -12.0240  0.00  0.00     0.000 OA
ENDBRANCH 38 44
BRANCH 34 47
ATOM     47  O3  NAG B   4       9.765  46.637 -13.3600  0.00  0.00     0.000 O
BRANCH 47 50
ATOM     48  C1  NAG B   4       7.998  49.423 -11.6670  0.00  0.00     0.000 C
ATOM     49  C2  NAG B   4       8.863  48.727 -12.7120  0.00  0.00     0.000 C
ATOM     50  C3  NAG B   4       8.640  47.223 -12.7090  0.00  0.00     0.000 C
ATOM     51  C4  NAG B   4       8.493  46.623 -11.3060  0.00  0.00     0.000 C
ATOM     52  C5  NAG B   4       7.319  47.239 -10.5640  0.00  0.00     0.000 C
ATOM     53  O5  NAG B   4       7.200  48.669 -10.7310  0.00  0.00     0.000 O
BRANCH 49 56
ATOM     54   N  NAG B   4       8.026  49.222 -13.8190  0.00  0.00     0.000 N
ATOM     56  HD  NAG B   4       7.172  49.366 -13.7820  0.00  0.00     0.000 HD
ATOM     56   C  NAG B   4       7.418  49.960 -16.0500  0.00  0.00     0.000 C
ATOM     57   O  NAG B   4       9.494  48.996 -15.5390  0.00  0.00     0.000 OA
ATOM     58   C  NAG B   4       8.404  49.341 -15.1070  0.00  0.00     0.000 C
ENDBRANCH 49 56
ATOM     59   O  NAG B   4       6.182  47.105  -8.3760  0.00  0.00     0.000 O
ATOM     61  HD  NAG B   4       6.777  47.482  -8.8800  0.00  0.00     0.000 HD
ATOM     61   O  NAG B   4       6.182  47.105  -8.3760  0.00  0.00     0.000 O
ATOM     63  HD  NAG B   4       6.777  47.482  -8.8800  0.00  0.00     0.000 HD
ENDBRANCH 47 50
ENDBRANCH 34 47
ENDBRANCH 33 37
ENDBRANCH 17 33
ENDBRANCH 16 19
ENDBRANCH 1 16
TORSDOF 10
ENDMDL
MODEL 85
REMARK VINA RESULT:      -7.5     22.775     28.043
ROOT
ATOM      1  C1  GCU B   1     -10.073  53.113 -11.8940  0.00  0.00     0.000 C
ATOM      2  C2  GCU B   1      -9.998  54.321 -10.9730  0.00  0.00     0.000 C
ATOM      3  C3  GCU B   1     -10.565  53.982  -9.6040  0.00  0.00     0.000 C
ATOM      4  C4  GCU B   1     -11.946  53.360  -9.7460  0.00  0.00     0.000 C
ATOM      5  C5  GCU B   1     -11.925  52.196 -10.7380  0.00  0.00     0.000 C
ATOM      6  O5  GCU B   1     -11.433  52.663 -12.0010  0.00  0.00     0.000 O
ATOM      7   O  GCU B   1      -8.630  54.703 -10.8720  0.00  0.00     0.000 O
ATOM      9  HD  GCU B   1      -8.310  55.496 -11.0090  0.00  0.00     0.000 HD
ATOM      9   O  GCU B   1     -10.644  55.152  -8.7860  0.00  0.00     0.000 O
ATOM     11  HD  GCU B   1     -10.324  55.945  -8.9230  0.00  0.00     0.000 HD
ATOM     11   O  GCU B   1     -12.378  52.897  -8.4660  0.00  0.00     0.000 O
ATOM     13  HD  GCU B   1     -12.058  53.690  -8.6030  0.00  0.00     0.000 HD
ENDROOT
BRANCH 5 13
ATOM     13   C  GCU B   1     -13.304  51.590 -10.8490  0.00  0.00     0.000 C
ATOM     14   O  GCU B   1     -13.858  51.096  -9.8460  0.00  0.00     0.000 OA
ATOM     15   O  GCU B   1     -13.862  51.633 -11.9620  0.00  0.00     0.000 OA
ENDBRANCH 5 13
BRANCH 1 16
ATOM     16  O3  NAG B   2     -10.132  53.109 -13.2280  0.00  0.00     0.000 O
BRANCH 16 19
ATOM     17  C1  NAG B   2      -8.079  51.759 -16.0900  0.00  0.00     0.000 C
ATOM     18  C2  NAG B   2      -8.417  52.651 -14.9020  0.00  0.00     0.000 C
ATOM     19  C3  NAG B   2      -9.705  52.176 -14.2320  0.00  0.00     0.000 C
ATOM     20  C4  NAG B   2     -10.824  52.043 -15.2640  0.00  0.00     0.000 C
ATOM     21  C5  NAG B   2     -10.376  51.130 -16.3960  0.00  0.00     0.000 C
ATOM     22  O5  NAG B   2      -9.191  51.681 -16.9970  0.00  0.00     0.000 O
ATOM     23   O  NAG B   2     -11.984  51.522 -14.6060  0.00  0.00     0.000 O
ATOM     25  HD  NAG B   2     -12.024  52.340 -14.8880  0.00  0.00     0.000 HD
ATOM     25   C  NAG B   2     -11.454  50.937 -17.4610  0.00  0.00     0.000 C
ATOM     26   O  NAG B   2     -11.617  52.112 -18.2690  0.00  0.00     0.000 O
ATOM     28  HD  NAG B   2     -11.656  52.930 -18.5510  0.00  0.00     0.000 HD
BRANCH 18 30
ATOM     28   N  NAG B   2      -7.031  52.707 -14.4780  0.00  0.00     0.000 N
ATOM     30  HD  NAG B   2      -7.378  53.410 -14.1100  0.00  0.00     0.000 HD
ATOM     30   C  NAG B   2      -6.499  53.731 -13.7990  0.00  0.00     0.000 C
ATOM     31   C  NAG B   2      -5.034  53.662 -13.4690  0.00  0.00     0.000 C
ATOM     32   O  NAG B   2      -7.164  54.689 -13.4590  0.00  0.00     0.000 OA
ENDBRANCH 18 30
BRANCH 17 33
ATOM     33  O4  GCU B   3      -6.880  52.279 -16.6980  0.00  0.00     0.000 O
BRANCH 33 37
ATOM     34  C1  GCU B   3      -4.323  50.635 -19.5430  0.00  0.00     0.000 C
ATOM     35  C2  GCU B   3      -5.653  51.208 -20.0310  0.00  0.00     0.000 C
ATOM     36  C3  GCU B   3      -6.234  52.118 -18.9700  0.00  0.00     0.000 C
ATOM     37  C4  GCU B   3      -6.349  51.360 -17.6540  0.00  0.00     0.000 C
ATOM     38  C5  GCU B   3      -4.974  50.828 -17.2450  0.00  0.00     0.000 C
ATOM     39  O5  GCU B   3      -4.489  49.973 -18.2850  0.00  0.00     0.000 O
ATOM     40   O  GCU B   3      -5.427  51.939 -21.2390  0.00  0.00     0.000 O
ATOM     42  HD  GCU B   3      -5.587  52.701 -21.6180  0.00  0.00     0.000 HD
ATOM     42   O  GCU B   3      -7.524  52.619 -19.3660  0.00  0.00     0.000 O
ATOM     44  HD  GCU B   3      -7.684  53.381 -19.7450  0.00  0.00     0.000 HD
BRANCH 38 44
ATOM     44   C  GCU B   3      -5.013  50.042 -15.9590  0.00  0.00     0.000 C
ATOM     45   O  GCU B   3      -5.389  48.860 -15.9970  0.00  0.00     0.000 OA
ATOM     46   O  GCU B   3      -4.669  50.585 -14.8920  0.00  0.00     0.000 OA
ENDBRANCH 38 44
BRANCH 34 47
ATOM     47  O3  NAG B   4      -3.930  49.689 -20.3840  0.00  0.00     0.000 O
BRANCH 47 50
ATOM     48  C1  NAG B   4      -1.547  49.052 -23.1540  0.00  0.00     0.000 C
ATOM     49  C2  NAG B   4      -2.546  49.826 -22.2990  0.00  0.00     0.000 C
ATOM     50  C3  NAG B   4      -2.701  49.203 -20.9210  0.00  0.00     0.000 C
ATOM     51  C4  NAG B   4      -2.722  47.670 -20.9350  0.00  0.00     0.000 C
ATOM     52  C5  NAG B   4      -1.440  47.107 -21.5250  0.00  0.00     0.000 C
ATOM     53  O5  NAG B   4      -0.969  47.812 -22.6950  0.00  0.00     0.000 O
BRANCH 49 56
ATOM     54   N  NAG B   4      -1.641  50.929 -21.9340  0.00  0.00     0.000 N
ATOM     56  HD  NAG B   4      -0.896  50.849 -21.4990  0.00  0.00     0.000 HD
ATOM     56   C  NAG B   4      -0.807  53.196 -21.6990  0.00  0.00     0.000 C
ATOM     57   O  NAG B   4      -2.987  52.699 -22.4060  0.00  0.00     0.000 OA
ATOM     58   C  NAG B   4      -1.913  52.245 -22.0380  0.00  0.00     0.000 C
ENDBRANCH 49 56
ATOM     59   O  NAG B   4      -0.394  44.934 -22.0550  0.00  0.00     0.000 O
ATOM     61  HD  NAG B   4      -0.873  45.609 -22.3120  0.00  0.00     0.000 HD
ATOM     61   O  NAG B   4      -0.394  44.934 -22.0550  0.00  0.00     0.000 O
ATOM     63  HD  NAG B   4      -0.873  45.609 -22.3120  0.00  0.00     0.000 HD
ENDBRANCH 47 50
ENDBRANCH 34 47
ENDBRANCH 33 37
ENDBRANCH 17 33
ENDBRANCH 16 19
ENDBRANCH 1 16
TORSDOF 10
ENDMDL
MODEL 86
REMARK VINA RESULT:      -7.5     12.542     17.769
ROOT
ATOM      1  C1  GCU B   1      -7.121  23.013   2.3320  0.00  0.00     0.000 C
ATOM      2  C2  GCU B   1      -8.575  22.998   2.7790  0.00  0.00     0.000 C
ATOM      3  C3  GCU B   1      -9.254  21.710   2.3390  0.00  0.00     0.000 C
ATOM      4  C4  GCU B   1      -9.031  21.480   0.8530  0.00  0.00     0.000 C
ATOM      5  C5  GCU B   1      -7.546  21.576   0.4980  0.00  0.00     0.000 C
ATOM      6  O5  GCU B   1      -7.047  22.857   0.9060  0.00  0.00     0.000 O
ATOM      7   O  GCU B   1      -8.592  23.118   4.1980  0.00  0.00     0.000 O
ATOM      9  HD  GCU B   1      -9.046  23.697   4.6560  0.00  0.00     0.000 HD
ATOM      9   O  GCU B   1     -10.656  21.760   2.6170  0.00  0.00     0.000 O
ATOM     11  HD  GCU B   1     -11.110  22.338   3.0750  0.00  0.00     0.000 HD
ATOM     11   O  GCU B   1      -9.529  20.187   0.5060  0.00  0.00     0.000 O
ATOM     13  HD  GCU B   1      -9.982  20.765   0.9640  0.00  0.00     0.000 HD
ENDROOT
BRANCH 5 13
ATOM     13   C  GCU B   1      -7.354  21.329  -0.9790  0.00  0.00     0.000 C
ATOM     14   O  GCU B   1      -8.233  21.674  -1.7960  0.00  0.00     0.000 OA
ATOM     15   O  GCU B   1      -6.284  20.802  -1.3390  0.00  0.00     0.000 OA
ENDBRANCH 5 13
BRANCH 1 16
ATOM     16  O3  NAG B   2      -6.353  24.079   2.0980  0.00  0.00     0.000 O
BRANCH 16 19
ATOM     17  C1  NAG B   2      -2.594  24.344   1.9350  0.00  0.00     0.000 C
ATOM     18  C2  NAG B   2      -3.952  23.974   2.5180  0.00  0.00     0.000 C
ATOM     19  C3  NAG B   2      -5.058  24.250   1.5020  0.00  0.00     0.000 C
ATOM     20  C4  NAG B   2      -4.959  25.685   0.9840  0.00  0.00     0.000 C
ATOM     21  C5  NAG B   2      -3.567  25.937   0.4240  0.00  0.00     0.000 C
ATOM     22  O5  NAG B   2      -2.598  25.701   1.4620  0.00  0.00     0.000 O
ATOM     23   O  NAG B   2      -5.963  25.873  -0.0190  0.00  0.00     0.000 O
ATOM     25  HD  NAG B   2      -6.063  26.305   0.7250  0.00  0.00     0.000 HD
ATOM     25   C  NAG B   2      -3.399  27.351  -0.1270  0.00  0.00     0.000 C
ATOM     26   O  NAG B   2      -3.318  28.325   0.9250  0.00  0.00     0.000 O
ATOM     28  HD  NAG B   2      -3.417  28.757   1.6690  0.00  0.00     0.000 HD
BRANCH 18 30
ATOM     28   N  NAG B   2      -3.778  23.480   3.8710  0.00  0.00     0.000 N
ATOM     30  HD  NAG B   2      -3.898  22.757   3.4100  0.00  0.00     0.000 HD
ATOM     30   C  NAG B   2      -3.933  22.198   4.2220  0.00  0.00     0.000 C
ATOM     31   C  NAG B   2      -3.763  21.848   5.6740  0.00  0.00     0.000 C
ATOM     32   O  NAG B   2      -4.203  21.338   3.4070  0.00  0.00     0.000 OA
ENDBRANCH 18 30
BRANCH 17 33
ATOM     33  O4  GCU B   3      -1.601  24.096   2.9510  0.00  0.00     0.000 O
BRANCH 33 37
ATOM     34  C1  GCU B   3       2.407  23.038   2.5600  0.00  0.00     0.000 C
ATOM     35  C2  GCU B   3       2.079  24.519   2.7580  0.00  0.00     0.000 C
ATOM     36  C3  GCU B   3       0.671  24.659   3.2970  0.00  0.00     0.000 C
ATOM     37  C4  GCU B   3      -0.303  23.942   2.3730  0.00  0.00     0.000 C
ATOM     38  C5  GCU B   3       0.101  22.473   2.2390  0.00  0.00     0.000 C
ATOM     39  O5  GCU B   3       1.433  22.413   1.7190  0.00  0.00     0.000 O
ATOM     40   O  GCU B   3       3.018  25.083   3.6760  0.00  0.00     0.000 O
ATOM     42  HD  GCU B   3       3.069  25.562   4.3950  0.00  0.00     0.000 HD
ATOM     42   O  GCU B   3       0.302  26.044   3.4270  0.00  0.00     0.000 O
ATOM     44  HD  GCU B   3       0.353  26.523   4.1460  0.00  0.00     0.000 HD
BRANCH 38 44
ATOM     44   C  GCU B   3      -0.808  21.702   1.3150  0.00  0.00     0.000 C
ATOM     45   O  GCU B   3      -1.525  20.810   1.7950  0.00  0.00     0.000 OA
ATOM     46   O  GCU B   3      -0.826  21.971   0.0990  0.00  0.00     0.000 OA
ENDBRANCH 38 44
BRANCH 34 47
ATOM     47  O3  NAG B   4       3.552  22.939   1.9000  0.00  0.00     0.000 O
BRANCH 47 50
ATOM     48  C1  NAG B   4       7.138  23.204   0.9940  0.00  0.00     0.000 C
ATOM     49  C2  NAG B   4       5.654  23.553   1.0020  0.00  0.00     0.000 C
ATOM     50  C3  NAG B   4       4.945  22.950   2.2040  0.00  0.00     0.000 C
ATOM     51  C4  NAG B   4       5.405  21.527   2.5420  0.00  0.00     0.000 C
ATOM     52  C5  NAG B   4       6.893  21.487   2.8490  0.00  0.00     0.000 C
ATOM     53  O5  NAG B   4       7.700  22.292   1.9610  0.00  0.00     0.000 O
BRANCH 49 56
ATOM     54   N  NAG B   4       5.518  25.018   0.9230  0.00  0.00     0.000 N
ATOM     56  HD  NAG B   4       5.265  25.466   0.2260  0.00  0.00     0.000 HD
ATOM     56   C  NAG B   4       5.619  27.346   1.6020  0.00  0.00     0.000 C
ATOM     57   O  NAG B   4       6.567  25.603   2.8530  0.00  0.00     0.000 OA
ATOM     58   C  NAG B   4       5.949  25.905   1.8420  0.00  0.00     0.000 C
ENDBRANCH 49 56
ATOM     59   O  NAG B   4       8.656  19.871   3.4600  0.00  0.00     0.000 O
ATOM     61  HD  NAG B   4       8.229  20.304   2.8440  0.00  0.00     0.000 HD
ATOM     61   O  NAG B   4       8.656  19.871   3.4600  0.00  0.00     0.000 O
ATOM     63  HD  NAG B   4       8.229  20.304   2.8440  0.00  0.00     0.000 HD
ENDBRANCH 47 50
ENDBRANCH 34 47
ENDBRANCH 33 37
ENDBRANCH 17 33
ENDBRANCH 16 19
ENDBRANCH 1 16
TORSDOF 10
ENDMDL
MODEL 87
REMARK VINA RESULT:      -7.5     15.094     21.003
ROOT
ATOM      1  C1  GCU B   1      -4.789  15.855   5.9080  0.00  0.00     0.000 C
ATOM      2  C2  GCU B   1      -5.239  14.550   6.5480  0.00  0.00     0.000 C
ATOM      3  C3  GCU B   1      -4.163  14.017   7.4810  0.00  0.00     0.000 C
ATOM      4  C4  GCU B   1      -2.825  13.958   6.7610  0.00  0.00     0.000 C
ATOM      5  C5  GCU B   1      -2.495  15.299   6.1020  0.00  0.00     0.000 C
ATOM      6  O5  GCU B   1      -3.554  15.653   5.2020  0.00  0.00     0.000 O
ATOM      7   O  GCU B   1      -6.442  14.812   7.2630  0.00  0.00     0.000 O
ATOM      9  HD  GCU B   1      -7.186  14.375   7.1880  0.00  0.00     0.000 HD
ATOM      9   O  GCU B   1      -4.512  12.716   7.9610  0.00  0.00     0.000 O
ATOM     11  HD  GCU B   1      -5.256  12.279   7.8860  0.00  0.00     0.000 HD
ATOM     11   O  GCU B   1      -1.807  13.620   7.7040  0.00  0.00     0.000 O
ATOM     13  HD  GCU B   1      -2.551  13.183   7.6280  0.00  0.00     0.000 HD
ENDROOT
BRANCH 5 13
ATOM     13   C  GCU B   1      -1.157  15.215   5.4070  0.00  0.00     0.000 C
ATOM     14   O  GCU B   1      -1.095  15.156   4.1620  0.00  0.00     0.000 OA
ATOM     15   O  GCU B   1      -0.137  15.235   6.1220  0.00  0.00     0.000 OA
ENDBRANCH 5 13
BRANCH 1 16
ATOM     16  O3  NAG B   2      -5.189  16.370   4.7430  0.00  0.00     0.000 O
BRANCH 16 19
ATOM     17  C1  NAG B   2      -5.929  19.980   3.9410  0.00  0.00     0.000 C
ATOM     18  C2  NAG B   2      -5.976  18.679   4.7320  0.00  0.00     0.000 C
ATOM     19  C3  NAG B   2      -5.022  17.654   4.1220  0.00  0.00     0.000 C
ATOM     20  C4  NAG B   2      -5.294  17.497   2.6260  0.00  0.00     0.000 C
ATOM     21  C5  NAG B   2      -5.217  18.855   1.9440  0.00  0.00     0.000 C
ATOM     22  O5  NAG B   2      -6.180  19.736   2.5480  0.00  0.00     0.000 O
ATOM     23   O  NAG B   2      -4.329  16.588   2.0850  0.00  0.00     0.000 O
ATOM     25  HD  NAG B   2      -5.152  16.321   2.1120  0.00  0.00     0.000 HD
ATOM     25   C  NAG B   2      -5.463  18.774   0.4380  0.00  0.00     0.000 C
ATOM     26   O  NAG B   2      -6.846  18.532   0.1400  0.00  0.00     0.000 O
ATOM     28  HD  NAG B   2      -7.670  18.265   0.1660  0.00  0.00     0.000 HD
BRANCH 18 30
ATOM     28   N  NAG B   2      -5.958  19.357   6.0150  0.00  0.00     0.000 N
ATOM     30  HD  NAG B   2      -6.358  18.609   6.1920  0.00  0.00     0.000 HD
ATOM     30   C  NAG B   2      -6.574  18.897   7.1100  0.00  0.00     0.000 C
ATOM     31   C  NAG B   2      -6.501  19.737   8.3550  0.00  0.00     0.000 C
ATOM     32   O  NAG B   2      -7.177  17.842   7.1110  0.00  0.00     0.000 OA
ENDBRANCH 18 30
BRANCH 17 33
ATOM     33  O4  GCU B   3      -6.873  20.890   4.5420  0.00  0.00     0.000 O
BRANCH 33 37
ATOM     34  C1  GCU B   3      -7.650  24.911   3.7930  0.00  0.00     0.000 C
ATOM     35  C2  GCU B   3      -8.213  23.884   2.8100  0.00  0.00     0.000 C
ATOM     36  C3  GCU B   3      -8.207  22.512   3.4510  0.00  0.00     0.000 C
ATOM     37  C4  GCU B   3      -6.802  22.180   3.9330  0.00  0.00     0.000 C
ATOM     38  C5  GCU B   3      -6.324  23.257   4.9090  0.00  0.00     0.000 C
ATOM     39  O5  GCU B   3      -6.348  24.522   4.2400  0.00  0.00     0.000 O
ATOM     40   O  GCU B   3      -9.548  24.260   2.4620  0.00  0.00     0.000 O
ATOM     42  HD  GCU B   3     -10.353  23.948   2.4010  0.00  0.00     0.000 HD
ATOM     42   O  GCU B   3      -8.664  21.508   2.5270  0.00  0.00     0.000 O
ATOM     44  HD  GCU B   3      -9.469  21.196   2.4660  0.00  0.00     0.000 HD
BRANCH 38 44
ATOM     44   C  GCU B   3      -4.924  23.007   5.4120  0.00  0.00     0.000 C
ATOM     45   O  GCU B   3      -3.977  23.549   4.8230  0.00  0.00     0.000 OA
ATOM     46   O  GCU B   3      -4.745  22.271   6.4010  0.00  0.00     0.000 OA
ENDBRANCH 38 44
BRANCH 34 47
ATOM     47  O3  NAG B   4      -7.469  26.059   3.1560  0.00  0.00     0.000 O
BRANCH 47 50
ATOM     48  C1  NAG B   4      -4.893  26.324   0.5010  0.00  0.00     0.000 C
ATOM     49  C2  NAG B   4      -6.253  26.031   1.1250  0.00  0.00     0.000 C
ATOM     50  C3  NAG B   4      -6.412  26.725   2.4680  0.00  0.00     0.000 C
ATOM     51  C4  NAG B   4      -5.145  26.697   3.3320  0.00  0.00     0.000 C
ATOM     52  C5  NAG B   4      -3.982  27.375   2.6270  0.00  0.00     0.000 C
ATOM     53  O5  NAG B   4      -3.880  27.059   1.2210  0.00  0.00     0.000 O
BRANCH 49 56
ATOM     54   N  NAG B   4      -6.936  26.892   0.1440  0.00  0.00     0.000 N
ATOM     56  HD  NAG B   4      -6.582  27.564  -0.2730  0.00  0.00     0.000 HD
ATOM     56   C  NAG B   4      -8.726  27.794  -1.2260  0.00  0.00     0.000 C
ATOM     57   O  NAG B   4      -9.083  26.224   0.4790  0.00  0.00     0.000 OA
ATOM     58   C  NAG B   4      -8.259  26.903  -0.1160  0.00  0.00     0.000 C
ENDBRANCH 49 56
ATOM     59   O  NAG B   4      -1.596  27.895   2.9830  0.00  0.00     0.000 O
ATOM     61  HD  NAG B   4      -2.198  27.359   2.6670  0.00  0.00     0.000 HD
ATOM     61   O  NAG B   4      -1.596  27.895   2.9830  0.00  0.00     0.000 O
ATOM     63  HD  NAG B   4      -2.198  27.359   2.6670  0.00  0.00     0.000 HD
ENDBRANCH 47 50
ENDBRANCH 34 47
ENDBRANCH 33 37
ENDBRANCH 17 33
ENDBRANCH 16 19
ENDBRANCH 1 16
TORSDOF 10
ENDMDL
MODEL 88
REMARK VINA RESULT:      -7.5     29.428     33.243
ROOT
ATOM      1  C1  GCU B   1      -0.425  44.864  19.2780  0.00  0.00     0.000 C
ATOM      2  C2  GCU B   1       0.677  44.444  20.2380  0.00  0.00     0.000 C
ATOM      3  C3  GCU B   1       0.770  42.928  20.3110  0.00  0.00     0.000 C
ATOM      4  C4  GCU B   1      -0.600  42.331  20.5950  0.00  0.00     0.000 C
ATOM      5  C5  GCU B   1      -1.646  42.863  19.6140  0.00  0.00     0.000 C
ATOM      6  O5  GCU B   1      -1.677  44.294  19.6920  0.00  0.00     0.000 O
ATOM      7   O  GCU B   1       1.899  45.002  19.7650  0.00  0.00     0.000 O
ATOM      9  HD  GCU B   1       2.455  45.479  20.2270  0.00  0.00     0.000 HD
ATOM      9   O  GCU B   1       1.693  42.527  21.3270  0.00  0.00     0.000 O
ATOM     11  HD  GCU B   1       2.249  43.004  21.7890  0.00  0.00     0.000 HD
ATOM     11   O  GCU B   1      -0.515  40.909  20.4870  0.00  0.00     0.000 O
ATOM     13  HD  GCU B   1       0.041  41.386  20.9480  0.00  0.00     0.000 HD
ENDROOT
BRANCH 5 13
ATOM     13   C  GCU B   1      -2.991  42.243  19.9110  0.00  0.00     0.000 C
ATOM     14   O  GCU B   1      -3.394  41.264  19.2500  0.00  0.00     0.000 OA
ATOM     15   O  GCU B   1      -3.652  42.729  20.8490  0.00  0.00     0.000 OA
ENDBRANCH 5 13
BRANCH 1 16
ATOM     16  O3  NAG B   2      -1.120  46.004  19.2870  0.00  0.00     0.000 O
BRANCH 16 19
ATOM     17  C1  NAG B   2      -1.175  48.981  16.9710  0.00  0.00     0.000 C
ATOM     18  C2  NAG B   2      -0.578  47.956  17.9270  0.00  0.00     0.000 C
ATOM     19  C3  NAG B   2      -1.605  46.872  18.2500  0.00  0.00     0.000 C
ATOM     20  C4  NAG B   2      -2.911  47.503  18.7310  0.00  0.00     0.000 C
ATOM     21  C5  NAG B   2      -3.412  48.502  17.6980  0.00  0.00     0.000 C
ATOM     22  O5  NAG B   2      -2.404  49.508  17.4950  0.00  0.00     0.000 O
ATOM     23   O  NAG B   2      -3.865  46.457  18.9470  0.00  0.00     0.000 O
ATOM     25  HD  NAG B   2      -3.576  46.879  19.6460  0.00  0.00     0.000 HD
ATOM     25   C  NAG B   2      -4.728  49.163  18.1050  0.00  0.00     0.000 C
ATOM     26   O  NAG B   2      -4.537  50.118  19.1600  0.00  0.00     0.000 O
ATOM     28  HD  NAG B   2      -4.248  50.540  19.8590  0.00  0.00     0.000 HD
BRANCH 18 30
ATOM     28   N  NAG B   2       0.788  48.395  18.1390  0.00  0.00     0.000 N
ATOM     30  HD  NAG B   2       0.884  47.661  17.6900  0.00  0.00     0.000 HD
ATOM     30   C  NAG B   2       1.865  47.675  17.8000  0.00  0.00     0.000 C
ATOM     31   C  NAG B   2       3.216  48.247  18.1260  0.00  0.00     0.000 C
ATOM     32   O  NAG B   2       1.767  46.595  17.2520  0.00  0.00     0.000 OA
ENDBRANCH 18 30
BRANCH 17 33
ATOM     33  O4  GCU B   3      -0.174  49.991  16.7340  0.00  0.00     0.000 O
BRANCH 33 37
ATOM     34  C1  GCU B   3       0.477  52.454  13.4410  0.00  0.00     0.000 C
ATOM     35  C2  GCU B   3      -0.541  52.918  14.4840  0.00  0.00     0.000 C
ATOM     36  C3  GCU B   3      -0.335  52.147  15.7710  0.00  0.00     0.000 C
ATOM     37  C4  GCU B   3      -0.397  50.653  15.4880  0.00  0.00     0.000 C
ATOM     38  C5  GCU B   3       0.654  50.283  14.4390  0.00  0.00     0.000 C
ATOM     39  O5  GCU B   3       0.396  51.038  13.2500  0.00  0.00     0.000 O
ATOM     40   O  GCU B   3      -0.365  54.317  14.7130  0.00  0.00     0.000 O
ATOM     42  HD  GCU B   3      -0.270  54.901  15.3450  0.00  0.00     0.000 HD
ATOM     42   O  GCU B   3      -1.322  52.506  16.7540  0.00  0.00     0.000 O
ATOM     44  HD  GCU B   3      -1.228  53.090  17.3860  0.00  0.00     0.000 HD
BRANCH 38 44
ATOM     44   C  GCU B   3       0.634  48.817  14.0870  0.00  0.00     0.000 C
ATOM     45   O  GCU B   3      -0.399  48.338  13.5950  0.00  0.00     0.000 OA
ATOM     46   O  GCU B   3       1.646  48.119  14.2910  0.00  0.00     0.000 OA
ENDBRANCH 38 44
BRANCH 34 47
ATOM     47  O3  NAG B   4       0.156  52.981  12.2680  0.00  0.00     0.000 O
BRANCH 47 50
ATOM     48  C1  NAG B   4       0.813  53.402   8.6420  0.00  0.00     0.000 C
ATOM     49  C2  NAG B   4       1.097  53.417  10.1400  0.00  0.00     0.000 C
ATOM     50  C3  NAG B   4       0.101  52.561  10.9060  0.00  0.00     0.000 C
ATOM     51  C4  NAG B   4      -1.339  52.682  10.3930  0.00  0.00     0.000 C
ATOM     52  C5  NAG B   4      -1.441  52.268   8.9340  0.00  0.00     0.000 C
ATOM     53  O5  NAG B   4      -0.359  52.752   8.1070  0.00  0.00     0.000 O
BRANCH 49 56
ATOM     54   N  NAG B   4       2.246  52.499  10.0400  0.00  0.00     0.000 N
ATOM     56  HD  NAG B   4       2.264  51.759   9.5910  0.00  0.00     0.000 HD
ATOM     56   C  NAG B   4       4.455  51.577  10.4420  0.00  0.00     0.000 C
ATOM     57   O  NAG B   4       3.565  53.359  11.6800  0.00  0.00     0.000 OA
ATOM     58   C  NAG B   4       3.372  52.556  10.7790  0.00  0.00     0.000 C
ENDBRANCH 49 56
ATOM     59   O  NAG B   4      -3.119  52.075   7.1340  0.00  0.00     0.000 O
ATOM     61  HD  NAG B   4      -2.514  52.547   7.5350  0.00  0.00     0.000 HD
ATOM     61   O  NAG B   4      -3.119  52.075   7.1340  0.00  0.00     0.000 O
ATOM     63  HD  NAG B   4      -2.514  52.547   7.5350  0.00  0.00     0.000 HD
ENDBRANCH 47 50
ENDBRANCH 34 47
ENDBRANCH 33 37
ENDBRANCH 17 33
ENDBRANCH 16 19
ENDBRANCH 1 16
TORSDOF 10
ENDMDL
MODEL 89
REMARK VINA RESULT:      -7.5      7.120     17.381
ROOT
ATOM      1  C1  GCU B   1      -5.922  22.872   4.1360  0.00  0.00     0.000 C
ATOM      2  C2  GCU B   1      -5.835  22.737   5.6480  0.00  0.00     0.000 C
ATOM      3  C3  GCU B   1      -6.127  21.306   6.0720  0.00  0.00     0.000 C
ATOM      4  C4  GCU B   1      -7.433  20.831   5.4530  0.00  0.00     0.000 C
ATOM      5  C5  GCU B   1      -7.442  21.067   3.9420  0.00  0.00     0.000 C
ATOM      6  O5  GCU B   1      -7.221  22.460   3.6820  0.00  0.00     0.000 O
ATOM      7   O  GCU B   1      -4.521  23.121   6.0420  0.00  0.00     0.000 O
ATOM      9  HD  GCU B   1      -4.320  23.706   6.6490  0.00  0.00     0.000 HD
ATOM      9   O  GCU B   1      -6.203  21.208   7.4960  0.00  0.00     0.000 O
ATOM     11  HD  GCU B   1      -6.002  21.792   8.1030  0.00  0.00     0.000 HD
ATOM     11   O  GCU B   1      -7.593  19.439   5.7260  0.00  0.00     0.000 O
ATOM     13  HD  GCU B   1      -7.392  20.023   6.3320  0.00  0.00     0.000 HD
ENDROOT
BRANCH 5 13
ATOM     13   C  GCU B   1      -8.743  20.574   3.3530  0.00  0.00     0.000 C
ATOM     14   O  GCU B   1      -9.663  21.377   3.0950  0.00  0.00     0.000 OA
ATOM     15   O  GCU B   1      -8.839  19.355   3.1160  0.00  0.00     0.000 OA
ENDBRANCH 5 13
BRANCH 1 16
ATOM     16  O3  NAG B   2      -6.198  23.973   3.4320  0.00  0.00     0.000 O
BRANCH 16 19
ATOM     17  C1  NAG B   2      -4.227  25.502   0.6030  0.00  0.00     0.000 C
ATOM     18  C2  NAG B   2      -4.467  24.891   1.9780  0.00  0.00     0.000 C
ATOM     19  C3  NAG B   2      -5.904  24.384   2.0880  0.00  0.00     0.000 C
ATOM     20  C4  NAG B   2      -6.889  25.488   1.7040  0.00  0.00     0.000 C
ATOM     21  C5  NAG B   2      -6.554  26.017   0.3160  0.00  0.00     0.000 C
ATOM     22  O5  NAG B   2      -5.205  26.516   0.3210  0.00  0.00     0.000 O
ATOM     23   O  NAG B   2      -8.213  24.947   1.7470  0.00  0.00     0.000 O
ATOM     25  HD  NAG B   2      -8.010  25.540   2.3440  0.00  0.00     0.000 HD
ATOM     25   C  NAG B   2      -7.510  27.116  -0.1430  0.00  0.00     0.000 C
ATOM     26   O  NAG B   2      -7.272  28.350   0.5510  0.00  0.00     0.000 O
ATOM     28  HD  NAG B   2      -7.068  28.944   1.1480  0.00  0.00     0.000 HD
BRANCH 18 30
ATOM     28   N  NAG B   2      -3.204  24.994   2.6820  0.00  0.00     0.000 N
ATOM     30  HD  NAG B   2      -3.279  24.144   2.5360  0.00  0.00     0.000 HD
ATOM     30   C  NAG B   2      -2.485  23.938   3.0830  0.00  0.00     0.000 C
ATOM     31   C  NAG B   2      -1.216  24.207   3.8440  0.00  0.00     0.000 C
ATOM     32   O  NAG B   2      -2.835  22.798   2.8500  0.00  0.00     0.000 OA
ENDBRANCH 18 30
BRANCH 17 33
ATOM     33  O4  GCU B   3      -2.871  25.991   0.5750  0.00  0.00     0.000 O
BRANCH 33 37
ATOM     34  C1  GCU B   3      -0.105  26.202  -2.5300  0.00  0.00     0.000 C
ATOM     35  C2  GCU B   3      -1.223  27.246  -2.5030  0.00  0.00     0.000 C
ATOM     36  C3  GCU B   3      -1.848  27.283  -1.1240  0.00  0.00     0.000 C
ATOM     37  C4  GCU B   3      -2.315  25.887  -0.7370  0.00  0.00     0.000 C
ATOM     38  C5  GCU B   3      -1.133  24.916  -0.7910  0.00  0.00     0.000 C
ATOM     39  O5  GCU B   3      -0.597  24.924  -2.1170  0.00  0.00     0.000 O
ATOM     40   O  GCU B   3      -0.672  28.523  -2.8300  0.00  0.00     0.000 O
ATOM     42  HD  GCU B   3      -0.644  29.346  -2.5610  0.00  0.00     0.000 HD
ATOM     42   O  GCU B   3      -2.953  28.204  -1.0820  0.00  0.00     0.000 O
ATOM     44  HD  GCU B   3      -2.925  29.026  -0.8130  0.00  0.00     0.000 HD
BRANCH 38 44
ATOM     44   C  GCU B   3      -1.526  23.502  -0.4420  0.00  0.00     0.000 C
ATOM     45   O  GCU B   3      -2.568  23.038  -0.9300  0.00  0.00     0.000 OA
ATOM     46   O  GCU B   3      -0.804  22.830   0.3180  0.00  0.00     0.000 OA
ENDBRANCH 38 44
BRANCH 34 47
ATOM     47  O3  NAG B   4       0.291  26.034  -3.7840  0.00  0.00     0.000 O
BRANCH 47 50
ATOM     48  C1  NAG B   4      -0.830  25.747  -7.3070  0.00  0.00     0.000 C
ATOM     49  C2  NAG B   4      -0.829  25.507  -5.8010  0.00  0.00     0.000 C
ATOM     50  C3  NAG B   4      -0.025  26.569  -5.0680  0.00  0.00     0.000 C
ATOM     51  C4  NAG B   4       1.269  26.969  -5.7860  0.00  0.00     0.000 C
ATOM     52  C5  NAG B   4       0.981  27.522  -7.1720  0.00  0.00     0.000 C
ATOM     53  O5  NAG B   4      -0.027  26.789  -7.9010  0.00  0.00     0.000 O
BRANCH 49 56
ATOM     54   N  NAG B   4      -2.239  25.410  -5.3850  0.00  0.00     0.000 N
ATOM     56  HD  NAG B   4      -2.679  24.675  -5.2580  0.00  0.00     0.000 HD
ATOM     56   C  NAG B   4      -4.482  26.119  -4.7840  0.00  0.00     0.000 C
ATOM     57   O  NAG B   4      -2.872  27.574  -5.6740  0.00  0.00     0.000 OA
ATOM     58   C  NAG B   4      -3.121  26.428  -5.3290  0.00  0.00     0.000 C
ENDBRANCH 49 56
ATOM     59   O  NAG B   4       2.176  28.411  -9.1410  0.00  0.00     0.000 O
ATOM     61  HD  NAG B   4       1.825  27.734  -8.7300  0.00  0.00     0.000 HD
ATOM     61   O  NAG B   4       2.176  28.411  -9.1410  0.00  0.00     0.000 O
ATOM     63  HD  NAG B   4       1.825  27.734  -8.7300  0.00  0.00     0.000 HD
ENDBRANCH 47 50
ENDBRANCH 34 47
ENDBRANCH 33 37
ENDBRANCH 17 33
ENDBRANCH 16 19
ENDBRANCH 1 16
TORSDOF 10
ENDMDL
MODEL 90
REMARK VINA RESULT:      -7.5      9.861     13.973
ROOT
ATOM      1  C1  GCU B   1       4.069  26.339  -0.1480  0.00  0.00     0.000 C
ATOM      2  C2  GCU B   1       5.467  25.815  -0.4380  0.00  0.00     0.000 C
ATOM      3  C3  GCU B   1       6.514  26.699   0.2230  0.00  0.00     0.000 C
ATOM      4  C4  GCU B   1       6.279  28.156  -0.1450  0.00  0.00     0.000 C
ATOM      5  C5  GCU B   1       4.831  28.565   0.1270  0.00  0.00     0.000 C
ATOM      6  O5  GCU B   1       3.953  27.697  -0.6020  0.00  0.00     0.000 O
ATOM      7   O  GCU B   1       5.542  24.484   0.0620  0.00  0.00     0.000 O
ATOM      9  HD  GCU B   1       5.801  23.786  -0.3800  0.00  0.00     0.000 HD
ATOM      9   O  GCU B   1       7.830  26.305  -0.1760  0.00  0.00     0.000 O
ATOM     11  HD  GCU B   1       8.088  25.607  -0.6180  0.00  0.00     0.000 HD
ATOM     11   O  GCU B   1       7.165  28.973   0.6220  0.00  0.00     0.000 O
ATOM     13  HD  GCU B   1       7.423  28.275   0.1790  0.00  0.00     0.000 HD
ENDROOT
BRANCH 5 13
ATOM     13   C  GCU B   1       4.631  30.018  -0.2330  0.00  0.00     0.000 C
ATOM     14   O  GCU B   1       4.319  30.342  -1.3970  0.00  0.00     0.000 OA
ATOM     15   O  GCU B   1       4.763  30.858   0.6780  0.00  0.00     0.000 OA
ENDBRANCH 5 13
BRANCH 1 16
ATOM     16  O3  NAG B   2       2.967  26.165  -0.8810  0.00  0.00     0.000 O
BRANCH 16 19
ATOM     17  C1  NAG B   2      -0.269  24.551   0.1900  0.00  0.00     0.000 C
ATOM     18  C2  NAG B   2       1.238  24.705   0.0310  0.00  0.00     0.000 C
ATOM     19  C3  NAG B   2       1.571  26.075  -0.5570  0.00  0.00     0.000 C
ATOM     20  C4  NAG B   2       0.770  26.313  -1.8370  0.00  0.00     0.000 C
ATOM     21  C5  NAG B   2      -0.715  26.136  -1.5570  0.00  0.00     0.000 C
ATOM     22  O5  NAG B   2      -0.939  24.807  -1.0550  0.00  0.00     0.000 O
ATOM     23   O  NAG B   2       1.055  27.635  -2.3090  0.00  0.00     0.000 O
ATOM     25  HD  NAG B   2       1.343  26.974  -2.7880  0.00  0.00     0.000 HD
ATOM     25   C  NAG B   2      -1.582  26.375  -2.7910  0.00  0.00     0.000 C
ATOM     26   O  NAG B   2      -1.476  25.295  -3.7320  0.00  0.00     0.000 O
ATOM     28  HD  NAG B   2      -1.187  24.634  -4.2110  0.00  0.00     0.000 HD
BRANCH 18 30
ATOM     28   N  NAG B   2       1.615  24.265   1.3610  0.00  0.00     0.000 N
ATOM     30  HD  NAG B   2       2.229  23.920   0.8570  0.00  0.00     0.000 HD
ATOM     30   C  NAG B   2       2.615  23.410   1.6080  0.00  0.00     0.000 C
ATOM     31   C  NAG B   2       2.856  23.013   3.0370  0.00  0.00     0.000 C
ATOM     32   O  NAG B   2       3.308  22.960   0.7170  0.00  0.00     0.000 OA
ENDBRANCH 18 30
BRANCH 17 33
ATOM     33  O4  GCU B   3      -0.520  23.231   0.7140  0.00  0.00     0.000 O
BRANCH 33 37
ATOM     34  C1  GCU B   3      -3.748  21.725   2.8680  0.00  0.00     0.000 C
ATOM     35  C2  GCU B   3      -3.867  21.763   1.3440  0.00  0.00     0.000 C
ATOM     36  C3  GCU B   3      -2.492  21.923   0.7320  0.00  0.00     0.000 C
ATOM     37  C4  GCU B   3      -1.813  23.154   1.3160  0.00  0.00     0.000 C
ATOM     38  C5  GCU B   3      -1.737  23.026   2.8390  0.00  0.00     0.000 C
ATOM     39  O5  GCU B   3      -3.066  22.886   3.3510  0.00  0.00     0.000 O
ATOM     40   O  GCU B   3      -4.469  20.546   0.8970  0.00  0.00     0.000 O
ATOM     42  HD  GCU B   3      -4.369  19.903   0.3250  0.00  0.00     0.000 HD
ATOM     42   O  GCU B   3      -2.573  22.035  -0.7000  0.00  0.00     0.000 O
ATOM     44  HD  GCU B   3      -2.474  21.392  -1.2720  0.00  0.00     0.000 HD
BRANCH 38 44
ATOM     44   C  GCU B   3      -1.096  24.225   3.4920  0.00  0.00     0.000 C
ATOM     45   O  GCU B   3      -0.013  24.073   4.0780  0.00  0.00     0.000 OA
ATOM     46   O  GCU B   3      -1.656  25.336   3.4290  0.00  0.00     0.000 OA
ENDBRANCH 38 44
BRANCH 34 47
ATOM     47  O3  NAG B   4      -4.963  21.793   3.3940  0.00  0.00     0.000 O
BRANCH 47 50
ATOM     48  C1  NAG B   4      -6.947  22.472   6.4520  0.00  0.00     0.000 C
ATOM     49  C2  NAG B   4      -5.831  21.888   5.5940  0.00  0.00     0.000 C
ATOM     50  C3  NAG B   4      -5.677  22.647   4.2860  0.00  0.00     0.000 C
ATOM     51  C4  NAG B   4      -7.011  23.051   3.6460  0.00  0.00     0.000 C
ATOM     52  C5  NAG B   4      -7.819  23.943   4.5740  0.00  0.00     0.000 C
ATOM     53  O5  NAG B   4      -7.803  23.523   5.9570  0.00  0.00     0.000 O
BRANCH 49 56
ATOM     54   N  NAG B   4      -4.766  22.472   6.4290  0.00  0.00     0.000 N
ATOM     56  HD  NAG B   4      -4.772  23.267   6.7720  0.00  0.00     0.000 HD
ATOM     56   C  NAG B   4      -2.647  22.665   7.5970  0.00  0.00     0.000 C
ATOM     57   O  NAG B   4      -3.128  20.933   6.0900  0.00  0.00     0.000 OA
ATOM     58   C  NAG B   4      -3.540  21.950   6.6290  0.00  0.00     0.000 C
ENDBRANCH 49 56
ATOM     59   O  NAG B   4      -9.986  25.123   4.6530  0.00  0.00     0.000 O
ATOM     61  HD  NAG B   4      -9.521  24.414   4.8310  0.00  0.00     0.000 HD
ATOM     61   O  NAG B   4      -9.986  25.123   4.6530  0.00  0.00     0.000 O
ATOM     63  HD  NAG B   4      -9.521  24.414   4.8310  0.00  0.00     0.000 HD
ENDBRANCH 47 50
ENDBRANCH 34 47
ENDBRANCH 33 37
ENDBRANCH 17 33
ENDBRANCH 16 19
ENDBRANCH 1 16
TORSDOF 10
ENDMDL
MODEL 91
REMARK VINA RESULT:      -7.5      6.956     12.195
ROOT
ATOM      1  C1  GCU B   1       4.651  29.250  -6.7240  0.00  0.00     0.000 C
ATOM      2  C2  GCU B   1       3.360  29.132  -5.9280  0.00  0.00     0.000 C
ATOM      3  C3  GCU B   1       2.375  28.222  -6.6440  0.00  0.00     0.000 C
ATOM      4  C4  GCU B   1       2.206  28.664  -8.0890  0.00  0.00     0.000 C
ATOM      5  C5  GCU B   1       3.562  28.811  -8.7810  0.00  0.00     0.000 C
ATOM      6  O5  GCU B   1       4.367  29.741  -8.0450  0.00  0.00     0.000 O
ATOM      7   O  GCU B   1       3.690  28.608  -4.6450  0.00  0.00     0.000 O
ATOM      9  HD  GCU B   1       3.467  28.950  -3.8810  0.00  0.00     0.000 HD
ATOM      9   O  GCU B   1       1.107  28.233  -5.9830  0.00  0.00     0.000 O
ATOM     11  HD  GCU B   1       0.884  28.575  -5.2190  0.00  0.00     0.000 HD
ATOM     11   O  GCU B   1       1.413  27.696  -8.7780  0.00  0.00     0.000 O
ATOM     13  HD  GCU B   1       1.190  28.037  -8.0140  0.00  0.00     0.000 HD
ENDROOT
BRANCH 5 13
ATOM     13   C  GCU B   1       3.363  29.236 -10.2160  0.00  0.00     0.000 C
ATOM     14   O  GCU B   1       3.389  28.391 -11.1350  0.00  0.00     0.000 OA
ATOM     15   O  GCU B   1       3.147  30.445 -10.4320  0.00  0.00     0.000 OA
ENDBRANCH 5 13
BRANCH 1 16
ATOM     16  O3  NAG B   2       5.527  30.256  -6.7080  0.00  0.00     0.000 O
BRANCH 16 19
ATOM     17  C1  NAG B   2       9.028  30.839  -5.4310  0.00  0.00     0.000 C
ATOM     18  C2  NAG B   2       7.528  30.585  -5.3510  0.00  0.00     0.000 C
ATOM     19  C3  NAG B   2       6.962  30.316  -6.7440  0.00  0.00     0.000 C
ATOM     20  C4  NAG B   2       7.367  31.431  -7.7080  0.00  0.00     0.000 C
ATOM     21  C5  NAG B   2       8.881  31.589  -7.7060  0.00  0.00     0.000 C
ATOM     22  O5  NAG B   2       9.316  31.888  -6.3680  0.00  0.00     0.000 O
ATOM     23   O  NAG B   2       6.881  31.098  -9.0130  0.00  0.00     0.000 O
ATOM     25  HD  NAG B   2       6.516  31.775  -8.6170  0.00  0.00     0.000 HD
ATOM     25   C  NAG B   2       9.361  32.679  -8.6620  0.00  0.00     0.000 C
ATOM     26   O  NAG B   2       9.071  33.992  -8.1590  0.00  0.00     0.000 O
ATOM     28  HD  NAG B   2       8.705  34.670  -7.7630  0.00  0.00     0.000 HD
BRANCH 18 30
ATOM     28   N  NAG B   2       7.643  29.724  -4.1900  0.00  0.00     0.000 N
ATOM     30  HD  NAG B   2       6.843  30.046  -4.1180  0.00  0.00     0.000 HD
ATOM     30   C  NAG B   2       6.717  29.641  -3.2270  0.00  0.00     0.000 C
ATOM     31   C  NAG B   2       7.001  28.734  -2.0630  0.00  0.00     0.000 C
ATOM     32   O  NAG B   2       5.680  30.272  -3.2800  0.00  0.00     0.000 OA
ENDBRANCH 18 30
BRANCH 17 33
ATOM     33  O4  GCU B   3       9.494  31.120  -4.0960  0.00  0.00     0.000 O
BRANCH 33 37
ATOM     34  C1  GCU B   3      13.350  31.474  -2.5660  0.00  0.00     0.000 C
ATOM     35  C2  GCU B   3      12.775  32.670  -3.3250  0.00  0.00     0.000 C
ATOM     36  C3  GCU B   3      11.270  32.533  -3.4240  0.00  0.00     0.000 C
ATOM     37  C4  GCU B   3      10.920  31.192  -4.0540  0.00  0.00     0.000 C
ATOM     38  C5  GCU B   3      11.533  30.059  -3.2280  0.00  0.00     0.000 C
ATOM     39  O5  GCU B   3      12.952  30.246  -3.1820  0.00  0.00     0.000 O
ATOM     40   O  GCU B   3      13.116  33.869  -2.6260  0.00  0.00     0.000 O
ATOM     42  HD  GCU B   3      12.774  34.601  -2.3130  0.00  0.00     0.000 HD
ATOM     42   O  GCU B   3      10.702  33.606  -4.1950  0.00  0.00     0.000 O
ATOM     44  HD  GCU B   3      10.359  34.337  -3.8820  0.00  0.00     0.000 HD
BRANCH 38 44
ATOM     44   C  GCU B   3      11.249  28.697  -3.8080  0.00  0.00     0.000 C
ATOM     45   O  GCU B   3      10.134  28.189  -3.6120  0.00  0.00     0.000 OA
ATOM     46   O  GCU B   3      12.127  28.111  -4.4710  0.00  0.00     0.000 OA
ENDBRANCH 38 44
BRANCH 34 47
ATOM     47  O3  NAG B   4      14.671  31.500  -2.6650  0.00  0.00     0.000 O
BRANCH 47 50
ATOM     48  C1  NAG B   4      16.271  30.689   0.5810  0.00  0.00     0.000 C
ATOM     49  C2  NAG B   4      15.342  30.521  -0.6170  0.00  0.00     0.000 C
ATOM     50  C3  NAG B   4      15.794  31.368  -1.7960  0.00  0.00     0.000 C
ATOM     51  C4  NAG B   4      16.297  32.761  -1.3990  0.00  0.00     0.000 C
ATOM     52  C5  NAG B   4      17.481  32.669  -0.4500  0.00  0.00     0.000 C
ATOM     53  O5  NAG B   4      17.341  31.657   0.5710  0.00  0.00     0.000 O
BRANCH 49 56
ATOM     54   N  NAG B   4      15.774  29.263  -1.2520  0.00  0.00     0.000 N
ATOM     56  HD  NAG B   4      16.310  29.196  -1.9280  0.00  0.00     0.000 HD
ATOM     56   C  NAG B   4      15.915  26.883  -1.7050  0.00  0.00     0.000 C
ATOM     57   O  NAG B   4      14.311  27.823  -0.2750  0.00  0.00     0.000 OA
ATOM     58   C  NAG B   4      15.257  28.040  -1.0180  0.00  0.00     0.000 C
ENDBRANCH 49 56
ATOM     59   O  NAG B   4      19.020  34.137   0.8050  0.00  0.00     0.000 O
ATOM     61  HD  NAG B   4      18.288  33.674   0.7850  0.00  0.00     0.000 HD
ATOM     61   O  NAG B   4      19.020  34.137   0.8050  0.00  0.00     0.000 O
ATOM     63  HD  NAG B   4      18.288  33.674   0.7850  0.00  0.00     0.000 HD
ENDBRANCH 47 50
ENDBRANCH 34 47
ENDBRANCH 33 37
ENDBRANCH 17 33
ENDBRANCH 16 19
ENDBRANCH 1 16
TORSDOF 10
ENDMDL
MODEL 92
REMARK VINA RESULT:      -7.5      6.434     16.425
ROOT
ATOM      1  C1  GCU B   1      -6.401  23.188   2.0620  0.00  0.00     0.000 C
ATOM      2  C2  GCU B   1      -6.465  22.095   3.1180  0.00  0.00     0.000 C
ATOM      3  C3  GCU B   1      -7.783  21.342   3.0250  0.00  0.00     0.000 C
ATOM      4  C4  GCU B   1      -8.948  22.320   3.0320  0.00  0.00     0.000 C
ATOM      5  C5  GCU B   1      -8.757  23.411   1.9770  0.00  0.00     0.000 C
ATOM      6  O5  GCU B   1      -7.513  24.083   2.2170  0.00  0.00     0.000 O
ATOM      7   O  GCU B   1      -5.366  21.216   2.8990  0.00  0.00     0.000 O
ATOM      9  HD  GCU B   1      -4.783  20.970   3.4900  0.00  0.00     0.000 HD
ATOM      9   O  GCU B   1      -7.917  20.422   4.1110  0.00  0.00     0.000 O
ATOM     11  HD  GCU B   1      -7.334  20.176   4.7030  0.00  0.00     0.000 HD
ATOM     11   O  GCU B   1     -10.155  21.602   2.7710  0.00  0.00     0.000 O
ATOM     13  HD  GCU B   1      -9.572  21.355   3.3620  0.00  0.00     0.000 HD
ENDROOT
BRANCH 5 13
ATOM     13   C  GCU B   1      -9.933  24.357   1.9980  0.00  0.00     0.000 C
ATOM     14   O  GCU B   1     -10.833  24.227   2.8530  0.00  0.00     0.000 OA
ATOM     15   O  GCU B   1      -9.947  25.274   1.1540  0.00  0.00     0.000 OA
ENDBRANCH 5 13
BRANCH 1 16
ATOM     16  O3  NAG B   2      -5.688  24.316   2.1020  0.00  0.00     0.000 O
BRANCH 16 19
ATOM     17  C1  NAG B   2      -2.911  25.426  -0.1960  0.00  0.00     0.000 C
ATOM     18  C2  NAG B   2      -3.684  24.487   0.7210  0.00  0.00     0.000 C
ATOM     19  C3  NAG B   2      -5.030  25.103   1.0980  0.00  0.00     0.000 C
ATOM     20  C4  NAG B   2      -4.833  26.513   1.6530  0.00  0.00     0.000 C
ATOM     21  C5  NAG B   2      -4.056  27.358   0.6530  0.00  0.00     0.000 C
ATOM     22  O5  NAG B   2      -2.788  26.728   0.3980  0.00  0.00     0.000 O
ATOM     23   O  NAG B   2      -6.122  27.078   1.9180  0.00  0.00     0.000 O
ATOM     25  HD  NAG B   2      -5.621  26.899   2.6010  0.00  0.00     0.000 HD
ATOM     25   C  NAG B   2      -3.835  28.790   1.1350  0.00  0.00     0.000 C
ATOM     26   O  NAG B   2      -2.853  28.851   2.1810  0.00  0.00     0.000 O
ATOM     28  HD  NAG B   2      -2.352  28.672   2.8650  0.00  0.00     0.000 HD
BRANCH 18 30
ATOM     28   N  NAG B   2      -2.811  23.331   0.7900  0.00  0.00     0.000 N
ATOM     30  HD  NAG B   2      -3.526  23.016   0.4180  0.00  0.00     0.000 HD
ATOM     30   C  NAG B   2      -3.188  22.090   0.4580  0.00  0.00     0.000 C
ATOM     31   C  NAG B   2      -2.181  20.987   0.6270  0.00  0.00     0.000 C
ATOM     32   O  NAG B   2      -4.301  21.850   0.0360  0.00  0.00     0.000 OA
ENDBRANCH 18 30
BRANCH 17 33
ATOM     33  O4  GCU B   3      -1.642  24.806  -0.4850  0.00  0.00     0.000 O
BRANCH 33 37
ATOM     34  C1  GCU B   3       1.152  25.665  -3.4490  0.00  0.00     0.000 C
ATOM     35  C2  GCU B   3       1.335  26.334  -2.0860  0.00  0.00     0.000 C
ATOM     36  C3  GCU B   3       0.517  25.598  -1.0470  0.00  0.00     0.000 C
ATOM     37  C4  GCU B   3      -0.936  25.528  -1.4960  0.00  0.00     0.000 C
ATOM     38  C5  GCU B   3      -1.020  24.845  -2.8620  0.00  0.00     0.000 C
ATOM     39  O5  GCU B   3      -0.234  25.593  -3.7950  0.00  0.00     0.000 O
ATOM     40   O  GCU B   3       2.721  26.302  -1.7370  0.00  0.00     0.000 O
ATOM     42  HD  GCU B   3       3.260  26.091  -1.0930  0.00  0.00     0.000 HD
ATOM     42   O  GCU B   3       0.608  26.244   0.2360  0.00  0.00     0.000 O
ATOM     44  HD  GCU B   3       1.147  26.032   0.8800  0.00  0.00     0.000 HD
BRANCH 38 44
ATOM     44   C  GCU B   3      -2.432  24.761  -3.3850  0.00  0.00     0.000 C
ATOM     45   O  GCU B   3      -3.022  25.814  -3.6710  0.00  0.00     0.000 OA
ATOM     46   O  GCU B   3      -2.976  23.649  -3.5220  0.00  0.00     0.000 OA
ENDBRANCH 38 44
BRANCH 34 47
ATOM     47  O3  NAG B   4       1.702  26.434  -4.3790  0.00  0.00     0.000 O
BRANCH 47 50
ATOM     48  C1  NAG B   4       2.167  29.674  -6.1230  0.00  0.00     0.000 C
ATOM     49  C2  NAG B   4       1.434  28.441  -5.6050  0.00  0.00     0.000 C
ATOM     50  C3  NAG B   4       2.204  27.765  -4.4820  0.00  0.00     0.000 C
ATOM     51  C4  NAG B   4       3.720  27.722  -4.7100  0.00  0.00     0.000 C
ATOM     52  C5  NAG B   4       4.296  29.121  -4.8510  0.00  0.00     0.000 C
ATOM     53  O5  NAG B   4       3.490  30.012  -5.6550  0.00  0.00     0.000 O
BRANCH 49 56
ATOM     54   N  NAG B   4       0.446  29.180  -4.8000  0.00  0.00     0.000 N
ATOM     56  HD  NAG B   4       0.629  29.749  -4.1730  0.00  0.00     0.000 HD
ATOM     56   C  NAG B   4      -1.714  29.888  -3.9490  0.00  0.00     0.000 C
ATOM     57   O  NAG B   4      -1.438  28.045  -5.3720  0.00  0.00     0.000 OA
ATOM     58   C  NAG B   4      -0.881  28.949  -4.7670  0.00  0.00     0.000 C
ENDBRANCH 49 56
ATOM     59   O  NAG B   4       6.456  30.248  -5.2450  0.00  0.00     0.000 O
ATOM     61  HD  NAG B   4       5.725  29.915  -5.5670  0.00  0.00     0.000 HD
ATOM     61   O  NAG B   4       6.456  30.248  -5.2450  0.00  0.00     0.000 O
ATOM     63  HD  NAG B   4       5.725  29.915  -5.5670  0.00  0.00     0.000 HD
ENDBRANCH 47 50
ENDBRANCH 34 47
ENDBRANCH 33 37
ENDBRANCH 17 33
ENDBRANCH 16 19
ENDBRANCH 1 16
TORSDOF 10
ENDMDL
MODEL 93
REMARK VINA RESULT:      -7.5      8.202     12.557
ROOT
ATOM      1  C1  GCU B   1       3.574  27.082  -2.5440  0.00  0.00     0.000 C
ATOM      2  C2  GCU B   1       4.814  26.672  -3.3230  0.00  0.00     0.000 C
ATOM      3  C3  GCU B   1       6.072  27.065  -2.5650  0.00  0.00     0.000 C
ATOM      4  C4  GCU B   1       6.011  28.533  -2.1700  0.00  0.00     0.000 C
ATOM      5  C5  GCU B   1       4.701  28.853  -1.4480  0.00  0.00     0.000 C
ATOM      6  O5  GCU B   1       3.599  28.496  -2.2930  0.00  0.00     0.000 O
ATOM      7   O  GCU B   1       4.759  25.262  -3.5130  0.00  0.00     0.000 O
ATOM      9  HD  GCU B   1       4.837  24.844  -4.2680  0.00  0.00     0.000 HD
ATOM      9   O  GCU B   1       7.235  26.827  -3.3620  0.00  0.00     0.000 O
ATOM     11  HD  GCU B   1       7.313  26.410  -4.1170  0.00  0.00     0.000 HD
ATOM     11   O  GCU B   1       7.118  28.828  -1.3180  0.00  0.00     0.000 O
ATOM     13  HD  GCU B   1       7.196  28.410  -2.0720  0.00  0.00     0.000 HD
ENDROOT
BRANCH 5 13
ATOM     13   C  GCU B   1       4.674  30.311  -1.0560  0.00  0.00     0.000 C
ATOM     14   O  GCU B   1       4.169  30.663   0.0300  0.00  0.00     0.000 OA
ATOM     15   O  GCU B   1       5.195  31.126  -1.8410  0.00  0.00     0.000 OA
ENDBRANCH 5 13
BRANCH 1 16
ATOM     16  O3  NAG B   2       2.359  27.348  -3.0290  0.00  0.00     0.000 O
BRANCH 16 19
ATOM     17  C1  NAG B   2      -0.919  26.231  -1.5350  0.00  0.00     0.000 C
ATOM     18  C2  NAG B   2       0.529  26.111  -1.9930  0.00  0.00     0.000 C
ATOM     19  C3  NAG B   2       1.062  27.476  -2.4270  0.00  0.00     0.000 C
ATOM     20  C4  NAG B   2       0.123  28.112  -3.4510  0.00  0.00     0.000 C
ATOM     21  C5  NAG B   2      -1.288  28.183  -2.8840  0.00  0.00     0.000 C
ATOM     22  O5  NAG B   2      -1.723  26.852  -2.5510  0.00  0.00     0.000 O
ATOM     23   O  NAG B   2       0.620  29.417  -3.7690  0.00  0.00     0.000 O
ATOM     25  HD  NAG B   2       0.655  28.818  -4.3930  0.00  0.00     0.000 HD
ATOM     25   C  NAG B   2      -2.281  28.825  -3.8500  0.00  0.00     0.000 C
ATOM     26   O  NAG B   2      -2.601  27.949  -4.9420  0.00  0.00     0.000 O
ATOM     28  HD  NAG B   2      -2.565  27.350  -5.5670  0.00  0.00     0.000 HD
BRANCH 18 30
ATOM     28   N  NAG B   2       0.960  25.303  -0.8680  0.00  0.00     0.000 N
ATOM     30  HD  NAG B   2       1.455  25.017  -1.5180  0.00  0.00     0.000 HD
ATOM     30   C  NAG B   2       1.825  24.286  -0.9670  0.00  0.00     0.000 C
ATOM     31   C  NAG B   2       2.139  23.514   0.2830  0.00  0.00     0.000 C
ATOM     32   O  NAG B   2       2.343  23.987  -2.0250  0.00  0.00     0.000 OA
ENDBRANCH 18 30
BRANCH 17 33
ATOM     33  O4  GCU B   3      -1.373  24.911  -1.1740  0.00  0.00     0.000 O
BRANCH 33 37
ATOM     34  C1  GCU B   3      -4.596  23.689   1.1610  0.00  0.00     0.000 C
ATOM     35  C2  GCU B   3      -4.857  23.969  -0.3200  0.00  0.00     0.000 C
ATOM     36  C3  GCU B   3      -3.545  23.976  -1.0740  0.00  0.00     0.000 C
ATOM     37  C4  GCU B   3      -2.591  24.972  -0.4300  0.00  0.00     0.000 C
ATOM     38  C5  GCU B   3      -2.388  24.612   1.0430  0.00  0.00     0.000 C
ATOM     39  O5  GCU B   3      -3.662  24.631   1.6960  0.00  0.00     0.000 O
ATOM     40   O  GCU B   3      -5.719  22.953  -0.8380  0.00  0.00     0.000 O
ATOM     42  HD  GCU B   3      -5.800  22.393  -1.4930  0.00  0.00     0.000 HD
ATOM     42   O  GCU B   3      -3.746  24.308  -2.4600  0.00  0.00     0.000 O
ATOM     44  HD  GCU B   3      -3.827  23.748  -3.1150  0.00  0.00     0.000 HD
BRANCH 38 44
ATOM     44   C  GCU B   3      -1.471  25.573   1.7570  0.00  0.00     0.000 C
ATOM     45   O  GCU B   3      -0.264  25.297   1.8320  0.00  0.00     0.000 OA
ATOM     46   O  GCU B   3      -1.935  26.619   2.2500  0.00  0.00     0.000 OA
ENDBRANCH 38 44
BRANCH 34 47
ATOM     47  O3  NAG B   4      -5.718  23.889   1.8380  0.00  0.00     0.000 O
BRANCH 47 50
ATOM     48  C1  NAG B   4      -6.860  20.753   3.4550  0.00  0.00     0.000 C
ATOM     49  C2  NAG B   4      -5.883  21.825   2.9850  0.00  0.00     0.000 C
ATOM     50  C3  NAG B   4      -6.596  23.129   2.6660  0.00  0.00     0.000 C
ATOM     51  C4  NAG B   4      -7.937  22.938   1.9460  0.00  0.00     0.000 C
ATOM     52  C5  NAG B   4      -8.898  22.110   2.7830  0.00  0.00     0.000 C
ATOM     53  O5  NAG B   4      -8.286  20.976   3.4350  0.00  0.00     0.000 O
BRANCH 49 56
ATOM     54   N  NAG B   4      -5.277  22.371   4.2130  0.00  0.00     0.000 N
ATOM     56  HD  NAG B   4      -5.500  23.113   4.6000  0.00  0.00     0.000 HD
ATOM     56   C  NAG B   4      -3.777  22.562   6.1110  0.00  0.00     0.000 C
ATOM     57   O  NAG B   4      -3.464  21.010   4.3810  0.00  0.00     0.000 OA
ATOM     58   C  NAG B   4      -4.160  21.917   4.8150  0.00  0.00     0.000 C
ENDBRANCH 49 56
ATOM     59   O  NAG B   4     -11.185  21.186   2.6780  0.00  0.00     0.000 O
ATOM     61  HD  NAG B   4     -10.336  21.081   2.5430  0.00  0.00     0.000 HD
ATOM     61   O  NAG B   4     -11.185  21.186   2.6780  0.00  0.00     0.000 O
ATOM     63  HD  NAG B   4     -10.336  21.081   2.5430  0.00  0.00     0.000 HD
ENDBRANCH 47 50
ENDBRANCH 34 47
ENDBRANCH 33 37
ENDBRANCH 17 33
ENDBRANCH 16 19
ENDBRANCH 1 16
TORSDOF 10
ENDMDL
MODEL 94
REMARK VINA RESULT:      -7.5      4.490     12.277
ROOT
ATOM      1  C1  GCU B   1       5.032  30.474  -7.5450  0.00  0.00     0.000 C
ATOM      2  C2  GCU B   1       3.754  29.669  -7.7250  0.00  0.00     0.000 C
ATOM      3  C3  GCU B   1       2.900  29.738  -6.4690  0.00  0.00     0.000 C
ATOM      4  C4  GCU B   1       3.731  29.371  -5.2490  0.00  0.00     0.000 C
ATOM      5  C5  GCU B   1       5.020  30.192  -5.1940  0.00  0.00     0.000 C
ATOM      6  O5  GCU B   1       5.759  29.987  -6.4050  0.00  0.00     0.000 O
ATOM      7   O  GCU B   1       3.055  30.212  -8.8410  0.00  0.00     0.000 O
ATOM      9  HD  GCU B   1       2.761  29.769  -9.5240  0.00  0.00     0.000 HD
ATOM      9   O  GCU B   1       1.778  28.858  -6.5730  0.00  0.00     0.000 O
ATOM     11  HD  GCU B   1       1.484  28.415  -7.2560  0.00  0.00     0.000 HD
ATOM     11   O  GCU B   1       2.955  29.610  -4.0740  0.00  0.00     0.000 O
ATOM     13  HD  GCU B   1       2.661  29.167  -4.7570  0.00  0.00     0.000 HD
ENDROOT
BRANCH 5 13
ATOM     13   C  GCU B   1       5.816  29.816  -3.9670  0.00  0.00     0.000 C
ATOM     14   O  GCU B   1       6.139  30.687  -3.1330  0.00  0.00     0.000 OA
ATOM     15   O  GCU B   1       6.105  28.614  -3.8160  0.00  0.00     0.000 OA
ENDBRANCH 5 13
BRANCH 1 16
ATOM     16  O3  NAG B   2       6.199  30.297  -8.1680  0.00  0.00     0.000 O
BRANCH 16 19
ATOM     17  C1  NAG B   2       8.333  32.549 -10.3140  0.00  0.00     0.000 C
ATOM     18  C2  NAG B   2       7.090  31.774  -9.8940  0.00  0.00     0.000 C
ATOM     19  C3  NAG B   2       7.284  31.177  -8.5010  0.00  0.00     0.000 C
ATOM     20  C4  NAG B   2       8.583  30.374  -8.4420  0.00  0.00     0.000 C
ATOM     21  C5  NAG B   2       9.750  31.249  -8.8770  0.00  0.00     0.000 C
ATOM     22  O5  NAG B   2       9.504  31.723 -10.2130  0.00  0.00     0.000 O
ATOM     23   O  NAG B   2       8.761  29.901  -7.1020  0.00  0.00     0.000 O
ATOM     25  HD  NAG B   2       8.596  29.308  -7.7120  0.00  0.00     0.000 HD
ATOM     25   C  NAG B   2      11.089  30.515  -8.8280  0.00  0.00     0.000 C
ATOM     26   O  NAG B   2      11.209  29.560  -9.8930  0.00  0.00     0.000 O
ATOM     28  HD  NAG B   2      11.044  28.967 -10.5030  0.00  0.00     0.000 HD
BRANCH 18 30
ATOM     28   N  NAG B   2       6.211  32.787 -10.4460  0.00  0.00     0.000 N
ATOM     30  HD  NAG B   2       5.703  32.087 -10.4020  0.00  0.00     0.000 HD
ATOM     30   C  NAG B   2       4.970  32.541 -10.8820  0.00  0.00     0.000 C
ATOM     31   C  NAG B   2       4.197  33.688 -11.4700  0.00  0.00     0.000 C
ATOM     32   O  NAG B   2       4.474  31.434 -10.8120  0.00  0.00     0.000 OA
ENDBRANCH 18 30
BRANCH 17 33
ATOM     33  O4  GCU B   3       8.102  33.055 -11.6440  0.00  0.00     0.000 O
BRANCH 33 37
ATOM     34  C1  GCU B   3       9.378  36.654 -13.3010  0.00  0.00     0.000 C
ATOM     35  C2  GCU B   3      10.074  35.374 -13.7640  0.00  0.00     0.000 C
ATOM     36  C3  GCU B   3       9.223  34.175 -13.4020  0.00  0.00     0.000 C
ATOM     37  C4  GCU B   3       8.922  34.194 -11.9100  0.00  0.00     0.000 C
ATOM     38  C5  GCU B   3       8.226  35.507 -11.5420  0.00  0.00     0.000 C
ATOM     39  O5  GCU B   3       9.085  36.594 -11.9020  0.00  0.00     0.000 O
ATOM     40   O  GCU B   3      10.264  35.436 -15.1790  0.00  0.00     0.000 O
ATOM     42  HD  GCU B   3      10.144  34.981 -15.9060  0.00  0.00     0.000 HD
ATOM     42   O  GCU B   3       9.882  32.946 -13.7580  0.00  0.00     0.000 O
ATOM     44  HD  GCU B   3       9.762  32.492 -14.4850  0.00  0.00     0.000 HD
BRANCH 38 44
ATOM     44   C  GCU B   3       7.918  35.609 -10.0690  0.00  0.00     0.000 C
ATOM     45   O  GCU B   3       8.844  35.864  -9.2850  0.00  0.00     0.000 OA
ATOM     46   O  GCU B   3       6.750  35.440  -9.6700  0.00  0.00     0.000 OA
ENDBRANCH 38 44
BRANCH 34 47
ATOM     47  O3  NAG B   4      10.219  37.670 -13.4350  0.00  0.00     0.000 O
BRANCH 47 50
ATOM     48  C1  NAG B   4      11.098  41.214 -14.0870  0.00  0.00     0.000 C
ATOM     49  C2  NAG B   4      10.577  39.811 -14.3800  0.00  0.00     0.000 C
ATOM     50  C3  NAG B   4      10.257  39.056 -13.1000  0.00  0.00     0.000 C
ATOM     51  C4  NAG B   4      11.278  39.281 -11.9790  0.00  0.00     0.000 C
ATOM     52  C5  NAG B   4      11.371  40.752 -11.6050  0.00  0.00     0.000 C
ATOM     53  O5  NAG B   4      11.363  41.649 -12.7370  0.00  0.00     0.000 O
BRANCH 49 56
ATOM     54   N  NAG B   4       9.214  40.230 -14.7510  0.00  0.00     0.000 N
ATOM     56  HD  NAG B   4       8.673  40.688 -14.2540  0.00  0.00     0.000 HD
ATOM     56   C  NAG B   4       7.182  40.438 -16.0630  0.00  0.00     0.000 C
ATOM     57   O  NAG B   4       8.920  38.963 -16.6150  0.00  0.00     0.000 OA
ATOM     58   C  NAG B   4       8.519  39.805 -15.8260  0.00  0.00     0.000 C
ENDBRANCH 49 56
ATOM     59   O  NAG B   4      12.596  42.239 -10.0630  0.00  0.00     0.000 O
ATOM     61  HD  NAG B   4      12.535  41.869 -10.8430  0.00  0.00     0.000 HD
ATOM     61   O  NAG B   4      12.596  42.239 -10.0630  0.00  0.00     0.000 O
ATOM     63  HD  NAG B   4      12.535  41.869 -10.8430  0.00  0.00     0.000 HD
ENDBRANCH 47 50
ENDBRANCH 34 47
ENDBRANCH 33 37
ENDBRANCH 17 33
ENDBRANCH 16 19
ENDBRANCH 1 16
TORSDOF 10
ENDMDL
MODEL 95
REMARK VINA RESULT:      -7.4      5.027     11.834
ROOT
ATOM      1  C1  GCU B   1       0.329  26.441  -5.0990  0.00  0.00     0.000 C
ATOM      2  C2  GCU B   1      -0.701  25.394  -5.4950  0.00  0.00     0.000 C
ATOM      3  C3  GCU B   1      -1.918  26.055  -6.1220  0.00  0.00     0.000 C
ATOM      4  C4  GCU B   1      -2.436  27.164  -5.2200  0.00  0.00     0.000 C
ATOM      5  C5  GCU B   1      -1.313  28.127  -4.8310  0.00  0.00     0.000 C
ATOM      6  O5  GCU B   1      -0.261  27.389  -4.1950  0.00  0.00     0.000 O
ATOM      7   O  GCU B   1      -0.080  24.503  -6.4170  0.00  0.00     0.000 O
ATOM      9  HD  GCU B   1      -0.056  23.640  -6.3570  0.00  0.00     0.000 HD
ATOM      9   O  GCU B   1      -2.952  25.094  -6.3500  0.00  0.00     0.000 O
ATOM     11  HD  GCU B   1      -2.929  24.231  -6.2890  0.00  0.00     0.000 HD
ATOM     11   O  GCU B   1      -3.466  27.876  -5.9080  0.00  0.00     0.000 O
ATOM     13  HD  GCU B   1      -3.442  27.012  -5.8470  0.00  0.00     0.000 HD
ENDROOT
BRANCH 5 13
ATOM     13   C  GCU B   1      -1.858  29.224  -3.9480  0.00  0.00     0.000 C
ATOM     14   O  GCU B   1      -1.869  29.088  -2.7070  0.00  0.00     0.000 OA
ATOM     15   O  GCU B   1      -2.262  30.262  -4.5060  0.00  0.00     0.000 OA
ENDBRANCH 5 13
BRANCH 1 16
ATOM     16  O3  NAG B   2       1.259  26.347  -4.1470  0.00  0.00     0.000 O
BRANCH 16 19
ATOM     17  C1  NAG B   2       4.576  28.092  -3.7220  0.00  0.00     0.000 C
ATOM     18  C2  NAG B   2       3.508  27.256  -4.4150  0.00  0.00     0.000 C
ATOM     19  C3  NAG B   2       2.213  27.274  -3.6050  0.00  0.00     0.000 C
ATOM     20  C4  NAG B   2       2.488  26.878  -2.1540  0.00  0.00     0.000 C
ATOM     21  C5  NAG B   2       3.563  27.782  -1.5680  0.00  0.00     0.000 C
ATOM     22  O5  NAG B   2       4.756  27.662  -2.3640  0.00  0.00     0.000 O
ATOM     23   O  NAG B   2       1.264  26.985  -1.4180  0.00  0.00     0.000 O
ATOM     25  HD  NAG B   2       1.584  26.189  -1.5400  0.00  0.00     0.000 HD
ATOM     25   C  NAG B   2       3.879  27.454  -0.1100  0.00  0.00     0.000 C
ATOM     26   O  NAG B   2       4.625  26.233   0.0100  0.00  0.00     0.000 O
ATOM     28  HD  NAG B   2       4.945  25.437  -0.1120  0.00  0.00     0.000 HD
BRANCH 18 30
ATOM     28   N  NAG B   2       4.092  26.725  -5.6320  0.00  0.00     0.000 N
ATOM     30  HD  NAG B   2       3.557  27.341  -5.9220  0.00  0.00     0.000 HD
ATOM     30   C  NAG B   2       3.707  27.084  -6.8630  0.00  0.00     0.000 C
ATOM     31   C  NAG B   2       4.378  26.411  -8.0270  0.00  0.00     0.000 C
ATOM     32   O  NAG B   2       2.845  27.921  -7.0460  0.00  0.00     0.000 OA
ENDBRANCH 18 30
BRANCH 17 33
ATOM     33  O4  GCU B   3       5.778  28.006  -4.5140  0.00  0.00     0.000 O
BRANCH 33 37
ATOM     34  C1  GCU B   3       8.866  30.741  -5.0780  0.00  0.00     0.000 C
ATOM     35  C2  GCU B   3       8.640  30.207  -3.6630  0.00  0.00     0.000 C
ATOM     36  C3  GCU B   3       7.800  28.949  -3.7230  0.00  0.00     0.000 C
ATOM     37  C4  GCU B   3       6.508  29.234  -4.4760  0.00  0.00     0.000 C
ATOM     38  C5  GCU B   3       6.832  29.759  -5.8750  0.00  0.00     0.000 C
ATOM     39  O5  GCU B   3       7.618  30.948  -5.7450  0.00  0.00     0.000 O
ATOM     40   O  GCU B   3       9.908  29.926  -3.0660  0.00  0.00     0.000 O
ATOM     42  HD  GCU B   3      10.343  29.310  -2.6390  0.00  0.00     0.000 HD
ATOM     42   O  GCU B   3       7.506  28.458  -2.4030  0.00  0.00     0.000 O
ATOM     44  HD  GCU B   3       7.941  27.843  -1.9760  0.00  0.00     0.000 HD
BRANCH 38 44
ATOM     44   C  GCU B   3       5.596  30.089  -6.6740  0.00  0.00     0.000 C
ATOM     45   O  GCU B   3       4.608  30.545  -6.0780  0.00  0.00     0.000 OA
ATOM     46   O  GCU B   3       5.588  29.902  -7.9060  0.00  0.00     0.000 OA
ENDBRANCH 38 44
BRANCH 34 47
ATOM     47  O3  NAG B   4       9.421  31.942  -4.9970  0.00  0.00     0.000 O
BRANCH 47 50
ATOM     48  C1  NAG B   4      12.370  34.170  -5.3030  0.00  0.00     0.000 C
ATOM     49  C2  NAG B   4      11.534  32.992  -4.8140  0.00  0.00     0.000 C
ATOM     50  C3  NAG B   4      10.359  32.719  -5.7390  0.00  0.00     0.000 C
ATOM     51  C4  NAG B   4       9.674  33.989  -6.2570  0.00  0.00     0.000 C
ATOM     52  C5  NAG B   4      10.645  34.862  -7.0340  0.00  0.00     0.000 C
ATOM     53  O5  NAG B   4      11.954  34.968  -6.4310  0.00  0.00     0.000 O
BRANCH 49 56
ATOM     54   N  NAG B   4      12.415  31.915  -5.3000  0.00  0.00     0.000 N
ATOM     56  HD  NAG B   4      12.591  31.742  -6.1300  0.00  0.00     0.000 HD
ATOM     56   C  NAG B   4      13.879  29.980  -5.2390  0.00  0.00     0.000 C
ATOM     57   O  NAG B   4      12.675  30.736  -3.3740  0.00  0.00     0.000 OA
ATOM     58   C  NAG B   4      12.926  30.913  -4.5570  0.00  0.00     0.000 C
ENDBRANCH 49 56
ATOM     59   O  NAG B   4      10.706  37.014  -8.2430  0.00  0.00     0.000 O
ATOM     61  HD  NAG B   4      10.824  36.574  -7.5060  0.00  0.00     0.000 HD
ATOM     61   O  NAG B   4      10.706  37.014  -8.2430  0.00  0.00     0.000 O
ATOM     63  HD  NAG B   4      10.824  36.574  -7.5060  0.00  0.00     0.000 HD
ENDBRANCH 47 50
ENDBRANCH 34 47
ENDBRANCH 33 37
ENDBRANCH 17 33
ENDBRANCH 16 19
ENDBRANCH 1 16
TORSDOF 10
ENDMDL
MODEL 96
REMARK VINA RESULT:      -7.4      6.195     10.444
ROOT
ATOM      1  C1  GCU B   1      11.174  41.304 -11.7480  0.00  0.00     0.000 C
ATOM      2  C2  GCU B   1      12.039  42.539 -11.5560  0.00  0.00     0.000 C
ATOM      3  C3  GCU B   1      11.179  43.741 -11.1980  0.00  0.00     0.000 C
ATOM      4  C4  GCU B   1      10.045  43.893 -12.2000  0.00  0.00     0.000 C
ATOM      5  C5  GCU B   1       9.277  42.581 -12.3650  0.00  0.00     0.000 C
ATOM      6  O5  GCU B   1      10.189  41.549 -12.7640  0.00  0.00     0.000 O
ATOM      7   O  GCU B   1      12.971  42.258 -10.5170  0.00  0.00     0.000 O
ATOM      9  HD  GCU B   1      13.830  42.355 -10.5610  0.00  0.00     0.000 HD
ATOM      9   O  GCU B   1      11.966  44.935 -11.1740  0.00  0.00     0.000 O
ATOM     11  HD  GCU B   1      12.826  45.032 -11.2180  0.00  0.00     0.000 HD
ATOM     11   O  GCU B   1       9.161  44.918 -11.7450  0.00  0.00     0.000 O
ATOM     13  HD  GCU B   1      10.020  45.015 -11.7890  0.00  0.00     0.000 HD
ENDROOT
BRANCH 5 13
ATOM     13   C  GCU B   1       8.151  42.765 -13.3530  0.00  0.00     0.000 C
ATOM     14   O  GCU B   1       7.153  42.016 -13.3200  0.00  0.00     0.000 OA
ATOM     15   O  GCU B   1       8.251  43.702 -14.1690  0.00  0.00     0.000 OA
ENDBRANCH 5 13
BRANCH 1 16
ATOM     16  O3  NAG B   2      11.444  40.228 -12.4900  0.00  0.00     0.000 O
BRANCH 16 19
ATOM     17  C1  NAG B   2      10.461  36.587 -12.5490  0.00  0.00     0.000 C
ATOM     18  C2  NAG B   2      11.129  37.853 -12.0280  0.00  0.00     0.000 C
ATOM     19  C3  NAG B   2      10.688  39.062 -12.8510  0.00  0.00     0.000 C
ATOM     20  C4  NAG B   2      10.902  38.798 -14.3410  0.00  0.00     0.000 C
ATOM     21  C5  NAG B   2      10.189  37.516 -14.7460  0.00  0.00     0.000 C
ATOM     22  O5  NAG B   2      10.702  36.429 -13.9560  0.00  0.00     0.000 O
ATOM     23   O  NAG B   2      10.404  39.923 -15.0740  0.00  0.00     0.000 O
ATOM     25  HD  NAG B   2      11.261  39.796 -15.0800  0.00  0.00     0.000 HD
ATOM     25   C  NAG B   2      10.347  37.197 -16.2310  0.00  0.00     0.000 C
ATOM     26   O  NAG B   2      11.672  36.736 -16.5360  0.00  0.00     0.000 O
ATOM     28  HD  NAG B   2      12.529  36.609 -16.5420  0.00  0.00     0.000 HD
BRANCH 18 30
ATOM     28   N  NAG B   2      11.836  37.334 -10.8730  0.00  0.00     0.000 N
ATOM     30  HD  NAG B   2      11.311  37.931 -10.5300  0.00  0.00     0.000 HD
ATOM     30   C  NAG B   2      11.723  37.840  -9.6390  0.00  0.00     0.000 C
ATOM     31   C  NAG B   2      12.557  37.220  -8.5520  0.00  0.00     0.000 C
ATOM     32   O  NAG B   2      10.980  38.768  -9.3930  0.00  0.00     0.000 OA
ENDBRANCH 18 30
BRANCH 17 33
ATOM     33  O4  GCU B   3      10.944  35.482 -11.7580  0.00  0.00     0.000 O
BRANCH 33 37
ATOM     34  C1  GCU B   3       9.071  31.971 -10.5330  0.00  0.00     0.000 C
ATOM     35  C2  GCU B   3       9.515  32.067 -11.9930  0.00  0.00     0.000 C
ATOM     36  C3  GCU B   3      10.524  33.185 -12.1440  0.00  0.00     0.000 C
ATOM     37  C4  GCU B   3       9.936  34.481 -11.6050  0.00  0.00     0.000 C
ATOM     38  C5  GCU B   3       9.525  34.291 -10.1430  0.00  0.00     0.000 C
ATOM     39  O5  GCU B   3       8.568  33.229 -10.0730  0.00  0.00     0.000 O
ATOM     40   O  GCU B   3      10.095  30.821 -12.3830  0.00  0.00     0.000 O
ATOM     42  HD  GCU B   3      10.795  30.481 -12.7650  0.00  0.00     0.000 HD
ATOM     42   O  GCU B   3      10.910  33.352 -13.5200  0.00  0.00     0.000 O
ATOM     44  HD  GCU B   3      11.609  33.012 -13.9020  0.00  0.00     0.000 HD
BRANCH 38 44
ATOM     44   C  GCU B   3       8.908  35.531  -9.5460  0.00  0.00     0.000 C
ATOM     45   O  GCU B   3       8.064  36.153 -10.2090  0.00  0.00     0.000 OA
ATOM     46   O  GCU B   3       9.250  35.904  -8.4070  0.00  0.00     0.000 OA
ENDBRANCH 38 44
BRANCH 34 47
ATOM     47  O3  NAG B   4       8.045  31.136 -10.4520  0.00  0.00     0.000 O
BRANCH 47 50
ATOM     48  C1  NAG B   4       5.119  29.312  -9.0860  0.00  0.00     0.000 C
ATOM     49  C2  NAG B   4       6.583  29.596  -9.4060  0.00  0.00     0.000 C
ATOM     50  C3  NAG B   4       6.804  31.060  -9.7530  0.00  0.00     0.000 C
ATOM     51  C4  NAG B   4       5.693  31.663 -10.6210  0.00  0.00     0.000 C
ATOM     52  C5  NAG B   4       4.344  31.580  -9.9250  0.00  0.00     0.000 C
ATOM     53  O5  NAG B   4       4.104  30.324  -9.2520  0.00  0.00     0.000 O
BRANCH 49 56
ATOM     54   N  NAG B   4       7.355  29.104  -8.2520  0.00  0.00     0.000 N
ATOM     56  HD  NAG B   4       7.727  28.324  -8.1880  0.00  0.00     0.000 HD
ATOM     56   C  NAG B   4       8.364  29.070  -6.0450  0.00  0.00     0.000 C
ATOM     57   O  NAG B   4       6.835  30.710  -6.7310  0.00  0.00     0.000 OA
ATOM     58   C  NAG B   4       7.441  29.697  -7.0450  0.00  0.00     0.000 C
ENDBRANCH 49 56
ATOM     59   O  NAG B   4       1.976  32.161 -10.3120  0.00  0.00     0.000 O
ATOM     61  HD  NAG B   4       2.613  31.576 -10.3580  0.00  0.00     0.000 HD
ATOM     61   O  NAG B   4       1.976  32.161 -10.3120  0.00  0.00     0.000 O
ATOM     63  HD  NAG B   4       2.613  31.576 -10.3580  0.00  0.00     0.000 HD
ENDBRANCH 47 50
ENDBRANCH 34 47
ENDBRANCH 33 37
ENDBRANCH 17 33
ENDBRANCH 16 19
ENDBRANCH 1 16
TORSDOF 10
ENDMDL
MODEL 97
REMARK VINA RESULT:      -7.4      4.038     11.609
ROOT
ATOM      1  C1  GCU B   1       0.688  27.578  -5.8410  0.00  0.00     0.000 C
ATOM      2  C2  GCU B   1       0.021  26.233  -6.0860  0.00  0.00     0.000 C
ATOM      3  C3  GCU B   1      -1.446  26.423  -6.4380  0.00  0.00     0.000 C
ATOM      4  C4  GCU B   1      -2.126  27.304  -5.4020  0.00  0.00     0.000 C
ATOM      5  C5  GCU B   1      -1.345  28.602  -5.1850  0.00  0.00     0.000 C
ATOM      6  O5  GCU B   1      -0.002  28.283  -4.7960  0.00  0.00     0.000 O
ATOM      7   O  GCU B   1       0.717  25.593  -7.1510  0.00  0.00     0.000 O
ATOM      9  HD  GCU B   1       1.045  24.792  -7.1380  0.00  0.00     0.000 HD
ATOM      9   O  GCU B   1      -2.114  25.161  -6.5140  0.00  0.00     0.000 O
ATOM     11  HD  GCU B   1      -1.786  24.360  -6.5010  0.00  0.00     0.000 HD
ATOM     11   O  GCU B   1      -3.449  27.605  -5.8470  0.00  0.00     0.000 O
ATOM     13  HD  GCU B   1      -3.121  26.803  -5.8340  0.00  0.00     0.000 HD
ENDROOT
BRANCH 5 13
ATOM     13   C  GCU B   1      -2.049  29.461  -4.1630  0.00  0.00     0.000 C
ATOM     14   O  GCU B   1      -2.213  30.681  -4.3690  0.00  0.00     0.000 OA
ATOM     15   O  GCU B   1      -2.476  28.898  -3.1360  0.00  0.00     0.000 OA
ENDBRANCH 5 13
BRANCH 1 16
ATOM     16  O3  NAG B   2       1.760  27.829  -5.0870  0.00  0.00     0.000 O
BRANCH 16 19
ATOM     17  C1  NAG B   2       5.255  29.117  -5.6860  0.00  0.00     0.000 C
ATOM     18  C2  NAG B   2       4.079  28.153  -5.7760  0.00  0.00     0.000 C
ATOM     19  C3  NAG B   2       2.826  28.788  -5.1740  0.00  0.00     0.000 C
ATOM     20  C4  NAG B   2       3.116  29.306  -3.7660  0.00  0.00     0.000 C
ATOM     21  C5  NAG B   2       4.302  30.259  -3.8020  0.00  0.00     0.000 C
ATOM     22  O5  NAG B   2       5.443  29.563  -4.3330  0.00  0.00     0.000 O
ATOM     23   O  NAG B   2       1.940  29.960  -3.2750  0.00  0.00     0.000 O
ATOM     25  HD  NAG B   2       2.170  29.219  -2.8900  0.00  0.00     0.000 HD
ATOM     25   C  NAG B   2       4.641  30.832  -2.4270  0.00  0.00     0.000 C
ATOM     26   O  NAG B   2       5.259  29.850  -1.5810  0.00  0.00     0.000 O
ATOM     28  HD  NAG B   2       5.490  29.109  -1.1950  0.00  0.00     0.000 HD
BRANCH 18 30
ATOM     28   N  NAG B   2       4.411  27.754  -7.1300  0.00  0.00     0.000 N
ATOM     30  HD  NAG B   2       3.967  27.075  -6.8280  0.00  0.00     0.000 HD
ATOM     30   C  NAG B   2       4.161  26.539  -7.6330  0.00  0.00     0.000 C
ATOM     31   C  NAG B   2       4.606  26.263  -9.0420  0.00  0.00     0.000 C
ATOM     32   O  NAG B   2       3.598  25.680  -6.9840  0.00  0.00     0.000 OA
ENDBRANCH 18 30
BRANCH 17 33
ATOM     33  O4  GCU B   3       6.409  28.449  -6.2340  0.00  0.00     0.000 O
BRANCH 33 37
ATOM     34  C1  GCU B   3      10.183  29.895  -7.2330  0.00  0.00     0.000 C
ATOM     35  C2  GCU B   3       9.905  29.595  -5.7590  0.00  0.00     0.000 C
ATOM     36  C3  GCU B   3       8.687  28.703  -5.6450  0.00  0.00     0.000 C
ATOM     37  C4  GCU B   3       7.511  29.349  -6.3630  0.00  0.00     0.000 C
ATOM     38  C5  GCU B   3       7.879  29.609  -7.8250  0.00  0.00     0.000 C
ATOM     39  O5  GCU B   3       9.029  30.461  -7.8600  0.00  0.00     0.000 O
ATOM     40   O  GCU B   3      11.047  28.946  -5.1950  0.00  0.00     0.000 O
ATOM     42  HD  GCU B   3      11.281  28.258  -4.7250  0.00  0.00     0.000 HD
ATOM     42   O  GCU B   3       8.352  28.458  -4.2670  0.00  0.00     0.000 O
ATOM     44  HD  GCU B   3       8.586  27.769  -3.7960  0.00  0.00     0.000 HD
BRANCH 38 44
ATOM     44   C  GCU B   3       6.767  30.273  -8.5960  0.00  0.00     0.000 C
ATOM     45   O  GCU B   3       5.942  29.558  -9.1840  0.00  0.00     0.000 OA
ATOM     46   O  GCU B   3       6.694  31.517  -8.6270  0.00  0.00     0.000 OA
ENDBRANCH 38 44
BRANCH 34 47
ATOM     47  O3  NAG B   4      11.115  30.834  -7.3080  0.00  0.00     0.000 O
BRANCH 47 50
ATOM     48  C1  NAG B   4      12.852  34.094  -6.9750  0.00  0.00     0.000 C
ATOM     49  C2  NAG B   4      12.643  32.641  -7.3870  0.00  0.00     0.000 C
ATOM     50  C3  NAG B   4      11.172  32.259  -7.3560  0.00  0.00     0.000 C
ATOM     51  C4  NAG B   4      10.408  32.839  -6.1610  0.00  0.00     0.000 C
ATOM     52  C5  NAG B   4      10.463  34.358  -6.1570  0.00  0.00     0.000 C
ATOM     53  O5  NAG B   4      11.759  34.902  -6.4920  0.00  0.00     0.000 O
BRANCH 49 56
ATOM     54   N  NAG B   4      12.714  32.752  -8.8550  0.00  0.00     0.000 N
ATOM     56  HD  NAG B   4      12.071  33.008  -9.3740  0.00  0.00     0.000 HD
ATOM     56   C  NAG B   4      13.624  32.601 -11.1000  0.00  0.00     0.000 C
ATOM     57   O  NAG B   4      14.675  31.663  -9.2250  0.00  0.00     0.000 OA
ATOM     58   C  NAG B   4      13.711  32.291  -9.6370  0.00  0.00     0.000 C
ENDBRANCH 49 56
ATOM     59   O  NAG B   4       9.680  36.277  -4.8160  0.00  0.00     0.000 O
ATOM     61  HD  NAG B   4      10.302  35.701  -4.9920  0.00  0.00     0.000 HD
ATOM     61   O  NAG B   4       9.680  36.277  -4.8160  0.00  0.00     0.000 O
ATOM     63  HD  NAG B   4      10.302  35.701  -4.9920  0.00  0.00     0.000 HD
ENDBRANCH 47 50
ENDBRANCH 34 47
ENDBRANCH 33 37
ENDBRANCH 17 33
ENDBRANCH 16 19
ENDBRANCH 1 16
TORSDOF 10
ENDMDL
MODEL 98
REMARK VINA RESULT:      -7.4      5.129      8.033
ROOT
ATOM      1  C1  GCU B   1      10.768  28.997  -3.5310  0.00  0.00     0.000 C
ATOM      2  C2  GCU B   1      11.792  30.059  -3.9010  0.00  0.00     0.000 C
ATOM      3  C3  GCU B   1      13.158  29.426  -4.1210  0.00  0.00     0.000 C
ATOM      4  C4  GCU B   1      13.530  28.553  -2.9320  0.00  0.00     0.000 C
ATOM      5  C5  GCU B   1      12.411  27.564  -2.6050  0.00  0.00     0.000 C
ATOM      6  O5  GCU B   1      11.200  28.290  -2.3570  0.00  0.00     0.000 O
ATOM      7   O  GCU B   1      11.338  30.703  -5.0870  0.00  0.00     0.000 O
ATOM      9  HD  GCU B   1      11.248  31.557  -5.2020  0.00  0.00     0.000 HD
ATOM      9   O  GCU B   1      14.155  30.434  -4.3120  0.00  0.00     0.000 O
ATOM     11  HD  GCU B   1      14.064  31.287  -4.4270  0.00  0.00     0.000 HD
ATOM     11   O  GCU B   1      14.730  27.842  -3.2400  0.00  0.00     0.000 O
ATOM     13  HD  GCU B   1      14.639  28.696  -3.3550  0.00  0.00     0.000 HD
ENDROOT
BRANCH 5 13
ATOM     13   C  GCU B   1      12.813  26.703  -1.4320  0.00  0.00     0.000 C
ATOM     14   O  GCU B   1      13.489  25.668  -1.6100  0.00  0.00     0.000 OA
ATOM     15   O  GCU B   1      12.469  27.083  -0.2960  0.00  0.00     0.000 OA
ENDBRANCH 5 13
BRANCH 1 16
ATOM     16  O3  NAG B   2       9.645  29.161  -2.8280  0.00  0.00     0.000 O
BRANCH 16 19
ATOM     17  C1  NAG B   2       5.984  28.749  -3.6370  0.00  0.00     0.000 C
ATOM     18  C2  NAG B   2       7.393  29.315  -3.7560  0.00  0.00     0.000 C
ATOM     19  C3  NAG B   2       8.356  28.529  -2.8670  0.00  0.00     0.000 C
ATOM     20  C4  NAG B   2       7.820  28.454  -1.4380  0.00  0.00     0.000 C
ATOM     21  C5  NAG B   2       6.414  27.872  -1.4440  0.00  0.00     0.000 C
ATOM     22  O5  NAG B   2       5.570  28.701  -2.2620  0.00  0.00     0.000 O
ATOM     23   O  NAG B   2       8.713  27.645  -0.6630  0.00  0.00     0.000 O
ATOM     25  HD  NAG B   2       8.680  28.490  -0.4740  0.00  0.00     0.000 HD
ATOM     25   C  NAG B   2       5.818  27.752  -0.0430  0.00  0.00     0.000 C
ATOM     26   O  NAG B   2       5.450  29.034   0.4890  0.00  0.00     0.000 O
ATOM     28  HD  NAG B   2       5.417  29.878   0.6780  0.00  0.00     0.000 HD
BRANCH 18 30
ATOM     28   N  NAG B   2       7.318  29.440  -5.1990  0.00  0.00     0.000 N
ATOM     30  HD  NAG B   2       7.891  30.050  -4.9770  0.00  0.00     0.000 HD
ATOM     30   C  NAG B   2       7.928  30.406  -5.8960  0.00  0.00     0.000 C
ATOM     31   C  NAG B   2       7.718  30.430  -7.3850  0.00  0.00     0.000 C
ATOM     32   O  NAG B   2       8.627  31.241  -5.3580  0.00  0.00     0.000 OA
ENDBRANCH 18 30
BRANCH 17 33
ATOM     33  O4  GCU B   3       5.120  29.552  -4.4670  0.00  0.00     0.000 O
BRANCH 33 37
ATOM     34  C1  GCU B   3       1.260  28.863  -5.8640  0.00  0.00     0.000 C
ATOM     35  C2  GCU B   3       1.417  29.337  -4.4190  0.00  0.00     0.000 C
ATOM     36  C3  GCU B   3       2.797  29.932  -4.2280  0.00  0.00     0.000 C
ATOM     37  C4  GCU B   3       3.852  28.920  -4.6510  0.00  0.00     0.000 C
ATOM     38  C5  GCU B   3       3.616  28.507  -6.1050  0.00  0.00     0.000 C
ATOM     39  O5  GCU B   3       2.303  27.948  -6.2130  0.00  0.00     0.000 O
ATOM     40   O  GCU B   3       0.414  30.317  -4.1410  0.00  0.00     0.000 O
ATOM     42  HD  GCU B   3       0.305  31.110  -3.8120  0.00  0.00     0.000 HD
ATOM     42   O  GCU B   3       3.007  30.324  -2.8600  0.00  0.00     0.000 O
ATOM     44  HD  GCU B   3       2.897  31.118  -2.5310  0.00  0.00     0.000 HD
BRANCH 38 44
ATOM     44   C  GCU B   3       4.613  27.483  -6.5880  0.00  0.00     0.000 C
ATOM     45   O  GCU B   3       5.514  27.849  -7.3580  0.00  0.00     0.000 OA
ATOM     46   O  GCU B   3       4.517  26.301  -6.2080  0.00  0.00     0.000 OA
ENDBRANCH 38 44
BRANCH 34 47
ATOM     47  O3  NAG B   4       0.138  28.164  -5.9640  0.00  0.00     0.000 O
BRANCH 47 50
ATOM     48  C1  NAG B   4      -1.754  25.021  -6.5120  0.00  0.00     0.000 C
ATOM     49  C2  NAG B   4      -0.814  26.179  -6.8330  0.00  0.00     0.000 C
ATOM     50  C3  NAG B   4      -0.340  26.879  -5.5700  0.00  0.00     0.000 C
ATOM     51  C4  NAG B   4      -1.433  27.045  -4.5080  0.00  0.00     0.000 C
ATOM     52  C5  NAG B   4      -1.990  25.698  -4.0760  0.00  0.00     0.000 C
ATOM     53  O5  NAG B   4      -2.204  24.772  -5.1640  0.00  0.00     0.000 O
BRANCH 49 56
ATOM     54   N  NAG B   4       0.453  25.462  -7.0610  0.00  0.00     0.000 N
ATOM     56  HD  NAG B   4       0.997  25.188  -6.4460  0.00  0.00     0.000 HD
ATOM     56   C  NAG B   4       2.301  24.446  -8.2640  0.00  0.00     0.000 C
ATOM     57   O  NAG B   4       0.667  25.769  -9.3030  0.00  0.00     0.000 OA
ATOM     58   C  NAG B   4       1.066  25.294  -8.2500  0.00  0.00     0.000 C
ENDBRANCH 49 56
ATOM     59   O  NAG B   4      -3.685  24.753  -2.5510  0.00  0.00     0.000 O
ATOM     61  HD  NAG B   4      -3.476  25.038  -3.3420  0.00  0.00     0.000 HD
ATOM     61   O  NAG B   4      -3.685  24.753  -2.5510  0.00  0.00     0.000 O
ATOM     63  HD  NAG B   4      -3.476  25.038  -3.3420  0.00  0.00     0.000 HD
ENDBRANCH 47 50
ENDBRANCH 34 47
ENDBRANCH 33 37
ENDBRANCH 17 33
ENDBRANCH 16 19
ENDBRANCH 1 16
TORSDOF 10
ENDMDL
MODEL 99
REMARK VINA RESULT:      -7.4      5.827      9.040
ROOT
ATOM      1  C1  GCU B   1      10.554  26.724  -2.1740  0.00  0.00     0.000 C
ATOM      2  C2  GCU B   1      12.012  26.564  -1.7690  0.00  0.00     0.000 C
ATOM      3  C3  GCU B   1      12.637  25.380  -2.4900  0.00  0.00     0.000 C
ATOM      4  C4  GCU B   1      11.775  24.140  -2.3110  0.00  0.00     0.000 C
ATOM      5  C5  GCU B   1      10.320  24.423  -2.6860  0.00  0.00     0.000 C
ATOM      6  O5  GCU B   1       9.833  25.514  -1.8920  0.00  0.00     0.000 O
ATOM      7   O  GCU B   1      12.688  27.773  -2.1020  0.00  0.00     0.000 O
ATOM      9  HD  GCU B   1      13.179  28.247  -1.5690  0.00  0.00     0.000 HD
ATOM      9   O  GCU B   1      13.956  25.129  -1.9970  0.00  0.00     0.000 O
ATOM     11  HD  GCU B   1      14.447  25.603  -1.4640  0.00  0.00     0.000 HD
ATOM     11   O  GCU B   1      12.293  23.095  -3.1350  0.00  0.00     0.000 O
ATOM     13  HD  GCU B   1      12.784  23.569  -2.6020  0.00  0.00     0.000 HD
ENDROOT
BRANCH 5 13
ATOM     13   C  GCU B   1       9.492  23.173  -2.5110  0.00  0.00     0.000 C
ATOM     14   O  GCU B   1       9.951  22.193  -1.8890  0.00  0.00     0.000 OA
ATOM     15   O  GCU B   1       8.339  23.177  -2.9840  0.00  0.00     0.000 OA
ENDBRANCH 5 13
BRANCH 1 16
ATOM     16  O3  NAG B   2       9.571  27.288  -1.4690  0.00  0.00     0.000 O
BRANCH 16 19
ATOM     17  C1  NAG B   2       6.047  28.117  -2.5270  0.00  0.00     0.000 C
ATOM     18  C2  NAG B   2       7.568  28.082  -2.6120  0.00  0.00     0.000 C
ATOM     19  C3  NAG B   2       8.140  27.187  -1.5140  0.00  0.00     0.000 C
ATOM     20  C4  NAG B   2       7.590  27.601  -0.1500  0.00  0.00     0.000 C
ATOM     21  C5  NAG B   2       6.069  27.595  -0.1830  0.00  0.00     0.000 C
ATOM     22  O5  NAG B   2       5.622  28.500  -1.2090  0.00  0.00     0.000 O
ATOM     23   O  NAG B   2       8.091  26.689   0.8340  0.00  0.00     0.000 O
ATOM     25  HD  NAG B   2       8.380  27.505   0.8680  0.00  0.00     0.000 HD
ATOM     25   C  NAG B   2       5.447  27.985   1.1560  0.00  0.00     0.000 C
ATOM     26   O  NAG B   2       5.588  29.390   1.4170  0.00  0.00     0.000 O
ATOM     28  HD  NAG B   2       5.877  30.206   1.4520  0.00  0.00     0.000 HD
BRANCH 18 30
ATOM     28   N  NAG B   2       7.947  28.917  -3.7370  0.00  0.00     0.000 N
ATOM     30  HD  NAG B   2       8.098  28.114  -4.0260  0.00  0.00     0.000 HD
ATOM     30   C  NAG B   2       8.519  28.449  -4.8530  0.00  0.00     0.000 C
ATOM     31   C  NAG B   2       8.895  29.446  -5.9130  0.00  0.00     0.000 C
ATOM     32   O  NAG B   2       8.735  27.265  -5.0150  0.00  0.00     0.000 OA
ENDBRANCH 18 30
BRANCH 17 33
ATOM     33  O4  GCU B   3       5.572  29.002  -3.5610  0.00  0.00     0.000 O
BRANCH 33 37
ATOM     34  C1  GCU B   3       2.080  28.937  -5.8270  0.00  0.00     0.000 C
ATOM     35  C2  GCU B   3       1.973  29.391  -4.3710  0.00  0.00     0.000 C
ATOM     36  C3  GCU B   3       3.348  29.755  -3.8510  0.00  0.00     0.000 C
ATOM     37  C4  GCU B   3       4.297  28.583  -4.0500  0.00  0.00     0.000 C
ATOM     38  C5  GCU B   3       4.341  28.202  -5.5320  0.00  0.00     0.000 C
ATOM     39  O5  GCU B   3       3.017  27.863  -5.9540  0.00  0.00     0.000 O
ATOM     40   O  GCU B   3       1.102  30.522  -4.3010  0.00  0.00     0.000 O
ATOM     42  HD  GCU B   3       1.048  31.325  -3.9820  0.00  0.00     0.000 HD
ATOM     42   O  GCU B   3       3.295  30.119  -2.4590  0.00  0.00     0.000 O
ATOM     44  HD  GCU B   3       3.241  30.922  -2.1400  0.00  0.00     0.000 HD
BRANCH 38 44
ATOM     44   C  GCU B   3       5.246  27.027  -5.8040  0.00  0.00     0.000 C
ATOM     45   O  GCU B   3       5.216  26.062  -5.0250  0.00  0.00     0.000 OA
ATOM     46   O  GCU B   3       5.997  27.043  -6.7980  0.00  0.00     0.000 OA
ENDBRANCH 38 44
BRANCH 34 47
ATOM     47  O3  NAG B   4       0.915  28.429  -6.2030  0.00  0.00     0.000 O
BRANCH 47 50
ATOM     48  C1  NAG B   4      -1.441  25.734  -7.1750  0.00  0.00     0.000 C
ATOM     49  C2  NAG B   4      -0.261  26.693  -7.3010  0.00  0.00     0.000 C
ATOM     50  C3  NAG B   4       0.150  27.252  -5.9490  0.00  0.00     0.000 C
ATOM     51  C4  NAG B   4      -1.033  27.600  -5.0380  0.00  0.00     0.000 C
ATOM     52  C5  NAG B   4      -1.893  26.378  -4.7610  0.00  0.00     0.000 C
ATOM     53  O5  NAG B   4      -2.120  25.542  -5.9170  0.00  0.00     0.000 O
BRANCH 49 56
ATOM     54   N  NAG B   4       0.930  25.831  -7.3940  0.00  0.00     0.000 N
ATOM     56  HD  NAG B   4       1.467  25.640  -6.7430  0.00  0.00     0.000 HD
ATOM     56   C  NAG B   4       2.640  24.423  -8.3870  0.00  0.00     0.000 C
ATOM     57   O  NAG B   4       1.095  25.651  -9.6540  0.00  0.00     0.000 OA
ATOM     58   C  NAG B   4       1.485  25.366  -8.5310  0.00  0.00     0.000 C
ENDBRANCH 49 56
ATOM     59   O  NAG B   4      -3.939  25.742  -3.5350  0.00  0.00     0.000 O
ATOM     61  HD  NAG B   4      -3.568  26.002  -4.2730  0.00  0.00     0.000 HD
ATOM     61   O  NAG B   4      -3.939  25.742  -3.5350  0.00  0.00     0.000 O
ATOM     63  HD  NAG B   4      -3.568  26.002  -4.2730  0.00  0.00     0.000 HD
ENDBRANCH 47 50
ENDBRANCH 34 47
ENDBRANCH 33 37
ENDBRANCH 17 33
ENDBRANCH 16 19
ENDBRANCH 1 16
TORSDOF 10
ENDMDL
MODEL 100
REMARK VINA RESULT:      -7.3     30.677     33.476
ROOT
ATOM      1  C1  GCU B   1     -20.749  47.929  -0.5000  0.00  0.00     0.000 C
ATOM      2  C2  GCU B   1     -22.261  47.762  -0.5310  0.00  0.00     0.000 C
ATOM      3  C3  GCU B   1     -22.652  46.638  -1.4780  0.00  0.00     0.000 C
ATOM      4  C4  GCU B   1     -21.994  46.840  -2.8340  0.00  0.00     0.000 C
ATOM      5  C5  GCU B   1     -20.487  47.060  -2.6870  0.00  0.00     0.000 C
ATOM      6  O5  GCU B   1     -20.258  48.182  -1.8260  0.00  0.00     0.000 O
ATOM      7   O  GCU B   1     -22.692  47.476   0.7960  0.00  0.00     0.000 O
ATOM      9  HD  GCU B   1     -23.313  47.893   1.2320  0.00  0.00     0.000 HD
ATOM      9   O  GCU B   1     -24.072  46.581  -1.6330  0.00  0.00     0.000 O
ATOM     11  HD  GCU B   1     -24.694  46.998  -1.1970  0.00  0.00     0.000 HD
ATOM     11   O  GCU B   1     -22.238  45.689  -3.6430  0.00  0.00     0.000 O
ATOM     13  HD  GCU B   1     -22.860  46.105  -3.2070  0.00  0.00     0.000 HD
ENDROOT
BRANCH 5 13
ATOM     13   C  GCU B   1     -19.860  47.244  -4.0480  0.00  0.00     0.000 C
ATOM     14   O  GCU B   1     -19.327  48.330  -4.3560  0.00  0.00     0.000 OA
ATOM     15   O  GCU B   1     -19.874  46.268  -4.8230  0.00  0.00     0.000 OA
ENDBRANCH 5 13
BRANCH 1 16
ATOM     16  O3  NAG B   2     -20.059  49.032  -0.2020  0.00  0.00     0.000 O
BRANCH 16 19
ATOM     17  C1  NAG B   2     -17.893  49.815   2.7850  0.00  0.00     0.000 C
ATOM     18  C2  NAG B   2     -19.142  49.372   2.0330  0.00  0.00     0.000 C
ATOM     19  C3  NAG B   2     -18.851  49.271   0.5370  0.00  0.00     0.000 C
ATOM     20  C4  NAG B   2     -18.231  50.571   0.0260  0.00  0.00     0.000 C
ATOM     21  C5  NAG B   2     -16.994  50.909   0.8460  0.00  0.00     0.000 C
ATOM     22  O5  NAG B   2     -17.372  51.033   2.2290  0.00  0.00     0.000 O
ATOM     23   O  NAG B   2     -17.905  50.401  -1.3580  0.00  0.00     0.000 O
ATOM     25  HD  NAG B   2     -18.543  50.955  -1.1670  0.00  0.00     0.000 HD
ATOM     25   C  NAG B   2     -16.309  52.192   0.3800  0.00  0.00     0.000 C
ATOM     26   O  NAG B   2     -17.061  53.359   0.7500  0.00  0.00     0.000 O
ATOM     28  HD  NAG B   2     -17.699  53.912   0.9410  0.00  0.00     0.000 HD
BRANCH 18 30
ATOM     28   N  NAG B   2     -20.245  49.192   2.9580  0.00  0.00     0.000 N
ATOM     30  HD  NAG B   2     -19.974  48.382   2.8140  0.00  0.00     0.000 HD
ATOM     30   C  NAG B   2     -20.729  47.997   3.3180  0.00  0.00     0.000 C
ATOM     31   C  NAG B   2     -21.907  47.975   4.2520  0.00  0.00     0.000 C
ATOM     32   O  NAG B   2     -20.245  46.960   2.9100  0.00  0.00     0.000 OA
ENDBRANCH 18 30
BRANCH 17 33
ATOM     33  O4  GCU B   3     -18.241  49.927   4.1800  0.00  0.00     0.000 O
BRANCH 33 37
ATOM     34  C1  GCU B   3     -15.855  50.548   7.5340  0.00  0.00     0.000 C
ATOM     35  C2  GCU B   3     -16.316  51.779   6.7530  0.00  0.00     0.000 C
ATOM     36  C3  GCU B   3     -17.482  51.407   5.8630  0.00  0.00     0.000 C
ATOM     37  C4  GCU B   3     -17.093  50.237   4.9720  0.00  0.00     0.000 C
ATOM     38  C5  GCU B   3     -16.650  49.055   5.8380  0.00  0.00     0.000 C
ATOM     39  O5  GCU B   3     -15.544  49.472   6.6450  0.00  0.00     0.000 O
ATOM     40   O  GCU B   3     -16.704  52.796   7.6790  0.00  0.00     0.000 O
ATOM     42  HD  GCU B   3     -17.347  53.348   7.8600  0.00  0.00     0.000 HD
ATOM     42   O  GCU B   3     -17.897  52.526   5.0590  0.00  0.00     0.000 O
ATOM     44  HD  GCU B   3     -18.539  53.078   5.2390  0.00  0.00     0.000 HD
BRANCH 38 44
ATOM     44   C  GCU B   3     -16.223  47.862   5.0200  0.00  0.00     0.000 C
ATOM     45   O  GCU B   3     -16.873  46.810   5.1210  0.00  0.00     0.000 OA
ATOM     46   O  GCU B   3     -15.238  47.953   4.2630  0.00  0.00     0.000 OA
ENDBRANCH 38 44
BRANCH 34 47
ATOM     47  O3  NAG B   4     -14.714  50.833   8.1470  0.00  0.00     0.000 O
BRANCH 47 50
ATOM     48  C1  NAG B   4     -14.509  52.252  11.5670  0.00  0.00     0.000 C
ATOM     49  C2  NAG B   4     -15.159  51.759  10.2790  0.00  0.00     0.000 C
ATOM     50  C3  NAG B   4     -14.218  50.869   9.4840  0.00  0.00     0.000 C
ATOM     51  C4  NAG B   4     -12.765  51.358   9.4760  0.00  0.00     0.000 C
ATOM     52  C5  NAG B   4     -12.202  51.436  10.8850  0.00  0.00     0.000 C
ATOM     53  O5  NAG B   4     -13.121  51.983  11.8570  0.00  0.00     0.000 O
BRANCH 49 56
ATOM     54   N  NAG B   4     -15.979  50.685  10.8670  0.00  0.00     0.000 N
ATOM     56  HD  NAG B   4     -15.676  49.964  11.2390  0.00  0.00     0.000 HD
ATOM     56   C  NAG B   4     -17.957  49.434  11.5100  0.00  0.00     0.000 C
ATOM     57   O  NAG B   4     -18.023  51.291  10.0790  0.00  0.00     0.000 OA
ATOM     58   C  NAG B   4     -17.315  50.552  10.7470  0.00  0.00     0.000 C
ENDBRANCH 49 56
ATOM     59   O  NAG B   4     -10.125  52.064  12.0620  0.00  0.00     0.000 O
ATOM     61  HD  NAG B   4     -10.906  52.291  11.7630  0.00  0.00     0.000 HD
ATOM     61   O  NAG B   4     -10.125  52.064  12.0620  0.00  0.00     0.000 O
ATOM     63  HD  NAG B   4     -10.906  52.291  11.7630  0.00  0.00     0.000 HD
ENDBRANCH 47 50
ENDBRANCH 34 47
ENDBRANCH 33 37
ENDBRANCH 17 33
ENDBRANCH 16 19
ENDBRANCH 1 16
TORSDOF 10
ENDMDL
