ROOT
ATOM      1  C1  GCU B   1       8.440  31.252  -13.250  0.00  0.00     0.000 C
ATOM      2  C2  GCU B   1       9.340  32.424  -13.610  0.00  0.00     0.000 C
ATOM      3  C3  GCU B   1       9.260  32.718  -15.100  0.00  0.00     0.000 C
ATOM      4  C4  GCU B   1       9.500  31.447  -15.900  0.00  0.00     0.000 C
ATOM      5  C5  GCU B   1       8.590  30.315  -15.420  0.00  0.00     0.000 C
ATOM      6  O5  GCU B   1       8.810  30.097  -14.020  0.00  0.00     0.000 O
ATOM      7   O  GCU B   1       8.910  33.549  -12.850  0.00  0.00     0.000 O
ATOM      9  HD  GCU B   1       9.410  34.049  -12.350  0.00  0.00     0.000 HD
ATOM      9   O  GCU B   1      10.220  33.711  -15.470  0.00  0.00     0.000 O
ATOM     11  HD  GCU B   1      10.720  34.211  -14.970  0.00  0.00     0.000 HD
ATOM     11   O  GCU B   1       9.250  31.716  -17.280  0.00  0.00     0.000 O
ATOM     13  HD  GCU B   1       9.750  32.216  -16.780  0.00  0.00     0.000 HD
ENDROOT
BRANCH 5 13
ATOM     13   C  GCU B   1       8.840  29.072  -16.240  0.00  0.00     0.000 C
ATOM     14   O  GCU B   1       9.000  27.968  -15.680  0.00  0.00     0.000 OA
ATOM     15   O  GCU B   1       8.850  29.195  -17.480  0.00  0.00     0.000 OA
ENDBRANCH 5 13
BRANCH 1 16
ATOM     16  O3  NAG B   2       8.570  30.413  -12.220  0.00  0.00     0.000 O
BRANCH 16 19
ATOM     17  C1  NAG B   2       6.010  29.574   -9.580  0.00  0.00     0.000 C
ATOM     18  C2  NAG B   2       6.850  30.461  -10.490  0.00  0.00     0.000 C
ATOM     19  C3  NAG B   2       7.640  29.607  -11.480  0.00  0.00     0.000 C
ATOM     20  C4  NAG B   2       8.430  28.528  -10.740  0.00  0.00     0.000 C
ATOM     21  C5  NAG B   2       7.490  27.706   -9.870  0.00  0.00     0.000 C
ATOM     22  O5  NAG B   2       6.830  28.583   -8.940  0.00  0.00     0.000 O
ATOM     23   O  NAG B   2       9.090  27.707  -11.710  0.00  0.00     0.000 O
ATOM     25  HD  NAG B   2       9.590  28.207  -11.210  0.00  0.00     0.000 HD
ATOM     25   C  NAG B   2       8.210  26.594   -9.110  0.00  0.00     0.000 C
ATOM     26   O  NAG B   2       9.000  27.115   -8.030  0.00  0.00     0.000 O
ATOM     28  HD  NAG B   2       9.500  27.615   -7.530  0.00  0.00     0.000 HD
BRANCH 18 30
ATOM     28   N  NAG B   2       5.990  31.418  -11.160  0.00  0.00     0.000 N
ATOM     30  HD  NAG B   2       6.490  31.918  -10.660  0.00  0.00     0.000 HD
ATOM     30   C  NAG B   2       5.970  32.727  -10.880  0.00  0.00     0.000 C
ATOM     31   C  NAG B   2       4.990  33.585  -11.630  0.00  0.00     0.000 C
ATOM     32   O  NAG B   2       6.710  33.216  -10.050  0.00  0.00     0.000 OA
ENDBRANCH 18 30
BRANCH 17 33
ATOM     33  O4  GCU B   3       5.320  30.433   -8.650  0.00  0.00     0.000 O
BRANCH 33 37
ATOM     34  C1  GCU B   3       2.270  29.605   -5.940  0.00  0.00     0.000 C
ATOM     35  C2  GCU B   3       3.710  29.375   -5.480  0.00  0.00     0.000 C
ATOM     36  C3  GCU B   3       4.660  30.112   -6.400  0.00  0.00     0.000 C
ATOM     37  C4  GCU B   3       4.410  29.687   -7.840  0.00  0.00     0.000 C
ATOM     38  C5  GCU B   3       2.950  29.956   -8.210  0.00  0.00     0.000 C
ATOM     39  O5  GCU B   3       2.110  29.226   -7.310  0.00  0.00     0.000 O
ATOM     40   O  GCU B   3       3.850  29.852   -4.140  0.00  0.00     0.000 O
ATOM     42  HD  GCU B   3       4.350  30.352   -3.640  0.00  0.00     0.000 HD
ATOM     42   O  GCU B   3       6.030  29.859   -6.040  0.00  0.00     0.000 O
ATOM     44  HD  GCU B   3       6.530  30.359   -5.540  0.00  0.00     0.000 HD
BRANCH 38 44
ATOM     44   C  GCU B   3       2.620  29.535   -9.620  0.00  0.00     0.000 C
ATOM     45   O  GCU B   3       2.250  28.368   -9.820  0.00  0.00     0.000 OA
ATOM     46   O  GCU B   3       2.720  30.358  -10.550  0.00  0.00     0.000 OA
ENDBRANCH 38 44
BRANCH 34 47
ATOM     47  O3  NAG B   4       1.470  28.796   -5.260  0.00  0.00     0.000 O
BRANCH 47 50
ATOM     48  C1  NAG B   4      -1.690  28.351   -3.370  0.00  0.00     0.000 C
ATOM     49  C2  NAG B   4      -0.360  28.981   -3.770  0.00  0.00     0.000 C
ATOM     50  C3  NAG B   4       0.070  28.541   -5.160  0.00  0.00     0.000 C
ATOM     51  C4  NAG B   4      -0.200  27.060   -5.450  0.00  0.00     0.000 C
ATOM     52  C5  NAG B   4      -1.680  26.736   -5.330  0.00  0.00     0.000 C
ATOM     53  O5  NAG B   4      -2.330  27.359   -4.200  0.00  0.00     0.000 O
BRANCH 49 56
ATOM     54   N  NAG B   4      -0.420  30.451   -3.690  0.00  0.00     0.000 N
ATOM     56  HD  NAG B   4       0.080  30.951   -3.190  0.00  0.00     0.000 HD
ATOM     56   C  NAG B   4      -1.190  32.716   -4.100  0.00  0.00     0.000 C
ATOM     57   O  NAG B   4      -2.370  30.814   -4.800  0.00  0.00     0.000 OA
ATOM     58   C  NAG B   4      -1.380  31.235   -4.220  0.00  0.00     0.000 C
ENDBRANCH 49 56
ATOM     59   O  NAG B   4      -3.220  24.817   -5.530  0.00  0.00     0.000 O
ATOM     61  HD  NAG B   4      -2.720  25.317   -5.030  0.00  0.00     0.000 HD
ATOM     61   O  NAG B   4      -3.220  24.817   -5.530  0.00  0.00     0.000 O
ATOM     63  HD  NAG B   4      -2.720  25.317   -5.030  0.00  0.00     0.000 HD
ENDBRANCH 47 50
ENDBRANCH 34 47
ENDBRANCH 33 37
ENDBRANCH 17 33
ENDBRANCH 16 19
ENDBRANCH 1 16
TORSDOF 10