ROOT
ATOM      1  C1  IDS C   1     136.050   8.029   70.290  0.00  0.00     0.000 C
ATOM      2  C2  IDS C   1     137.470   7.971   69.720  0.00  0.00     0.000 C
ATOM      3  C3  IDS C   1     137.440   7.906   68.200  0.00  0.00     0.000 C
ATOM      4  C4  IDS C   1     136.660   6.686   67.730  0.00  0.00     0.000 C
ATOM      5  C5  IDS C   1     135.440   6.470   68.620  0.00  0.00     0.000 C
ATOM      6  O5  IDS C   1     135.100   7.684   69.290  0.00  0.00     0.000 O
ATOM      7   O  IDS C   1     138.780   7.857   67.690  0.00  0.00     0.000 O
ATOM      9  HD  IDS C   1     139.280   8.357   68.190  0.00  0.00     0.000 HD
ENDROOT
BRANCH 2 9
ATOM      9   O  IDS C   1     138.240   9.177   70.100  0.00  0.00     0.000 O
ATOM     10   S  IDS C   1     139.190   9.129   71.380  0.00  0.00     0.000 S
ATOM     11   O  IDS C   1     139.800  10.437   71.470  0.00  0.00     0.000 OA
ATOM     12   O  IDS C   1     138.320   8.834   72.500  0.00  0.00     0.000 OA
ATOM     13   O  IDS C   1     140.150   8.079   71.120  0.00  0.00     0.000 OA
ENDBRANCH 2 9
BRANCH 5 14
ATOM     14   C  IDS C   1     134.230   6.001   67.830  0.00  0.00     0.000 C
ATOM     15   O  IDS C   1     133.200   5.758   68.410  0.00  0.00     0.000 OA
ATOM     16   O  IDS C   1     134.310   5.872   66.620  0.00  0.00     0.000 OA
ENDBRANCH 5 14
BRANCH 1 17
ATOM     17  O4  SGN C   2     135.700   8.843   71.290  0.00  0.00     0.000 O
BRANCH 17 21
ATOM     18  C1  SGN C   2     133.100  10.216   74.270  0.00  0.00     0.000 C
ATOM     19  C2  SGN C   2     132.720   8.900   73.580  0.00  0.00     0.000 C
ATOM     20  C3  SGN C   2     133.940   8.325   72.850  0.00  0.00     0.000 C
ATOM     21  C4  SGN C   2     134.530   9.370   71.910  0.00  0.00     0.000 C
ATOM     22  C5  SGN C   2     134.870  10.624   72.710  0.00  0.00     0.000 C
ATOM     23  O5  SGN C   2     133.680  11.127   73.360  0.00  0.00     0.000 O
ATOM     24   O  SGN C   2     133.570   7.155   72.140  0.00  0.00     0.000 O
ATOM     26  HD  SGN C   2     134.070   7.655   72.640  0.00  0.00     0.000 HD
BRANCH 19 28
ATOM     26   N  SGN C   2     132.150   7.925   74.520  0.00  0.00     0.000 N
ATOM     28  HD  SGN C   2     132.650   8.425   75.020  0.00  0.00     0.000 HD
ATOM     28   O  SGN C   2     130.240   6.467   75.190  0.00  0.00     0.000 OA
ATOM     29   S  SGN C   2     130.610   7.974   74.980  0.00  0.00     0.000 S
ATOM     30   O  SGN C   2     130.560   8.630   76.230  0.00  0.00     0.000 OA
ATOM     31   O  SGN C   2     129.850   8.480   73.890  0.00  0.00     0.000 OA
ENDBRANCH 19 28
BRANCH 22 32
ATOM     32   C  SGN C   2     135.410  11.748   71.860  0.00  0.00     0.000 C
ATOM     33   S  SGN C   2     134.860  12.936   69.640  0.00  0.00     0.000 S
ATOM     34   O  SGN C   2     135.400  11.858   68.850  0.00  0.00     0.000 OA
ATOM     35   O  SGN C   2     133.660  13.522   69.080  0.00  0.00     0.000 OA
ATOM     36   O  SGN C   2     135.840  13.914   70.050  0.00  0.00     0.000 OA
ATOM     37   O  SGN C   2     134.380  12.232   70.990  0.00  0.00     0.000 O
ENDBRANCH 22 32
BRANCH 18 38
ATOM     38  O4  IDS C   3     133.760  10.432   75.410  0.00  0.00     0.000 O
BRANCH 38 42
ATOM     39  C1  IDS C   3     135.290  10.203   78.530  0.00  0.00     0.000 C
ATOM     40  C2  IDS C   3     133.830   9.766   78.330  0.00  0.00     0.000 C
ATOM     41  C3  IDS C   3     133.010  10.868   77.660  0.00  0.00     0.000 C
ATOM     42  C4  IDS C   3     133.730  11.426   76.440  0.00  0.00     0.000 C
ATOM     43  C5  IDS C   3     135.160  11.829   76.820  0.00  0.00     0.000 C
ATOM     44  O5  IDS C   3     135.850  10.685   77.320  0.00  0.00     0.000 O
ATOM     45   O  IDS C   3     132.770  11.917   78.600  0.00  0.00     0.000 O
ATOM     47  HD  IDS C   3     133.270  12.417   79.100  0.00  0.00     0.000 HD
BRANCH 40 47
ATOM     47   O  IDS C   3     133.760   8.568   77.460  0.00  0.00     0.000 O
ATOM     48   S  IDS C   3     133.820   7.108   78.110  0.00  0.00     0.000 S
ATOM     49   O  IDS C   3     135.210   6.877   78.440  0.00  0.00     0.000 OA
ATOM     50   O  IDS C   3     133.340   6.213   77.080  0.00  0.00     0.000 OA
ATOM     51   O  IDS C   3     132.970   7.144   79.270  0.00  0.00     0.000 OA
ENDBRANCH 40 47
BRANCH 43 52
ATOM     52   C  IDS C   3     135.930  12.420   75.660  0.00  0.00     0.000 C
ATOM     53   O  IDS C   3     135.630  13.510   75.230  0.00  0.00     0.000 OA
ATOM     54   O  IDS C   3     136.840  11.801   75.170  0.00  0.00     0.000 OA
ENDBRANCH 43 52
BRANCH 39 55
ATOM     55  O4  SGN C   4     135.730  10.832   79.620  0.00  0.00     0.000 O
BRANCH 55 59
ATOM     56  C1  SGN C   4     138.800  12.166   82.130  0.00  0.00     0.000 C
ATOM     57  C2  SGN C   4     138.340  13.138   81.030  0.00  0.00     0.000 C
ATOM     58  C3  SGN C   4     136.990  12.711   80.460  0.00  0.00     0.000 C
ATOM     59  C4  SGN C   4     137.020  11.243   80.050  0.00  0.00     0.000 C
ATOM     60  C5  SGN C   4     137.460  10.407   81.250  0.00  0.00     0.000 C
ATOM     61  O5  SGN C   4     138.780  10.835   81.640  0.00  0.00     0.000 O
ATOM     62   O  SGN C   4     136.660  13.535   79.350  0.00  0.00     0.000 O
ATOM     64  HD  SGN C   4     137.160  14.035   79.850  0.00  0.00     0.000 HD
BRANCH 57 66
ATOM     64   N  SGN C   4     138.310  14.529   81.510  0.00  0.00     0.000 N
ATOM     66  HD  SGN C   4     138.810  15.029   82.010  0.00  0.00     0.000 HD
ATOM     66   S  SGN C   4     139.560  15.494   81.280  0.00  0.00     0.000 S
ATOM     67   O  SGN C   4     139.260  16.733   81.900  0.00  0.00     0.000 OA
ATOM     68   O  SGN C   4     140.720  14.775   81.680  0.00  0.00     0.000 OA
ATOM     69   O  SGN C   4     139.600  15.686   79.730  0.00  0.00     0.000 OA
ENDBRANCH 57 66
BRANCH 60 70
ATOM     70   C  SGN C   4     137.520   8.921   80.970  0.00  0.00     0.000 C
ATOM     71   O  SGN C   4     139.880   7.158   78.640  0.00  0.00     0.000 OA
ATOM     72   O  SGN C   4     140.020   7.301   81.050  0.00  0.00     0.000 OA
ATOM     73   O  SGN C   4     138.410   8.650   79.870  0.00  0.00     0.000 O
ATOM     74   S  SGN C   4     139.160   7.238   79.890  0.00  0.00     0.000 S
ATOM     75   O  SGN C   4     138.100   6.257   80.010  0.00  0.00     0.000 OA
ENDBRANCH 60 70
BRANCH 56 76
ATOM     76  O4  IDS C   5     138.690  12.108   83.470  0.00  0.00     0.000 O
BRANCH 76 80
ATOM     77  C1  IDS C   5     138.640  11.464   87.500  0.00  0.00     0.000 C
ATOM     78  C2  IDS C   5     139.230  12.810   87.080  0.00  0.00     0.000 C
ATOM     79  C3  IDS C   5     138.810  13.135   85.660  0.00  0.00     0.000 C
ATOM     80  C4  IDS C   5     139.430  12.124   84.700  0.00  0.00     0.000 C
ATOM     81  C5  IDS C   5     139.420  10.733   85.350  0.00  0.00     0.000 C
ATOM     82  O5  IDS C   5     138.400  10.653   86.350  0.00  0.00     0.000 O
BRANCH 78 83
ATOM     83   O  IDS C   5     138.750  13.893   87.970  0.00  0.00     0.000 O
ATOM     84   S  IDS C   5     139.800  14.876   88.660  0.00  0.00     0.000 S
ATOM     85   O  IDS C   5     140.810  14.032   89.240  0.00  0.00     0.000 OA
ATOM     86   O  IDS C   5     140.300  15.707   87.590  0.00  0.00     0.000 OA
ATOM     87   O  IDS C   5     139.050  15.623   89.640  0.00  0.00     0.000 OA
ENDBRANCH 78 83
BRANCH 81 88
ATOM     88   C  IDS C   5     139.190   9.597   84.370  0.00  0.00     0.000 C
ATOM     89   O  IDS C   5     140.110   9.163   83.730  0.00  0.00     0.000 OA
ATOM     90   O  IDS C   5     138.080   9.134   84.240  0.00  0.00     0.000 OA
ENDBRANCH 81 88
ENDBRANCH 76 80
ENDBRANCH 56 76
ENDBRANCH 55 59
ENDBRANCH 39 55
ENDBRANCH 38 42
ENDBRANCH 18 38
ENDBRANCH 17 21
ENDBRANCH 1 17
TORSDOF 18