MODEL 1
REMARK VINA RESULT:      -7.4      0.000      0.000
ROOT
ATOM      1  C1  GCU B   1      19.617  26.773  11.6910  0.00  0.00     0.000 C
ATOM      2  C2  GCU B   1      19.962  27.704  12.8430  0.00  0.00     0.000 C
ATOM      3  C3  GCU B   1      19.784  29.155  12.4260  0.00  0.00     0.000 C
ATOM      4  C4  GCU B   1      20.532  29.424  11.1290  0.00  0.00     0.000 C
ATOM      5  C5  GCU B   1      20.160  28.398  10.0570  0.00  0.00     0.000 C
ATOM      6  O5  GCU B   1      20.435  27.081  10.5520  0.00  0.00     0.000 O
ATOM      7   O  GCU B   1      19.101  27.383  13.9320  0.00  0.00     0.000 O
ATOM      9  HD  GCU B   1      19.347  27.207  14.7430  0.00  0.00     0.000 HD
ATOM      9   O  GCU B   1      20.258  30.035  13.4490  0.00  0.00     0.000 O
ATOM     11  HD  GCU B   1      20.504  29.859  14.2600  0.00  0.00     0.000 HD
ATOM     11   O  GCU B   1      20.208  30.738  10.6740  0.00  0.00     0.000 O
ATOM     13  HD  GCU B   1      20.455  30.562  11.4850  0.00  0.00     0.000 HD
ENDROOT
BRANCH 5 13
ATOM     13   C  GCU B   1      20.906  28.698   8.7790  0.00  0.00     0.000 C
ATOM     14   O  GCU B   1      21.957  29.370   8.8040  0.00  0.00     0.000 OA
ATOM     15   O  GCU B   1      20.444  28.227   7.7210  0.00  0.00     0.000 OA
ENDBRANCH 5 13
BRANCH 1 16
ATOM     16  O3  NAG B   2      20.068  25.534  11.4840  0.00  0.00     0.000 O
BRANCH 16 19
ATOM     17  C1  NAG B   2      18.952  21.931  11.5360  0.00  0.00     0.000 C
ATOM     18  C2  NAG B   2      19.426  23.263  12.1040  0.00  0.00     0.000 C
ATOM     19  C3  NAG B   2      19.453  24.326  11.0080  0.00  0.00     0.000 C
ATOM     20  C4  NAG B   2      20.252  23.829   9.8030  0.00  0.00     0.000 C
ATOM     21  C5  NAG B   2      19.687  22.500   9.3230  0.00  0.00     0.000 C
ATOM     22  O5  NAG B   2      19.747  21.551  10.4020  0.00  0.00     0.000 O
ATOM     23   O  NAG B   2      20.185  24.823   8.7750  0.00  0.00     0.000 O
ATOM     25  HD  NAG B   2      20.954  24.696   9.1510  0.00  0.00     0.000 HD
ATOM     25   C  NAG B   2      20.429  21.948   8.1070  0.00  0.00     0.000 C
ATOM     26   O  NAG B   2      21.726  21.443   8.4610  0.00  0.00     0.000 O
ATOM     28  HD  NAG B   2      22.495  21.315   8.8370  0.00  0.00     0.000 HD
BRANCH 18 30
ATOM     28   N  NAG B   2      19.430  22.864  13.4990  0.00  0.00     0.000 N
ATOM     30  HD  NAG B   2      18.995  23.613  13.5090  0.00  0.00     0.000 HD
ATOM     30   C  NAG B   2      18.965  23.629  14.4940  0.00  0.00     0.000 C
ATOM     31   C  NAG B   2      19.080  23.095  15.8950  0.00  0.00     0.000 C
ATOM     32   O  NAG B   2      18.469  24.718  14.2880  0.00  0.00     0.000 OA
ENDBRANCH 18 30
BRANCH 17 33
ATOM     33  O4  GCU B   3      18.982  20.965  12.6070  0.00  0.00     0.000 O
BRANCH 33 37
ATOM     34  C1  GCU B   3      16.610  17.622  13.3280  0.00  0.00     0.000 C
ATOM     35  C2  GCU B   3      17.777  17.466  12.3530  0.00  0.00     0.000 C
ATOM     36  C3  GCU B   3      18.750  18.611  12.5400  0.00  0.00     0.000 C
ATOM     37  C4  GCU B   3      18.014  19.936  12.3970  0.00  0.00     0.000 C
ATOM     38  C5  GCU B   3      16.870  20.001  13.4110  0.00  0.00     0.000 C
ATOM     39  O5  GCU B   3      15.987  18.900  13.1730  0.00  0.00     0.000 O
ATOM     40   O  GCU B   3      18.428  16.219  12.6040  0.00  0.00     0.000 O
ATOM     42  HD  GCU B   3      19.208  15.868  12.7370  0.00  0.00     0.000 HD
ATOM     42   O  GCU B   3      19.826  18.537  11.5880  0.00  0.00     0.000 O
ATOM     44  HD  GCU B   3      20.607  18.187  11.7220  0.00  0.00     0.000 HD
BRANCH 38 44
ATOM     44   C  GCU B   3      16.077  21.280  13.3110  0.00  0.00     0.000 C
ATOM     45   O  GCU B   3      16.132  22.088  14.2520  0.00  0.00     0.000 OA
ATOM     46   O  GCU B   3      15.390  21.504  12.2970  0.00  0.00     0.000 OA
ENDBRANCH 38 44
BRANCH 34 47
ATOM     47  O3  NAG B   4      15.672  16.738  13.0160  0.00  0.00     0.000 O
BRANCH 47 50
ATOM     48  C1  NAG B   4      12.566  14.712  12.9990  0.00  0.00     0.000 C
ATOM     49  C2  NAG B   4      14.051  15.019  13.1550  0.00  0.00     0.000 C
ATOM     50  C3  NAG B   4      14.298  16.509  13.3260  0.00  0.00     0.000 C
ATOM     51  C4  NAG B   4      13.420  17.387  12.4280  0.00  0.00     0.000 C
ATOM     52  C5  NAG B   4      11.944  17.157  12.7060  0.00  0.00     0.000 C
ATOM     53  O5  NAG B   4      11.589  15.768  12.8920  0.00  0.00     0.000 O
BRANCH 49 56
ATOM     54   N  NAG B   4      14.161  14.622  14.5700  0.00  0.00     0.000 N
ATOM     56  HD  NAG B   4      13.729  14.978  15.2300  0.00  0.00     0.000 HD
ATOM     56   C  NAG B   4      14.950  13.447  16.5430  0.00  0.00     0.000 C
ATOM     57   O  NAG B   4      15.998  13.288  14.4510  0.00  0.00     0.000 OA
ATOM     58   C  NAG B   4      15.084  13.788  15.0900  0.00  0.00     0.000 C
ENDBRANCH 49 56
ATOM     59   O  NAG B   4       9.729  17.921  11.9290  0.00  0.00     0.000 O
ATOM     61  HD  NAG B   4      10.378  17.351  11.8720  0.00  0.00     0.000 HD
ATOM     61   O  NAG B   4       9.729  17.921  11.9290  0.00  0.00     0.000 O
ATOM     63  HD  NAG B   4      10.378  17.351  11.8720  0.00  0.00     0.000 HD
ENDBRANCH 47 50
ENDBRANCH 34 47
ENDBRANCH 33 37
ENDBRANCH 17 33
ENDBRANCH 16 19
ENDBRANCH 1 16
TORSDOF 10
ENDMDL
MODEL 2
REMARK VINA RESULT:      -7.1     21.125     22.842
ROOT
ATOM      1  C1  GCU B   1      11.076  44.136  18.3920  0.00  0.00     0.000 C
ATOM      2  C2  GCU B   1      11.131  45.649  18.2480  0.00  0.00     0.000 C
ATOM      3  C3  GCU B   1      11.525  46.035  16.8310  0.00  0.00     0.000 C
ATOM      4  C4  GCU B   1      12.790  45.298  16.4180  0.00  0.00     0.000 C
ATOM      5  C5  GCU B   1      12.653  43.794  16.6580  0.00  0.00     0.000 C
ATOM      6  O5  GCU B   1      12.347  43.565  18.0400  0.00  0.00     0.000 O
ATOM      7   O  GCU B   1       9.843  46.162  18.5710  0.00  0.00     0.000 O
ATOM      9  HD  GCU B   1       9.671  46.788  19.1440  0.00  0.00     0.000 HD
ATOM      9   O  GCU B   1      11.733  47.446  16.7320  0.00  0.00     0.000 O
ATOM     11  HD  GCU B   1      11.561  48.073  17.3050  0.00  0.00     0.000 HD
ATOM     11   O  GCU B   1      13.037  45.546  15.0330  0.00  0.00     0.000 O
ATOM     13  HD  GCU B   1      12.865  46.172  15.6060  0.00  0.00     0.000 HD
ENDROOT
BRANCH 5 13
ATOM     13   C  GCU B   1      13.916  43.088  16.2270  0.00  0.00     0.000 C
ATOM     14   O  GCU B   1      14.226  43.029  15.0190  0.00  0.00     0.000 OA
ATOM     15   O  GCU B   1      14.635  42.601  17.1200  0.00  0.00     0.000 OA
ENDBRANCH 5 13
BRANCH 1 16
ATOM     16  O3  NAG B   2      11.238  43.418  19.5050  0.00  0.00     0.000 O
BRANCH 16 19
ATOM     17  C1  NAG B   2       9.087  40.744  21.0700  0.00  0.00     0.000 C
ATOM     18  C2  NAG B   2       9.428  42.109  20.4870  0.00  0.00     0.000 C
ATOM     19  C3  NAG B   2      10.836  42.096  19.8940  0.00  0.00     0.000 C
ATOM     20  C4  NAG B   2      11.840  41.576  20.9220  0.00  0.00     0.000 C
ATOM     21  C5  NAG B   2      11.400  40.211  21.4290  0.00  0.00     0.000 C
ATOM     22  O5  NAG B   2      10.090  40.330  22.0120  0.00  0.00     0.000 O
ATOM     23   O  NAG B   2      13.128  41.508  20.3000  0.00  0.00     0.000 O
ATOM     25  HD  NAG B   2      13.022  42.100  20.9230  0.00  0.00     0.000 HD
ATOM     25   C  NAG B   2      12.368  39.620  22.4520  0.00  0.00     0.000 C
ATOM     26   O  NAG B   2      12.276  40.290  23.7190  0.00  0.00     0.000 O
ATOM     28  HD  NAG B   2      12.169  40.882  24.3420  0.00  0.00     0.000 HD
BRANCH 18 30
ATOM     28   N  NAG B   2       8.170  42.276  19.7830  0.00  0.00     0.000 N
ATOM     30  HD  NAG B   2       8.379  43.086  20.0090  0.00  0.00     0.000 HD
ATOM     30   C  NAG B   2       7.513  43.439  19.6940  0.00  0.00     0.000 C
ATOM     31   C  NAG B   2       6.197  43.443  18.9680  0.00  0.00     0.000 C
ATOM     32   O  NAG B   2       7.952  44.462  20.1810  0.00  0.00     0.000 OA
ENDBRANCH 18 30
BRANCH 17 33
ATOM     33  O4  GCU B   3       7.766  40.832  21.6430  0.00  0.00     0.000 O
BRANCH 33 37
ATOM     34  C1  GCU B   3       5.006  37.860  22.5790  0.00  0.00     0.000 C
ATOM     35  C2  GCU B   3       6.078  38.186  23.6200  0.00  0.00     0.000 C
ATOM     36  C3  GCU B   3       6.696  39.532  23.3060  0.00  0.00     0.000 C
ATOM     37  C4  GCU B   3       7.220  39.533  21.8770  0.00  0.00     0.000 C
ATOM     38  C5  GCU B   3       6.082  39.200  20.9100  0.00  0.00     0.000 C
ATOM     39  O5  GCU B   3       5.550  37.917  21.2570  0.00  0.00     0.000 O
ATOM     40   O  GCU B   3       5.474  38.210  24.9150  0.00  0.00     0.000 O
ATOM     42  HD  GCU B   3       5.410  38.691  25.6320  0.00  0.00     0.000 HD
ATOM     42   O  GCU B   3       7.760  39.840  24.2240  0.00  0.00     0.000 O
ATOM     44  HD  GCU B   3       7.697  40.321  24.9410  0.00  0.00     0.000 HD
BRANCH 38 44
ATOM     44   C  GCU B   3       6.533  39.158  19.4720  0.00  0.00     0.000 C
ATOM     45   O  GCU B   3       6.162  40.060  18.7060  0.00  0.00     0.000 OA
ATOM     46   O  GCU B   3       7.266  38.229  19.0820  0.00  0.00     0.000 OA
ENDBRANCH 38 44
BRANCH 34 47
ATOM     47  O3  NAG B   4       4.622  36.601  22.7420  0.00  0.00     0.000 O
BRANCH 47 50
ATOM     48  C1  NAG B   4       2.591  33.563  23.3730  0.00  0.00     0.000 C
ATOM     49  C2  NAG B   4       3.638  34.641  23.6320  0.00  0.00     0.000 C
ATOM     50  C3  NAG B   4       3.397  35.871  22.7720  0.00  0.00     0.000 C
ATOM     51  C4  NAG B   4       2.963  35.547  21.3380  0.00  0.00     0.000 C
ATOM     52  C5  NAG B   4       1.671  34.745  21.3220  0.00  0.00     0.000 C
ATOM     53  O5  NAG B   4       1.609  33.707  22.3250  0.00  0.00     0.000 O
BRANCH 49 56
ATOM     54   N  NAG B   4       3.043  35.052  24.9150  0.00  0.00     0.000 N
ATOM     56  HD  NAG B   4       2.199  35.179  25.0630  0.00  0.00     0.000 HD
ATOM     56   C  NAG B   4       2.913  35.762  27.2320  0.00  0.00     0.000 C
ATOM     57   O  NAG B   4       4.927  35.650  26.0360  0.00  0.00     0.000 OA
ATOM     58   C  NAG B   4       3.717  35.488  25.9980  0.00  0.00     0.000 C
ENDBRANCH 49 56
ATOM     59   O  NAG B   4       0.116  33.694  19.7180  0.00  0.00     0.000 O
ATOM     61  HD  NAG B   4       0.806  33.622  20.2370  0.00  0.00     0.000 HD
ATOM     61   O  NAG B   4       0.116  33.694  19.7180  0.00  0.00     0.000 O
ATOM     63  HD  NAG B   4       0.806  33.622  20.2370  0.00  0.00     0.000 HD
ENDBRANCH 47 50
ENDBRANCH 34 47
ENDBRANCH 33 37
ENDBRANCH 17 33
ENDBRANCH 16 19
ENDBRANCH 1 16
TORSDOF 10
ENDMDL
MODEL 3
REMARK VINA RESULT:      -7.1      1.930      2.910
ROOT
ATOM      1  C1  GCU B   1      19.673  26.122  11.2300  0.00  0.00     0.000 C
ATOM      2  C2  GCU B   1      20.184  27.061  12.3110  0.00  0.00     0.000 C
ATOM      3  C3  GCU B   1      19.959  28.510  11.9070  0.00  0.00     0.000 C
ATOM      4  C4  GCU B   1      20.517  28.760  10.5150  0.00  0.00     0.000 C
ATOM      5  C5  GCU B   1      19.990  27.727   9.5180  0.00  0.00     0.000 C
ATOM      6  O5  GCU B   1      20.324  26.412   9.9830  0.00  0.00     0.000 O
ATOM      7   O  GCU B   1      19.484  26.758  13.5140  0.00  0.00     0.000 O
ATOM      9  HD  GCU B   1      19.841  26.588  14.2840  0.00  0.00     0.000 HD
ATOM      9   O  GCU B   1      20.578  29.396  12.8430  0.00  0.00     0.000 O
ATOM     11  HD  GCU B   1      20.936  29.226  13.6130  0.00  0.00     0.000 HD
ATOM     11   O  GCU B   1      20.141  30.072  10.0960  0.00  0.00     0.000 O
ATOM     13  HD  GCU B   1      20.499  29.902  10.8660  0.00  0.00     0.000 HD
ENDROOT
BRANCH 5 13
ATOM     13   C  GCU B   1      20.549  28.007   8.1430  0.00  0.00     0.000 C
ATOM     14   O  GCU B   1      21.703  28.464   8.0120  0.00  0.00     0.000 OA
ATOM     15   O  GCU B   1      19.826  27.740   7.1640  0.00  0.00     0.000 OA
ENDBRANCH 5 13
BRANCH 1 16
ATOM     16  O3  NAG B   2      20.081  24.877  10.9740  0.00  0.00     0.000 O
BRANCH 16 19
ATOM     17  C1  NAG B   2      18.745  21.361  11.2600  0.00  0.00     0.000 C
ATOM     18  C2  NAG B   2      19.292  22.700  11.7410  0.00  0.00     0.000 C
ATOM     19  C3  NAG B   2      19.401  23.678  10.5730  0.00  0.00     0.000 C
ATOM     20  C4  NAG B   2      20.187  23.048   9.4230  0.00  0.00     0.000 C
ATOM     21  C5  NAG B   2      19.549  21.724   9.0270  0.00  0.00     0.000 C
ATOM     22  O5  NAG B   2      19.534  20.853  10.1720  0.00  0.00     0.000 O
ATOM     23   O  NAG B   2      20.197  23.968   8.3260  0.00  0.00     0.000 O
ATOM     25  HD  NAG B   2      20.951  23.821   8.7250  0.00  0.00     0.000 HD
ATOM     25   C  NAG B   2      20.274  21.042   7.8690  0.00  0.00     0.000 C
ATOM     26   O  NAG B   2      21.532  20.487   8.2830  0.00  0.00     0.000 O
ATOM     28  HD  NAG B   2      22.286  20.340   8.6830  0.00  0.00     0.000 HD
BRANCH 18 30
ATOM     28   N  NAG B   2      19.318  22.434  13.1670  0.00  0.00     0.000 N
ATOM     30  HD  NAG B   2      18.846  23.158  13.1100  0.00  0.00     0.000 HD
ATOM     30   C  NAG B   2      18.817  23.264  14.0900  0.00  0.00     0.000 C
ATOM     31   C  NAG B   2      18.961  22.869  15.5330  0.00  0.00     0.000 C
ATOM     32   O  NAG B   2      18.266  24.303  13.7860  0.00  0.00     0.000 OA
ENDBRANCH 18 30
BRANCH 17 33
ATOM     33  O4  GCU B   3      18.700  20.475  12.3970  0.00  0.00     0.000 O
BRANCH 33 37
ATOM     34  C1  GCU B   3      16.496  17.004  13.0450  0.00  0.00     0.000 C
ATOM     35  C2  GCU B   3      17.838  16.868  12.3250  0.00  0.00     0.000 C
ATOM     36  C3  GCU B   3      18.666  18.114  12.5570  0.00  0.00     0.000 C
ATOM     37  C4  GCU B   3      17.872  19.342  12.1310  0.00  0.00     0.000 C
ATOM     38  C5  GCU B   3      16.552  19.394  12.9030  0.00  0.00     0.000 C
ATOM     39  O5  GCU B   3      15.819  18.195  12.6340  0.00  0.00     0.000 O
ATOM     40   O  GCU B   3      18.521  15.719  12.8310  0.00  0.00     0.000 O
ATOM     42  HD  GCU B   3      19.286  15.461  13.1450  0.00  0.00     0.000 HD
ATOM     42   O  GCU B   3      19.908  18.053  11.8330  0.00  0.00     0.000 O
ATOM     44  HD  GCU B   3      20.672  17.794  12.1470  0.00  0.00     0.000 HD
BRANCH 38 44
ATOM     44   C  GCU B   3      15.698  20.575  12.5150  0.00  0.00     0.000 C
ATOM     45   O  GCU B   3      14.947  20.467  11.5330  0.00  0.00     0.000 OA
ATOM     46   O  GCU B   3      15.757  21.626  13.1800  0.00  0.00     0.000 OA
ENDBRANCH 38 44
BRANCH 34 47
ATOM     47  O3  NAG B   4      15.706  16.008  12.6680  0.00  0.00     0.000 O
BRANCH 47 50
ATOM     48  C1  NAG B   4      12.977  14.397  10.7410  0.00  0.00     0.000 C
ATOM     49  C2  NAG B   4      13.628  15.311  11.7750  0.00  0.00     0.000 C
ATOM     50  C3  NAG B   4      15.097  15.547  11.4630  0.00  0.00     0.000 C
ATOM     51  C4  NAG B   4      15.832  14.296  10.9670  0.00  0.00     0.000 C
ATOM     52  C5  NAG B   4      15.200  13.754   9.6960  0.00  0.00     0.000 C
ATOM     53  O5  NAG B   4      13.755  13.760   9.7070  0.00  0.00     0.000 O
BRANCH 49 56
ATOM     54   N  NAG B   4      13.158  16.616  11.2790  0.00  0.00     0.000 N
ATOM     56  HD  NAG B   4      13.457  17.029  10.5790  0.00  0.00     0.000 HD
ATOM     56   C  NAG B   4      11.911  18.697  11.2000  0.00  0.00     0.000 C
ATOM     57   O  NAG B   4      11.918  17.277  13.0660  0.00  0.00     0.000 OA
ATOM     58   C  NAG B   4      12.339  17.464  11.9340  0.00  0.00     0.000 C
ENDBRANCH 49 56
ATOM     59   O  NAG B   4      15.471  11.900   8.0890  0.00  0.00     0.000 O
ATOM     61  HD  NAG B   4      15.096  12.211   8.8050  0.00  0.00     0.000 HD
ATOM     61   O  NAG B   4      15.471  11.900   8.0890  0.00  0.00     0.000 O
ATOM     63  HD  NAG B   4      15.096  12.211   8.8050  0.00  0.00     0.000 HD
ENDBRANCH 47 50
ENDBRANCH 34 47
ENDBRANCH 33 37
ENDBRANCH 17 33
ENDBRANCH 16 19
ENDBRANCH 1 16
TORSDOF 10
ENDMDL
MODEL 4
REMARK VINA RESULT:      -7.0     19.601     24.421
ROOT
ATOM      1  C1  GCU B   1       5.603  37.418  24.0760  0.00  0.00     0.000 C
ATOM      2  C2  GCU B   1       4.958  37.538  25.4480  0.00  0.00     0.000 C
ATOM      3  C3  GCU B   1       4.471  36.179  25.9280  0.00  0.00     0.000 C
ATOM      4  C4  GCU B   1       3.607  35.524  24.8610  0.00  0.00     0.000 C
ATOM      5  C5  GCU B   1       4.321  35.509  23.5080  0.00  0.00     0.000 C
ATOM      6  O5  GCU B   1       4.668  36.852  23.1440  0.00  0.00     0.000 O
ATOM      7   O  GCU B   1       5.934  38.067  26.3400  0.00  0.00     0.000 O
ATOM      9  HD  GCU B   1       5.834  38.755  26.8570  0.00  0.00     0.000 HD
ATOM      9   O  GCU B   1       3.725  36.310  27.1400  0.00  0.00     0.000 O
ATOM     11  HD  GCU B   1       3.625  36.998  27.6570  0.00  0.00     0.000 HD
ATOM     11   O  GCU B   1       3.308  34.188  25.2650  0.00  0.00     0.000 O
ATOM     13  HD  GCU B   1       3.209  34.875  25.7820  0.00  0.00     0.000 HD
ENDROOT
BRANCH 5 13
ATOM     13   C  GCU B   1       3.448  34.842  22.4730  0.00  0.00     0.000 C
ATOM     14   O  GCU B   1       2.791  35.529  21.6640  0.00  0.00     0.000 OA
ATOM     15   O  GCU B   1       3.437  33.596  22.4490  0.00  0.00     0.000 OA
ENDBRANCH 5 13
BRANCH 1 16
ATOM     16  O3  NAG B   2       5.717  38.367  23.1450  0.00  0.00     0.000 O
BRANCH 16 19
ATOM     17  C1  NAG B   2       8.529  40.149  21.3720  0.00  0.00     0.000 C
ATOM     18  C2  NAG B   2       7.635  39.748  22.5380  0.00  0.00     0.000 C
ATOM     19  C3  NAG B   2       6.683  38.630  22.1160  0.00  0.00     0.000 C
ATOM     20  C4  NAG B   2       5.930  39.025  20.8460  0.00  0.00     0.000 C
ATOM     21  C5  NAG B   2       6.921  39.400  19.7540  0.00  0.00     0.000 C
ATOM     22  O5  NAG B   2       7.738  40.488  20.2210  0.00  0.00     0.000 O
ATOM     23   O  NAG B   2       5.111  37.920  20.4460  0.00  0.00     0.000 O
ATOM     25  HD  NAG B   2       4.705  38.631  20.7300  0.00  0.00     0.000 HD
ATOM     25   C  NAG B   2       6.237  39.791  18.4450  0.00  0.00     0.000 C
ATOM     26   O  NAG B   2       5.616  41.083  18.5370  0.00  0.00     0.000 O
ATOM     28  HD  NAG B   2       5.210  41.793  18.8210  0.00  0.00     0.000 HD
BRANCH 18 30
ATOM     28   N  NAG B   2       8.740  39.871  23.4710  0.00  0.00     0.000 N
ATOM     30  HD  NAG B   2       8.044  39.887  23.9860  0.00  0.00     0.000 HD
ATOM     30   C  NAG B   2       8.588  40.096  24.7810  0.00  0.00     0.000 C
ATOM     31   C  NAG B   2       9.832  40.245  25.6120  0.00  0.00     0.000 C
ATOM     32   O  NAG B   2       7.490  40.183  25.2940  0.00  0.00     0.000 OA
ENDBRANCH 18 30
BRANCH 17 33
ATOM     33  O4  GCU B   3       9.375  41.227  21.8220  0.00  0.00     0.000 O
BRANCH 33 37
ATOM     34  C1  GCU B   3      12.742  42.957  20.0900  0.00  0.00     0.000 C
ATOM     35  C2  GCU B   3      11.372  43.407  19.5810  0.00  0.00     0.000 C
ATOM     36  C3  GCU B   3      10.306  43.015  20.5820  0.00  0.00     0.000 C
ATOM     37  C4  GCU B   3      10.388  41.521  20.8580  0.00  0.00     0.000 C
ATOM     38  C5  GCU B   3      11.788  41.167  21.3640  0.00  0.00     0.000 C
ATOM     39  O5  GCU B   3      12.742  41.555  20.3700  0.00  0.00     0.000 O
ATOM     40   O  GCU B   3      11.386  44.825  19.4030  0.00  0.00     0.000 O
ATOM     42  HD  GCU B   3      10.941  45.543  19.5930  0.00  0.00     0.000 HD
ATOM     42   O  GCU B   3       8.993  43.358  20.1020  0.00  0.00     0.000 O
ATOM     44  HD  GCU B   3       8.549  44.076  20.2920  0.00  0.00     0.000 HD
BRANCH 38 44
ATOM     44   C  GCU B   3      11.953  39.693  21.6360  0.00  0.00     0.000 C
ATOM     45   O  GCU B   3      11.761  39.276  22.7880  0.00  0.00     0.000 OA
ATOM     46   O  GCU B   3      12.273  38.925  20.7080  0.00  0.00     0.000 OA
ENDBRANCH 38 44
BRANCH 34 47
ATOM     47  O3  NAG B   4      13.631  43.118  19.1200  0.00  0.00     0.000 O
BRANCH 47 50
ATOM     48  C1  NAG B   4      15.632  42.187  16.1390  0.00  0.00     0.000 C
ATOM     49  C2  NAG B   4      15.192  42.194  17.6000  0.00  0.00     0.000 C
ATOM     50  C3  NAG B   4      13.780  42.734  17.7550  0.00  0.00     0.000 C
ATOM     51  C4  NAG B   4      13.476  43.935  16.8520  0.00  0.00     0.000 C
ATOM     52  C5  NAG B   4      13.646  43.579  15.3840  0.00  0.00     0.000 C
ATOM     53  O5  NAG B   4      14.810  42.769  15.1060  0.00  0.00     0.000 O
BRANCH 49 56
ATOM     54   N  NAG B   4      14.918  40.748  17.6650  0.00  0.00     0.000 N
ATOM     56  HD  NAG B   4      14.407  40.305  17.1240  0.00  0.00     0.000 HD
ATOM     56   C  NAG B   4      14.956  38.467  18.4930  0.00  0.00     0.000 C
ATOM     57   O  NAG B   4      15.780  40.289  19.7180  0.00  0.00     0.000 OA
ATOM     58   C  NAG B   4      15.248  39.924  18.6800  0.00  0.00     0.000 C
ENDBRANCH 49 56
ATOM     59   O  NAG B   4      13.473  44.617  13.1510  0.00  0.00     0.000 O
ATOM     61  HD  NAG B   4      13.962  44.404  13.8340  0.00  0.00     0.000 HD
ATOM     61   O  NAG B   4      13.473  44.617  13.1510  0.00  0.00     0.000 O
ATOM     63  HD  NAG B   4      13.962  44.404  13.8340  0.00  0.00     0.000 HD
ENDBRANCH 47 50
ENDBRANCH 34 47
ENDBRANCH 33 37
ENDBRANCH 17 33
ENDBRANCH 16 19
ENDBRANCH 1 16
TORSDOF 10
ENDMDL
MODEL 5
REMARK VINA RESULT:      -6.9     15.798     23.332
ROOT
ATOM      1  C1  GCU B   1       4.929  11.345  31.0900  0.00  0.00     0.000 C
ATOM      2  C2  GCU B   1       3.865  10.260  31.1600  0.00  0.00     0.000 C
ATOM      3  C3  GCU B   1       2.542  10.777  30.6180  0.00  0.00     0.000 C
ATOM      4  C4  GCU B   1       2.174  12.090  31.2920  0.00  0.00     0.000 C
ATOM      5  C5  GCU B   1       3.331  13.088  31.2200  0.00  0.00     0.000 C
ATOM      6  O5  GCU B   1       4.494  12.504  31.8200  0.00  0.00     0.000 O
ATOM      7   O  GCU B   1       4.326   9.152  30.3940  0.00  0.00     0.000 O
ATOM      9  HD  GCU B   1       4.377   8.331  30.6630  0.00  0.00     0.000 HD
ATOM      9   O  GCU B   1       1.502   9.818  30.8270  0.00  0.00     0.000 O
ATOM     11  HD  GCU B   1       1.553   8.996  31.0960  0.00  0.00     0.000 HD
ATOM     11   O  GCU B   1       1.024  12.635  30.6460  0.00  0.00     0.000 O
ATOM     13  HD  GCU B   1       1.074  11.813  30.9150  0.00  0.00     0.000 HD
ENDROOT
BRANCH 5 13
ATOM     13   C  GCU B   1       2.933  14.385  31.8840  0.00  0.00     0.000 C
ATOM     14   O  GCU B   1       2.957  14.490  33.1280  0.00  0.00     0.000 OA
ATOM     15   O  GCU B   1       2.613  15.334  31.1440  0.00  0.00     0.000 OA
ENDBRANCH 5 13
BRANCH 1 16
ATOM     16  O3  NAG B   2       6.018  11.467  31.8530  0.00  0.00     0.000 O
BRANCH 16 19
ATOM     17  C1  NAG B   2       9.583  11.705  30.6450  0.00  0.00     0.000 C
ATOM     18  C2  NAG B   2       8.155  11.180  30.7100  0.00  0.00     0.000 C
ATOM     19  C3  NAG B   2       7.312  12.052  31.6390  0.00  0.00     0.000 C
ATOM     20  C4  NAG B   2       7.997  12.199  32.9970  0.00  0.00     0.000 C
ATOM     21  C5  NAG B   2       9.409  12.733  32.8070  0.00  0.00     0.000 C
ATOM     22  O5  NAG B   2      10.140  11.826  31.9640  0.00  0.00     0.000 O
ATOM     23   O  NAG B   2       7.212  13.084  33.8050  0.00  0.00     0.000 O
ATOM     25  HD  NAG B   2       7.243  12.253  34.0450  0.00  0.00     0.000 HD
ATOM     25   C  NAG B   2      10.152  12.922  34.1290  0.00  0.00     0.000 C
ATOM     26   O  NAG B   2      10.540  11.665  34.7030  0.00  0.00     0.000 O
ATOM     28  HD  NAG B   2      10.571  10.833  34.9440  0.00  0.00     0.000 HD
BRANCH 18 30
ATOM     28   N  NAG B   2       7.847  11.080  29.2960  0.00  0.00     0.000 N
ATOM     30  HD  NAG B   2       7.563  10.326  29.6140  0.00  0.00     0.000 HD
ATOM     30   C  NAG B   2       7.369   9.973  28.7130  0.00  0.00     0.000 C
ATOM     31   C  NAG B   2       7.142  10.011  27.2280  0.00  0.00     0.000 C
ATOM     32   O  NAG B   2       7.124   8.968  29.3500  0.00  0.00     0.000 OA
ENDBRANCH 18 30
BRANCH 17 33
ATOM     33  O4  GCU B   3      10.333  10.823  29.7850  0.00  0.00     0.000 O
BRANCH 33 37
ATOM     34  C1  GCU B   3      13.705  11.527  27.4480  0.00  0.00     0.000 C
ATOM     35  C2  GCU B   3      13.923  11.163  28.9170  0.00  0.00     0.000 C
ATOM     36  C3  GCU B   3      12.662  10.540  29.4770  0.00  0.00     0.000 C
ATOM     37  C4  GCU B   3      11.486  11.480  29.2550  0.00  0.00     0.000 C
ATOM     38  C5  GCU B   3      11.344  11.784  27.7630  0.00  0.00     0.000 C
ATOM     39  O5  GCU B   3      12.563  12.376  27.3010  0.00  0.00     0.000 O
ATOM     40   O  GCU B   3      15.012  10.242  29.0090  0.00  0.00     0.000 O
ATOM     42  HD  GCU B   3      15.238   9.481  29.3550  0.00  0.00     0.000 HD
ATOM     42   O  GCU B   3      12.807  10.251  30.8790  0.00  0.00     0.000 O
ATOM     44  HD  GCU B   3      13.033   9.490  31.2260  0.00  0.00     0.000 HD
BRANCH 38 44
ATOM     44   C  GCU B   3      10.210  12.733  27.4670  0.00  0.00     0.000 C
ATOM     45   O  GCU B   3      10.265  13.885  27.9240  0.00  0.00     0.000 OA
ATOM     46   O  GCU B   3       9.249  12.350  26.7740  0.00  0.00     0.000 OA
ENDBRANCH 38 44
BRANCH 34 47
ATOM     47  O3  NAG B   4      14.733  12.253  27.0300  0.00  0.00     0.000 O
BRANCH 47 50
ATOM     48  C1  NAG B   4      17.010  14.293  24.9300  0.00  0.00     0.000 C
ATOM     49  C2  NAG B   4      16.568  13.428  26.1070  0.00  0.00     0.000 C
ATOM     50  C3  NAG B   4      15.300  12.654  25.7840  0.00  0.00     0.000 C
ATOM     51  C4  NAG B   4      14.267  13.462  24.9910  0.00  0.00     0.000 C
ATOM     52  C5  NAG B   4      14.838  13.933  23.6640  0.00  0.00     0.000 C
ATOM     53  O5  NAG B   4      16.196  14.419  23.7450  0.00  0.00     0.000 O
BRANCH 49 56
ATOM     54   N  NAG B   4      17.684  12.491  25.8900  0.00  0.00     0.000 N
ATOM     56  HD  NAG B   4      18.090  12.353  25.1370  0.00  0.00     0.000 HD
ATOM     56   C  NAG B   4      19.335  10.779  26.3720  0.00  0.00     0.000 C
ATOM     57   O  NAG B   4      17.599  11.338  27.8470  0.00  0.00     0.000 OA
ATOM     58   C  NAG B   4      18.120  11.561  26.7640  0.00  0.00     0.000 C
ENDBRANCH 49 56
ATOM     59   O  NAG B   4      14.179  15.244  21.6780  0.00  0.00     0.000 O
ATOM     61  HD  NAG B   4      14.546  15.220  22.4620  0.00  0.00     0.000 HD
ATOM     61   O  NAG B   4      14.179  15.244  21.6780  0.00  0.00     0.000 O
ATOM     63  HD  NAG B   4      14.546  15.220  22.4620  0.00  0.00     0.000 HD
ENDBRANCH 47 50
ENDBRANCH 34 47
ENDBRANCH 33 37
ENDBRANCH 17 33
ENDBRANCH 16 19
ENDBRANCH 1 16
TORSDOF 10
ENDMDL
MODEL 6
REMARK VINA RESULT:      -6.9     10.026     16.934
ROOT
ATOM      1  C1  GCU B   1      21.251  32.119  14.2750  0.00  0.00     0.000 C
ATOM      2  C2  GCU B   1      22.708  32.161  13.8390  0.00  0.00     0.000 C
ATOM      3  C3  GCU B   1      22.830  31.825  12.3600  0.00  0.00     0.000 C
ATOM      4  C4  GCU B   1      22.099  30.527  12.0540  0.00  0.00     0.000 C
ATOM      5  C5  GCU B   1      20.665  30.565  12.5860  0.00  0.00     0.000 C
ATOM      6  O5  GCU B   1      20.694  30.825  13.9960  0.00  0.00     0.000 O
ATOM      7   O  GCU B   1      23.201  33.471  14.1010  0.00  0.00     0.000 O
ATOM      9  HD  GCU B   1      23.916  33.667  14.5470  0.00  0.00     0.000 HD
ATOM      9   O  GCU B   1      24.204  31.707  11.9820  0.00  0.00     0.000 O
ATOM     11  HD  GCU B   1      24.920  31.903  12.4290  0.00  0.00     0.000 HD
ATOM     11   O  GCU B   1      22.084  30.329  10.6400  0.00  0.00     0.000 O
ATOM     13  HD  GCU B   1      22.800  30.525  11.0860  0.00  0.00     0.000 HD
ENDROOT
BRANCH 5 13
ATOM     13   C  GCU B   1      19.960  29.272  12.2560  0.00  0.00     0.000 C
ATOM     14   O  GCU B   1      19.836  28.381  13.1210  0.00  0.00     0.000 OA
ATOM     15   O  GCU B   1      19.491  29.151  11.1070  0.00  0.00     0.000 OA
ENDBRANCH 5 13
BRANCH 1 16
ATOM     16  O3  NAG B   2      20.775  31.887  15.5000  0.00  0.00     0.000 O
BRANCH 16 19
ATOM     17  C1  NAG B   2      18.346  33.780  17.6770  0.00  0.00     0.000 C
ATOM     18  C2  NAG B   2      19.594  33.554  16.8340  0.00  0.00     0.000 C
ATOM     19  C3  NAG B   2      19.531  32.190  16.1490  0.00  0.00     0.000 C
ATOM     20  C4  NAG B   2      19.251  31.092  17.1750  0.00  0.00     0.000 C
ATOM     21  C5  NAG B   2      17.984  31.423  17.9510  0.00  0.00     0.000 C
ATOM     22  O5  NAG B   2      18.153  32.696  18.5990  0.00  0.00     0.000 O
ATOM     23   O  NAG B   2      19.123  29.847  16.4800  0.00  0.00     0.000 O
ATOM     25  HD  NAG B   2      19.814  29.944  16.9930  0.00  0.00     0.000 HD
ATOM     25   C  NAG B   2      17.631  30.358  18.9870  0.00  0.00     0.000 C
ATOM     26   O  NAG B   2      18.517  30.403  20.1170  0.00  0.00     0.000 O
ATOM     28  HD  NAG B   2      19.208  30.500  20.6290  0.00  0.00     0.000 HD
BRANCH 18 30
ATOM     28   N  NAG B   2      19.581  34.925  16.3590  0.00  0.00     0.000 N
ATOM     30  HD  NAG B   2      20.400  34.676  16.2230  0.00  0.00     0.000 HD
ATOM     30   C  NAG B   2      20.675  35.587  15.9610  0.00  0.00     0.000 C
ATOM     31   C  NAG B   2      20.507  37.019  15.5390  0.00  0.00     0.000 C
ATOM     32   O  NAG B   2      21.770  35.061  15.9400  0.00  0.00     0.000 OA
ENDBRANCH 18 30
BRANCH 17 33
ATOM     33  O4  GCU B   3      18.482  35.063  18.3220  0.00  0.00     0.000 O
BRANCH 33 37
ATOM     34  C1  GCU B   3      15.646  37.505  20.1460  0.00  0.00     0.000 C
ATOM     35  C2  GCU B   3      16.261  36.384  20.9840  0.00  0.00     0.000 C
ATOM     36  C3  GCU B   3      17.534  35.897  20.3230  0.00  0.00     0.000 C
ATOM     37  C4  GCU B   3      17.240  35.487  18.8870  0.00  0.00     0.000 C
ATOM     38  C5  GCU B   3      16.632  36.669  18.1290  0.00  0.00     0.000 C
ATOM     39  O5  GCU B   3      15.433  37.071  18.7990  0.00  0.00     0.000 O
ATOM     40   O  GCU B   3      16.544  36.885  22.2920  0.00  0.00     0.000 O
ATOM     42  HD  GCU B   3      17.171  36.930  22.8870  0.00  0.00     0.000 HD
ATOM     42   O  GCU B   3      18.103  34.791  21.0470  0.00  0.00     0.000 O
ATOM     44  HD  GCU B   3      18.730  34.836  21.6430  0.00  0.00     0.000 HD
BRANCH 38 44
ATOM     44   C  GCU B   3      16.290  36.329  16.7000  0.00  0.00     0.000 C
ATOM     45   O  GCU B   3      15.180  35.830  16.4580  0.00  0.00     0.000 OA
ATOM     46   O  GCU B   3      17.117  36.555  15.7960  0.00  0.00     0.000 OA
ENDBRANCH 38 44
BRANCH 34 47
ATOM     47  O3  NAG B   4      14.438  37.777  20.6180  0.00  0.00     0.000 O
BRANCH 47 50
ATOM     48  C1  NAG B   4      12.846  41.127  20.6230  0.00  0.00     0.000 C
ATOM     49  C2  NAG B   4      13.947  40.087  20.4480  0.00  0.00     0.000 C
ATOM     50  C3  NAG B   4      13.375  38.684  20.3280  0.00  0.00     0.000 C
ATOM     51  C4  NAG B   4      12.201  38.412  21.2770  0.00  0.00     0.000 C
ATOM     52  C5  NAG B   4      11.052  39.373  21.0210  0.00  0.00     0.000 C
ATOM     53  O5  NAG B   4      11.466  40.738  20.7900  0.00  0.00     0.000 O
BRANCH 49 56
ATOM     54   N  NAG B   4      14.209  40.289  19.0120  0.00  0.00     0.000 N
ATOM     56  HD  NAG B   4      13.673  40.079  18.3660  0.00  0.00     0.000 HD
ATOM     56   C  NAG B   4      15.405  40.886  16.9860  0.00  0.00     0.000 C
ATOM     57   O  NAG B   4      16.425  40.790  19.0960  0.00  0.00     0.000 OA
ATOM     58   C  NAG B   4      15.389  40.642  18.4640  0.00  0.00     0.000 C
ENDBRANCH 49 56
ATOM     59   O  NAG B   4       8.794  39.894  21.8720  0.00  0.00     0.000 O
ATOM     61  HD  NAG B   4       9.647  40.043  21.8940  0.00  0.00     0.000 HD
ATOM     61   O  NAG B   4       8.794  39.894  21.8720  0.00  0.00     0.000 O
ATOM     63  HD  NAG B   4       9.647  40.043  21.8940  0.00  0.00     0.000 HD
ENDBRANCH 47 50
ENDBRANCH 34 47
ENDBRANCH 33 37
ENDBRANCH 17 33
ENDBRANCH 16 19
ENDBRANCH 1 16
TORSDOF 10
ENDMDL
MODEL 7
REMARK VINA RESULT:      -6.8     10.287     17.283
ROOT
ATOM      1  C1  GCU B   1      21.048  32.250  14.6570  0.00  0.00     0.000 C
ATOM      2  C2  GCU B   1      22.526  32.344  14.3120  0.00  0.00     0.000 C
ATOM      3  C3  GCU B   1      22.756  31.980  12.8530  0.00  0.00     0.000 C
ATOM      4  C4  GCU B   1      22.100  30.646  12.5350  0.00  0.00     0.000 C
ATOM      5  C5  GCU B   1      20.635  30.634  12.9750  0.00  0.00     0.000 C
ATOM      6  O5  GCU B   1      20.564  30.926  14.3770  0.00  0.00     0.000 O
ATOM      7   O  GCU B   1      22.946  33.680  14.5710  0.00  0.00     0.000 O
ATOM      9  HD  GCU B   1      23.623  33.917  15.0560  0.00  0.00     0.000 HD
ATOM      9   O  GCU B   1      24.155  31.913  12.5650  0.00  0.00     0.000 O
ATOM     11  HD  GCU B   1      24.832  32.150  13.0500  0.00  0.00     0.000 HD
ATOM     11   O  GCU B   1      22.183  30.414  11.1280  0.00  0.00     0.000 O
ATOM     13  HD  GCU B   1      22.860  30.652  11.6130  0.00  0.00     0.000 HD
ENDROOT
BRANCH 5 13
ATOM     13   C  GCU B   1      20.007  29.304  12.6350  0.00  0.00     0.000 C
ATOM     14   O  GCU B   1      20.032  28.365  13.4560  0.00  0.00     0.000 OA
ATOM     15   O  GCU B   1      19.447  29.201  11.5260  0.00  0.00     0.000 OA
ENDBRANCH 5 13
BRANCH 1 16
ATOM     16  O3  NAG B   2      20.505  32.026  15.8560  0.00  0.00     0.000 O
BRANCH 16 19
ATOM     17  C1  NAG B   2      18.069  34.055  17.8990  0.00  0.00     0.000 C
ATOM     18  C2  NAG B   2      19.337  33.766  17.1050  0.00  0.00     0.000 C
ATOM     19  C3  NAG B   2      19.250  32.386  16.4540  0.00  0.00     0.000 C
ATOM     20  C4  NAG B   2      18.900  31.327  17.4980  0.00  0.00     0.000 C
ATOM     21  C5  NAG B   2      17.620  31.719  18.2220  0.00  0.00     0.000 C
ATOM     22  O5  NAG B   2      17.811  33.003  18.8420  0.00  0.00     0.000 O
ATOM     23   O  NAG B   2      18.754  30.068  16.8320  0.00  0.00     0.000 O
ATOM     25  HD  NAG B   2      19.430  30.156  17.3650  0.00  0.00     0.000 HD
ATOM     25   C  NAG B   2      17.198  30.694  19.2730  0.00  0.00     0.000 C
ATOM     26   O  NAG B   2      18.046  30.741  20.4300  0.00  0.00     0.000 O
ATOM     28  HD  NAG B   2      18.723  30.829  20.9630  0.00  0.00     0.000 HD
BRANCH 18 30
ATOM     28   N  NAG B   2      19.382  35.063  16.4570  0.00  0.00     0.000 N
ATOM     30  HD  NAG B   2      20.219  34.851  16.5350  0.00  0.00     0.000 HD
ATOM     30   C  NAG B   2      20.514  35.738  16.2170  0.00  0.00     0.000 C
ATOM     31   C  NAG B   2      20.395  37.092  15.5770  0.00  0.00     0.000 C
ATOM     32   O  NAG B   2      21.603  35.284  16.5050  0.00  0.00     0.000 OA
ENDBRANCH 18 30
BRANCH 17 33
ATOM     33  O4  GCU B   3      18.227  35.349  18.5150  0.00  0.00     0.000 O
BRANCH 33 37
ATOM     34  C1  GCU B   3      15.380  38.118  19.7630  0.00  0.00     0.000 C
ATOM     35  C2  GCU B   3      15.811  37.045  20.7620  0.00  0.00     0.000 C
ATOM     36  C3  GCU B   3      17.114  36.423  20.3070  0.00  0.00     0.000 C
ATOM     37  C4  GCU B   3      16.962  35.899  18.8860  0.00  0.00     0.000 C
ATOM     38  C5  GCU B   3      16.532  37.039  17.9610  0.00  0.00     0.000 C
ATOM     39  O5  GCU B   3      15.295  37.575  18.4420  0.00  0.00     0.000 O
ATOM     40   O  GCU B   3      15.974  37.648  22.0480  0.00  0.00     0.000 O
ATOM     42  HD  GCU B   3      16.529  37.710  22.7100  0.00  0.00     0.000 HD
ATOM     42   O  GCU B   3      17.515  35.357  21.1870  0.00  0.00     0.000 O
ATOM     44  HD  GCU B   3      18.070  35.419  21.8490  0.00  0.00     0.000 HD
BRANCH 38 44
ATOM     44   C  GCU B   3      16.336  36.589  16.5350  0.00  0.00     0.000 C
ATOM     45   O  GCU B   3      17.199  36.885  15.6950  0.00  0.00     0.000 OA
ATOM     46   O  GCU B   3      15.322  35.933  16.2280  0.00  0.00     0.000 OA
ENDBRANCH 38 44
BRANCH 34 47
ATOM     47  O3  NAG B   4      14.147  38.506  20.0580  0.00  0.00     0.000 O
BRANCH 47 50
ATOM     48  C1  NAG B   4      11.114  40.515  20.7800  0.00  0.00     0.000 C
ATOM     49  C2  NAG B   4      12.147  39.406  20.9490  0.00  0.00     0.000 C
ATOM     50  C3  NAG B   4      13.443  39.735  20.2260  0.00  0.00     0.000 C
ATOM     51  C4  NAG B   4      13.236  40.395  18.8580  0.00  0.00     0.000 C
ATOM     52  C5  NAG B   4      12.466  41.699  18.9850  0.00  0.00     0.000 C
ATOM     53  O5  NAG B   4      11.358  41.641  19.9100  0.00  0.00     0.000 O
BRANCH 49 56
ATOM     54   N  NAG B   4      12.449  39.784  22.3400  0.00  0.00     0.000 N
ATOM     56  HD  NAG B   4      12.524  40.593  22.6400  0.00  0.00     0.000 HD
ATOM     56   C  NAG B   4      13.010  39.533  24.6890  0.00  0.00     0.000 C
ATOM     57   O  NAG B   4      13.072  37.757  23.1590  0.00  0.00     0.000 OA
ATOM     58   C  NAG B   4      12.852  38.948  23.3190  0.00  0.00     0.000 C
ENDBRANCH 49 56
ATOM     59   O  NAG B   4      11.572  43.515  17.5730  0.00  0.00     0.000 O
ATOM     61  HD  NAG B   4      11.447  42.757  17.9720  0.00  0.00     0.000 HD
ATOM     61   O  NAG B   4      11.572  43.515  17.5730  0.00  0.00     0.000 O
ATOM     63  HD  NAG B   4      11.447  42.757  17.9720  0.00  0.00     0.000 HD
ENDBRANCH 47 50
ENDBRANCH 34 47
ENDBRANCH 33 37
ENDBRANCH 17 33
ENDBRANCH 16 19
ENDBRANCH 1 16
TORSDOF 10
ENDMDL
MODEL 8
REMARK VINA RESULT:      -6.8     20.723     25.224
ROOT
ATOM      1  C1  GCU B   1       5.646  24.680  35.3910  0.00  0.00     0.000 C
ATOM      2  C2  GCU B   1       5.162  24.865  36.8210  0.00  0.00     0.000 C
ATOM      3  C3  GCU B   1       5.017  23.518  37.5120  0.00  0.00     0.000 C
ATOM      4  C4  GCU B   1       4.178  22.578  36.6600  0.00  0.00     0.000 C
ATOM      5  C5  GCU B   1       4.711  22.510  35.2280  0.00  0.00     0.000 C
ATOM      6  O5  GCU B   1       4.736  23.832  34.6730  0.00  0.00     0.000 O
ATOM      7   O  GCU B   1       6.113  25.679  37.4980  0.00  0.00     0.000 O
ATOM      9  HD  GCU B   1       5.942  26.401  37.9460  0.00  0.00     0.000 HD
ATOM      9   O  GCU B   1       4.413  23.673  38.7980  0.00  0.00     0.000 O
ATOM     11  HD  GCU B   1       4.241  24.395  39.2460  0.00  0.00     0.000 HD
ATOM     11   O  GCU B   1       4.203  21.276  37.2470  0.00  0.00     0.000 O
ATOM     13  HD  GCU B   1       4.031  21.998  37.6950  0.00  0.00     0.000 HD
ENDROOT
BRANCH 5 13
ATOM     13   C  GCU B   1       3.869  21.560  34.4100  0.00  0.00     0.000 C
ATOM     14   O  GCU B   1       3.732  20.372  34.7660  0.00  0.00     0.000 OA
ATOM     15   O  GCU B   1       3.305  22.020  33.3990  0.00  0.00     0.000 OA
ENDBRANCH 5 13
BRANCH 1 16
ATOM     16  O3  NAG B   2       5.454  25.499  34.3550  0.00  0.00     0.000 O
BRANCH 16 19
ATOM     17  C1  NAG B   2       7.729  27.748  32.3570  0.00  0.00     0.000 C
ATOM     18  C2  NAG B   2       7.009  27.217  33.5890  0.00  0.00     0.000 C
ATOM     19  C3  NAG B   2       6.283  25.914  33.2580  0.00  0.00     0.000 C
ATOM     20  C4  NAG B   2       5.390  26.100  32.0320  0.00  0.00     0.000 C
ATOM     21  C5  NAG B   2       6.216  26.627  30.8670  0.00  0.00     0.000 C
ATOM     22  O5  NAG B   2       6.819  27.875  31.2520  0.00  0.00     0.000 O
ATOM     23   O  NAG B   2       4.792  24.838  31.7140  0.00  0.00     0.000 O
ATOM     25  HD  NAG B   2       4.267  25.461  32.0070  0.00  0.00     0.000 HD
ATOM     25   C  NAG B   2       5.390  26.822  29.5980  0.00  0.00     0.000 C
ATOM     26   O  NAG B   2       4.523  27.963  29.6990  0.00  0.00     0.000 O
ATOM     28  HD  NAG B   2       3.998  28.586  29.9910  0.00  0.00     0.000 HD
BRANCH 18 30
ATOM     28   N  NAG B   2       7.310  28.154  34.6540  0.00  0.00     0.000 N
ATOM     30  HD  NAG B   2       7.751  27.446  34.8840  0.00  0.00     0.000 HD
ATOM     30   C  NAG B   2       8.002  27.836  35.7550  0.00  0.00     0.000 C
ATOM     31   C  NAG B   2       8.194  28.907  36.7920  0.00  0.00     0.000 C
ATOM     32   O  NAG B   2       8.461  26.724  35.9240  0.00  0.00     0.000 OA
ENDBRANCH 18 30
BRANCH 17 33
ATOM     33  O4  GCU B   3       8.362  28.991  32.7230  0.00  0.00     0.000 O
BRANCH 33 37
ATOM     34  C1  GCU B   3      11.728  30.896  31.1830  0.00  0.00     0.000 C
ATOM     35  C2  GCU B   3      10.511  30.756  30.2680  0.00  0.00     0.000 C
ATOM     36  C3  GCU B   3       9.284  30.445  31.1000  0.00  0.00     0.000 C
ATOM     37  C4  GCU B   3       9.544  29.212  31.9530  0.00  0.00     0.000 C
ATOM     38  C5  GCU B   3      10.774  29.445  32.8330  0.00  0.00     0.000 C
ATOM     39  O5  GCU B   3      11.894  29.724  31.9870  0.00  0.00     0.000 O
ATOM     40   O  GCU B   3      10.326  31.979  29.5530  0.00  0.00     0.000 O
ATOM     42  HD  GCU B   3       9.725  32.569  29.3490  0.00  0.00     0.000 HD
ATOM     42   O  GCU B   3       8.132  30.235  30.2640  0.00  0.00     0.000 O
ATOM     44  HD  GCU B   3       7.531  30.824  30.0600  0.00  0.00     0.000 HD
BRANCH 38 44
ATOM     44   C  GCU B   3      11.110  28.251  33.6920  0.00  0.00     0.000 C
ATOM     45   O  GCU B   3      11.277  28.424  34.9090  0.00  0.00     0.000 OA
ATOM     46   O  GCU B   3      11.208  27.124  33.1710  0.00  0.00     0.000 OA
ENDBRANCH 38 44
BRANCH 34 47
ATOM     47  O3  NAG B   4      12.820  30.961  30.4340  0.00  0.00     0.000 O
BRANCH 47 50
ATOM     48  C1  NAG B   4      15.794  29.496  28.7720  0.00  0.00     0.000 C
ATOM     49  C2  NAG B   4      14.881  29.917  29.9190  0.00  0.00     0.000 C
ATOM     50  C3  NAG B   4      13.461  30.167  29.4370  0.00  0.00     0.000 C
ATOM     51  C4  NAG B   4      13.384  30.887  28.0860  0.00  0.00     0.000 C
ATOM     52  C5  NAG B   4      14.078  30.088  26.9960  0.00  0.00     0.000 C
ATOM     53  O5  NAG B   4      15.331  29.496  27.4050  0.00  0.00     0.000 O
BRANCH 49 56
ATOM     54   N  NAG B   4      14.691  28.567  30.4790  0.00  0.00     0.000 N
ATOM     56  HD  NAG B   4      14.361  27.887  30.0570  0.00  0.00     0.000 HD
ATOM     56   C  NAG B   4      14.669  26.771  32.1110  0.00  0.00     0.000 C
ATOM     57   O  NAG B   4      15.044  29.015  32.6790  0.00  0.00     0.000 OA
ATOM     58   C  NAG B   4      14.811  28.224  31.7770  0.00  0.00     0.000 C
ENDBRANCH 49 56
ATOM     59   O  NAG B   4      14.595  30.224  24.5860  0.00  0.00     0.000 O
ATOM     61  HD  NAG B   4      14.836  30.370  25.4050  0.00  0.00     0.000 HD
ATOM     61   O  NAG B   4      14.595  30.224  24.5860  0.00  0.00     0.000 O
ATOM     63  HD  NAG B   4      14.836  30.370  25.4050  0.00  0.00     0.000 HD
ENDBRANCH 47 50
ENDBRANCH 34 47
ENDBRANCH 33 37
ENDBRANCH 17 33
ENDBRANCH 16 19
ENDBRANCH 1 16
TORSDOF 10
ENDMDL
MODEL 9
REMARK VINA RESULT:      -6.8     21.411     23.667
ROOT
ATOM      1  C1  GCU B   1      10.391  44.961  18.6690  0.00  0.00     0.000 C
ATOM      2  C2  GCU B   1      10.242  46.459  18.8890  0.00  0.00     0.000 C
ATOM      3  C3  GCU B   1      10.560  47.218  17.6100  0.00  0.00     0.000 C
ATOM      4  C4  GCU B   1      11.905  46.775  17.0570  0.00  0.00     0.000 C
ATOM      5  C5  GCU B   1      11.974  45.252  16.9320  0.00  0.00     0.000 C
ATOM      6  O5  GCU B   1      11.720  44.664  18.2150  0.00  0.00     0.000 O
ATOM      7   O  GCU B   1       8.901  46.704  19.3010  0.00  0.00     0.000 O
ATOM      9  HD  GCU B   1       8.655  47.148  20.0030  0.00  0.00     0.000 HD
ATOM      9   O  GCU B   1      10.577  48.627  17.8520  0.00  0.00     0.000 O
ATOM     11  HD  GCU B   1      10.331  49.072  18.5540  0.00  0.00     0.000 HD
ATOM     11   O  GCU B   1      12.097  47.374  15.7750  0.00  0.00     0.000 O
ATOM     13  HD  GCU B   1      11.852  47.818  16.4760  0.00  0.00     0.000 HD
ENDROOT
BRANCH 5 13
ATOM     13   C  GCU B   1      13.313  44.843  16.3680  0.00  0.00     0.000 C
ATOM     14   O  GCU B   1      13.498  44.818  15.1330  0.00  0.00     0.000 OA
ATOM     15   O  GCU B   1      14.216  44.563  17.1790  0.00  0.00     0.000 OA
ENDBRANCH 5 13
BRANCH 1 16
ATOM     16  O3  NAG B   2      10.663  44.028  19.5840  0.00  0.00     0.000 O
BRANCH 16 19
ATOM     17  C1  NAG B   2       8.696  41.073  20.8610  0.00  0.00     0.000 C
ATOM     18  C2  NAG B   2       8.988  42.534  20.5420  0.00  0.00     0.000 C
ATOM     19  C3  NAG B   2      10.280  42.652  19.7340  0.00  0.00     0.000 C
ATOM     20  C4  NAG B   2      11.418  41.916  20.4400  0.00  0.00     0.000 C
ATOM     21  C5  NAG B   2      11.015  40.472  20.7010  0.00  0.00     0.000 C
ATOM     22  O5  NAG B   2       9.823  40.460  21.5070  0.00  0.00     0.000 O
ATOM     23   O  NAG B   2      12.584  41.988  19.6110  0.00  0.00     0.000 O
ATOM     25  HD  NAG B   2      12.602  42.426  20.3580  0.00  0.00     0.000 HD
ATOM     25   C  NAG B   2      12.114  39.668  21.3920  0.00  0.00     0.000 C
ATOM     26   O  NAG B   2      12.255  40.039  22.7730  0.00  0.00     0.000 O
ATOM     28  HD  NAG B   2      12.274  40.477  23.5190  0.00  0.00     0.000 HD
BRANCH 18 30
ATOM     28   N  NAG B   2       7.673  42.891  20.0460  0.00  0.00     0.000 N
ATOM     30  HD  NAG B   2       7.910  43.590  20.4980  0.00  0.00     0.000 HD
ATOM     30   C  NAG B   2       7.022  44.008  20.3930  0.00  0.00     0.000 C
ATOM     31   C  NAG B   2       5.644  44.216  19.8290  0.00  0.00     0.000 C
ATOM     32   O  NAG B   2       7.515  44.831  21.1380  0.00  0.00     0.000 OA
ENDBRANCH 18 30
BRANCH 17 33
ATOM     33  O4  GCU B   3       7.491  41.032  21.6510  0.00  0.00     0.000 O
BRANCH 33 37
ATOM     34  C1  GCU B   3       4.724  37.970  22.1950  0.00  0.00     0.000 C
ATOM     35  C2  GCU B   3       5.902  38.043  23.1670  0.00  0.00     0.000 C
ATOM     36  C3  GCU B   3       6.537  39.415  23.0920  0.00  0.00     0.000 C
ATOM     37  C4  GCU B   3       6.922  39.722  21.6520  0.00  0.00     0.000 C
ATOM     38  C5  GCU B   3       5.684  39.628  20.7570  0.00  0.00     0.000 C
ATOM     39  O5  GCU B   3       5.140  38.309  20.8690  0.00  0.00     0.000 O
ATOM     40   O  GCU B   3       5.426  37.791  24.4910  0.00  0.00     0.000 O
ATOM     42  HD  GCU B   3       5.449  38.103  25.2980  0.00  0.00     0.000 HD
ATOM     42   O  GCU B   3       7.695  39.497  23.9420  0.00  0.00     0.000 O
ATOM     44  HD  GCU B   3       7.719  39.810  24.7490  0.00  0.00     0.000 HD
BRANCH 38 44
ATOM     44   C  GCU B   3       5.993  39.896  19.3060  0.00  0.00     0.000 C
ATOM     45   O  GCU B   3       6.604  39.031  18.6590  0.00  0.00     0.000 OA
ATOM     46   O  GCU B   3       5.631  40.968  18.7850  0.00  0.00     0.000 OA
ENDBRANCH 38 44
BRANCH 34 47
ATOM     47  O3  NAG B   4       4.310  36.713  22.1190  0.00  0.00     0.000 O
BRANCH 47 50
ATOM     48  C1  NAG B   4       1.195  35.864  23.9440  0.00  0.00     0.000 C
ATOM     49  C2  NAG B   4       2.280  36.747  23.3350  0.00  0.00     0.000 C
ATOM     50  C3  NAG B   4       3.089  35.995  22.2910  0.00  0.00     0.000 C
ATOM     51  C4  NAG B   4       3.402  34.545  22.6780  0.00  0.00     0.000 C
ATOM     52  C5  NAG B   4       2.127  33.746  22.8970  0.00  0.00     0.000 C
ATOM     53  O5  NAG B   4       1.102  34.460  23.6230  0.00  0.00     0.000 O
BRANCH 49 56
ATOM     54   N  NAG B   4       1.456  37.507  22.3790  0.00  0.00     0.000 N
ATOM     56  HD  NAG B   4       1.121  37.197  21.6430  0.00  0.00     0.000 HD
ATOM     56   C  NAG B   4       0.302  39.391  21.3750  0.00  0.00     0.000 C
ATOM     57   O  NAG B   4       1.790  39.609  23.1750  0.00  0.00     0.000 OA
ATOM     58   C  NAG B   4       1.258  38.840  22.3880  0.00  0.00     0.000 C
ENDBRANCH 49 56
ATOM     59   O  NAG B   4       1.403  31.473  23.5310  0.00  0.00     0.000 O
ATOM     61  HD  NAG B   4       1.598  32.282  23.7700  0.00  0.00     0.000 HD
ATOM     61   O  NAG B   4       1.403  31.473  23.5310  0.00  0.00     0.000 O
ATOM     63  HD  NAG B   4       1.598  32.282  23.7700  0.00  0.00     0.000 HD
ENDBRANCH 47 50
ENDBRANCH 34 47
ENDBRANCH 33 37
ENDBRANCH 17 33
ENDBRANCH 16 19
ENDBRANCH 1 16
TORSDOF 10
ENDMDL
MODEL 10
REMARK VINA RESULT:      -6.6      2.457      3.666
ROOT
ATOM      1  C1  GCU B   1      19.548  24.784  10.6940  0.00  0.00     0.000 C
ATOM      2  C2  GCU B   1      20.050  25.433  11.9740  0.00  0.00     0.000 C
ATOM      3  C3  GCU B   1      19.836  26.938  11.9260  0.00  0.00     0.000 C
ATOM      4  C4  GCU B   1      20.412  27.511  10.6410  0.00  0.00     0.000 C
ATOM      5  C5  GCU B   1      19.893  26.750   9.4190  0.00  0.00     0.000 C
ATOM      6  O5  GCU B   1      20.215  25.360   9.5590  0.00  0.00     0.000 O
ATOM      7   O  GCU B   1      19.334  24.856  13.0610  0.00  0.00     0.000 O
ATOM      9  HD  GCU B   1      19.681  24.504  13.7720  0.00  0.00     0.000 HD
ATOM      9   O  GCU B   1      20.447  27.570  13.0540  0.00  0.00     0.000 O
ATOM     11  HD  GCU B   1      20.795  27.218  13.7650  0.00  0.00     0.000 HD
ATOM     11   O  GCU B   1      20.046  28.888  10.5440  0.00  0.00     0.000 O
ATOM     13  HD  GCU B   1      20.394  28.536  11.2550  0.00  0.00     0.000 HD
ENDROOT
BRANCH 5 13
ATOM     13   C  GCU B   1      20.469  27.348   8.1580  0.00  0.00     0.000 C
ATOM     14   O  GCU B   1      21.537  26.909   7.6820  0.00  0.00     0.000 OA
ATOM     15   O  GCU B   1      19.826  28.264   7.6110  0.00  0.00     0.000 OA
ENDBRANCH 5 13
BRANCH 1 16
ATOM     16  O3  NAG B   2      19.954  23.634  10.1510  0.00  0.00     0.000 O
BRANCH 16 19
ATOM     17  C1  NAG B   2      18.553  20.165   9.6730  0.00  0.00     0.000 C
ATOM     18  C2  NAG B   2      19.102  21.365  10.4340  0.00  0.00     0.000 C
ATOM     19  C3  NAG B   2      19.270  22.557   9.4930  0.00  0.00     0.000 C
ATOM     20  C4  NAG B   2      20.087  22.155   8.2650  0.00  0.00     0.000 C
ATOM     21  C5  NAG B   2      19.443  20.954   7.5880  0.00  0.00     0.000 C
ATOM     22  O5  NAG B   2      19.372  19.870   8.5310  0.00  0.00     0.000 O
ATOM     23   O  NAG B   2      20.152  23.278   7.3790  0.00  0.00     0.000 O
ATOM     25  HD  NAG B   2      20.888  23.036   7.7640  0.00  0.00     0.000 HD
ATOM     25   C  NAG B   2      20.199  20.505   6.3390  0.00  0.00     0.000 C
ATOM     26   O  NAG B   2      21.431  19.848   6.6730  0.00  0.00     0.000 O
ATOM     28  HD  NAG B   2      22.168  19.606   7.0590  0.00  0.00     0.000 HD
BRANCH 18 30
ATOM     28   N  NAG B   2      18.215  21.176  11.5660  0.00  0.00     0.000 N
ATOM     30  HD  NAG B   2      18.903  21.568  11.9170  0.00  0.00     0.000 HD
ATOM     30   C  NAG B   2      18.552  21.453  12.8320  0.00  0.00     0.000 C
ATOM     31   C  NAG B   2      17.538  21.160  13.9020  0.00  0.00     0.000 C
ATOM     32   O  NAG B   2      19.635  21.920  13.1190  0.00  0.00     0.000 OA
ENDBRANCH 18 30
BRANCH 17 33
ATOM     33  O4  GCU B   3      18.452  19.068  10.6040  0.00  0.00     0.000 O
BRANCH 33 37
ATOM     34  C1  GCU B   3      15.864  15.807  10.6340  0.00  0.00     0.000 C
ATOM     35  C2  GCU B   3      17.227  15.626   9.9660  0.00  0.00     0.000 C
ATOM     36  C3  GCU B   3      18.163  16.727  10.4150  0.00  0.00     0.000 C
ATOM     37  C4  GCU B   3      17.529  18.082  10.1370  0.00  0.00     0.000 C
ATOM     38  C5  GCU B   3      16.176  18.173  10.8460  0.00  0.00     0.000 C
ATOM     39  O5  GCU B   3      15.341  17.112  10.3710  0.00  0.00     0.000 O
ATOM     40   O  GCU B   3      17.755  14.348  10.3300  0.00  0.00     0.000 O
ATOM     42  HD  GCU B   3      18.468  13.965  10.6380  0.00  0.00     0.000 HD
ATOM     42   O  GCU B   3      19.435  16.629   9.7490  0.00  0.00     0.000 O
ATOM     44  HD  GCU B   3      20.148  16.246  10.0570  0.00  0.00     0.000 HD
BRANCH 38 44
ATOM     44   C  GCU B   3      15.475  19.484  10.5950  0.00  0.00     0.000 C
ATOM     45   O  GCU B   3      15.183  20.197  11.5670  0.00  0.00     0.000 OA
ATOM     46   O  GCU B   3      15.205  19.826   9.4280  0.00  0.00     0.000 OA
ENDBRANCH 38 44
BRANCH 34 47
ATOM     47  O3  NAG B   4      15.001  14.968  10.0800  0.00  0.00     0.000 O
BRANCH 47 50
ATOM     48  C1  NAG B   4      12.325  14.026  12.4680  0.00  0.00     0.000 C
ATOM     49  C2  NAG B   4      13.236  14.941  11.6580  0.00  0.00     0.000 C
ATOM     50  C3  NAG B   4      13.867  14.205  10.4860  0.00  0.00     0.000 C
ATOM     51  C4  NAG B   4      14.308  12.775  10.8210  0.00  0.00     0.000 C
ATOM     52  C5  NAG B   4      13.134  11.930  11.2840  0.00  0.00     0.000 C
ATOM     53  O5  NAG B   4      12.233  12.614  12.1840  0.00  0.00     0.000 O
BRANCH 49 56
ATOM     54   N  NAG B   4      12.240  15.660  10.8450  0.00  0.00     0.000 N
ATOM     56  HD  NAG B   4      11.845  15.350  10.1380  0.00  0.00     0.000 HD
ATOM     56   C  NAG B   4      10.813  17.469  10.0810  0.00  0.00     0.000 C
ATOM     57   O  NAG B   4      12.485  17.750  11.7020  0.00  0.00     0.000 OA
ATOM     58   C  NAG B   4      11.930  16.968  10.9450  0.00  0.00     0.000 C
ENDBRANCH 49 56
ATOM     59   O  NAG B   4      12.640   9.640  12.0640  0.00  0.00     0.000 O
ATOM     61  HD  NAG B   4      12.842  10.461  12.2550  0.00  0.00     0.000 HD
ATOM     61   O  NAG B   4      12.640   9.640  12.0640  0.00  0.00     0.000 O
ATOM     63  HD  NAG B   4      12.842  10.461  12.2550  0.00  0.00     0.000 HD
ENDBRANCH 47 50
ENDBRANCH 34 47
ENDBRANCH 33 37
ENDBRANCH 17 33
ENDBRANCH 16 19
ENDBRANCH 1 16
TORSDOF 10
ENDMDL
MODEL 11
REMARK VINA RESULT:      -6.6     23.732     26.291
ROOT
ATOM      1  C1  GCU B   1       3.034  30.834  28.7730  0.00  0.00     0.000 C
ATOM      2  C2  GCU B   1       3.149  32.222  28.1610  0.00  0.00     0.000 C
ATOM      3  C3  GCU B   1       1.966  32.499  27.2460  0.00  0.00     0.000 C
ATOM      4  C4  GCU B   1       1.793  31.363  26.2500  0.00  0.00     0.000 C
ATOM      5  C5  GCU B   1       1.750  30.010  26.9620  0.00  0.00     0.000 C
ATOM      6  O5  GCU B   1       2.947  29.846  27.7340  0.00  0.00     0.000 O
ATOM      7   O  GCU B   1       3.194  33.163  29.2280  0.00  0.00     0.000 O
ATOM      9  HD  GCU B   1       3.791  33.780  29.3400  0.00  0.00     0.000 HD
ATOM      9   O  GCU B   1       2.148  33.733  26.5470  0.00  0.00     0.000 O
ATOM     11  HD  GCU B   1       2.746  34.350  26.6590  0.00  0.00     0.000 HD
ATOM     11   O  GCU B   1       0.581  31.566  25.5240  0.00  0.00     0.000 O
ATOM     13  HD  GCU B   1       1.178  32.183  25.6360  0.00  0.00     0.000 HD
ENDROOT
BRANCH 5 13
ATOM     13   C  GCU B   1       1.565  28.903  25.9510  0.00  0.00     0.000 C
ATOM     14   O  GCU B   1       1.133  27.788  26.3080  0.00  0.00     0.000 OA
ATOM     15   O  GCU B   1       1.832  29.162  24.7620  0.00  0.00     0.000 OA
ENDBRANCH 5 13
BRANCH 1 16
ATOM     16  O3  NAG B   2       4.023  30.056  29.2160  0.00  0.00     0.000 O
BRANCH 16 19
ATOM     17  C1  NAG B   2       4.226  28.046  32.4020  0.00  0.00     0.000 C
ATOM     18  C2  NAG B   2       3.990  29.270  31.5260  0.00  0.00     0.000 C
ATOM     19  C3  NAG B   2       4.063  28.887  30.0490  0.00  0.00     0.000 C
ATOM     20  C4  NAG B   2       5.363  28.138  29.7570  0.00  0.00     0.000 C
ATOM     21  C5  NAG B   2       5.487  26.939  30.6850  0.00  0.00     0.000 C
ATOM     22  O5  NAG B   2       5.459  27.400  32.0480  0.00  0.00     0.000 O
ATOM     23   O  NAG B   2       5.351  27.732  28.3840  0.00  0.00     0.000 O
ATOM     25  HD  NAG B   2       5.925  28.340  28.6110  0.00  0.00     0.000 HD
ATOM     25   C  NAG B   2       6.760  26.131  30.4390  0.00  0.00     0.000 C
ATOM     26   O  NAG B   2       7.925  26.817  30.9210  0.00  0.00     0.000 O
ATOM     28  HD  NAG B   2       8.499  27.425  31.1490  0.00  0.00     0.000 HD
BRANCH 18 30
ATOM     28   N  NAG B   2       2.849  29.745  32.2850  0.00  0.00     0.000 N
ATOM     30  HD  NAG B   2       3.205  30.476  31.9860  0.00  0.00     0.000 HD
ATOM     30   C  NAG B   2       2.593  31.039  32.5170  0.00  0.00     0.000 C
ATOM     31   C  NAG B   2       1.395  31.372  33.3610  0.00  0.00     0.000 C
ATOM     32   O  NAG B   2       3.298  31.921  32.0700  0.00  0.00     0.000 OA
ENDBRANCH 18 30
BRANCH 17 33
ATOM     33  O4  GCU B   3       4.180  28.479  33.7760  0.00  0.00     0.000 O
BRANCH 33 37
ATOM     34  C1  GCU B   3       3.760  26.297  37.2970  0.00  0.00     0.000 C
ATOM     35  C2  GCU B   3       5.170  26.466  36.7310  0.00  0.00     0.000 C
ATOM     36  C3  GCU B   3       5.183  27.605  35.7340  0.00  0.00     0.000 C
ATOM     37  C4  GCU B   3       4.128  27.362  34.6650  0.00  0.00     0.000 C
ATOM     38  C5  GCU B   3       2.755  27.208  35.3220  0.00  0.00     0.000 C
ATOM     39  O5  GCU B   3       2.810  26.114  36.2430  0.00  0.00     0.000 O
ATOM     40   O  GCU B   3       6.071  26.740  37.8060  0.00  0.00     0.000 O
ATOM     42  HD  GCU B   3       6.697  27.285  38.0530  0.00  0.00     0.000 HD
ATOM     42   O  GCU B   3       6.480  27.747  35.1260  0.00  0.00     0.000 O
ATOM     44  HD  GCU B   3       7.106  28.292  35.3730  0.00  0.00     0.000 HD
BRANCH 38 44
ATOM     44   C  GCU B   3       1.658  26.938  34.3230  0.00  0.00     0.000 C
ATOM     45   O  GCU B   3       1.023  27.899  33.8640  0.00  0.00     0.000 OA
ATOM     46   O  GCU B   3       1.413  25.767  33.9770  0.00  0.00     0.000 OA
ENDBRANCH 38 44
BRANCH 34 47
ATOM     47  O3  NAG B   4       3.714  25.177  38.0040  0.00  0.00     0.000 O
BRANCH 47 50
ATOM     48  C1  NAG B   4       3.810  21.470  37.9350  0.00  0.00     0.000 C
ATOM     49  C2  NAG B   4       3.393  22.880  37.5300  0.00  0.00     0.000 C
ATOM     50  C3  NAG B   4       4.386  23.919  38.0250  0.00  0.00     0.000 C
ATOM     51  C4  NAG B   4       4.911  23.646  39.4400  0.00  0.00     0.000 C
ATOM     52  C5  NAG B   4       5.615  22.301  39.5160  0.00  0.00     0.000 C
ATOM     53  O5  NAG B   4       4.940  21.241  38.8020  0.00  0.00     0.000 O
BRANCH 49 56
ATOM     54   N  NAG B   4       3.841  22.986  36.1300  0.00  0.00     0.000 N
ATOM     56  HD  NAG B   4       4.606  23.295  35.8660  0.00  0.00     0.000 HD
ATOM     56   C  NAG B   4       3.760  22.870  33.7070  0.00  0.00     0.000 C
ATOM     57   O  NAG B   4       1.871  22.588  35.0680  0.00  0.00     0.000 OA
ATOM     58   C  NAG B   4       3.073  22.810  35.0370  0.00  0.00     0.000 C
ENDBRANCH 49 56
ATOM     59   O  NAG B   4       6.769  20.858  41.1540  0.00  0.00     0.000 O
ATOM     61  HD  NAG B   4       6.037  21.079  40.7460  0.00  0.00     0.000 HD
ATOM     61   O  NAG B   4       6.769  20.858  41.1540  0.00  0.00     0.000 O
ATOM     63  HD  NAG B   4       6.037  21.079  40.7460  0.00  0.00     0.000 HD
ENDBRANCH 47 50
ENDBRANCH 34 47
ENDBRANCH 33 37
ENDBRANCH 17 33
ENDBRANCH 16 19
ENDBRANCH 1 16
TORSDOF 10
ENDMDL
MODEL 12
REMARK VINA RESULT:      -6.6      1.964      2.832
ROOT
ATOM      1  C1  GCU B   1      19.801  25.699  10.9530  0.00  0.00     0.000 C
ATOM      2  C2  GCU B   1      20.512  26.554  11.9910  0.00  0.00     0.000 C
ATOM      3  C3  GCU B   1      20.261  28.031  11.7250  0.00  0.00     0.000 C
ATOM      4  C4  GCU B   1      20.585  28.366  10.2770  0.00  0.00     0.000 C
ATOM      5  C5  GCU B   1      19.870  27.411   9.3190  0.00  0.00     0.000 C
ATOM      6  O5  GCU B   1      20.241  26.063   9.6350  0.00  0.00     0.000 O
ATOM      7   O  GCU B   1      20.016  26.181  13.2730  0.00  0.00     0.000 O
ATOM      9  HD  GCU B   1      20.492  25.954  13.9590  0.00  0.00     0.000 HD
ATOM      9   O  GCU B   1      21.053  28.841  12.5970  0.00  0.00     0.000 O
ATOM     11  HD  GCU B   1      21.530  28.614  13.2830  0.00  0.00     0.000 HD
ATOM     11   O  GCU B   1      20.179  29.709  10.0120  0.00  0.00     0.000 O
ATOM     13  HD  GCU B   1      20.656  29.482  10.6980  0.00  0.00     0.000 HD
ENDROOT
BRANCH 5 13
ATOM     13   C  GCU B   1      20.198  27.776   7.8910  0.00  0.00     0.000 C
ATOM     14   O  GCU B   1      21.179  28.504   7.6340  0.00  0.00     0.000 OA
ATOM     15   O  GCU B   1      19.473  27.300   6.9960  0.00  0.00     0.000 OA
ENDBRANCH 5 13
BRANCH 1 16
ATOM     16  O3  NAG B   2      20.128  24.468  10.5520  0.00  0.00     0.000 O
BRANCH 16 19
ATOM     17  C1  NAG B   2      18.674  21.009  10.9380  0.00  0.00     0.000 C
ATOM     18  C2  NAG B   2      19.325  22.315  11.3740  0.00  0.00     0.000 C
ATOM     19  C3  NAG B   2      19.358  23.305  10.2110  0.00  0.00     0.000 C
ATOM     20  C4  NAG B   2      19.994  22.659   8.9800  0.00  0.00     0.000 C
ATOM     21  C5  NAG B   2      19.262  21.369   8.6380  0.00  0.00     0.000 C
ATOM     22  O5  NAG B   2      19.325  20.483   9.7700  0.00  0.00     0.000 O
ATOM     23   O  NAG B   2      19.933  23.593   7.8970  0.00  0.00     0.000 O
ATOM     25  HD  NAG B   2      20.717  23.409   8.2160  0.00  0.00     0.000 HD
ATOM     25   C  NAG B   2      19.835  20.674   7.4050  0.00  0.00     0.000 C
ATOM     26   O  NAG B   2      21.102  20.059   7.6830  0.00  0.00     0.000 O
ATOM     28  HD  NAG B   2      21.886  19.875   8.0020  0.00  0.00     0.000 HD
BRANCH 18 30
ATOM     28   N  NAG B   2      18.592  22.404  12.6230  0.00  0.00     0.000 N
ATOM     30  HD  NAG B   2      19.345  22.789  12.8080  0.00  0.00     0.000 HD
ATOM     30   C  NAG B   2      19.117  22.865  13.7650  0.00  0.00     0.000 C
ATOM     31   C  NAG B   2      18.244  22.852  14.9880  0.00  0.00     0.000 C
ATOM     32   O  NAG B   2      20.257  23.279  13.8240  0.00  0.00     0.000 OA
ENDBRANCH 18 30
BRANCH 17 33
ATOM     33  O4  GCU B   3      18.706  20.109  12.0640  0.00  0.00     0.000 O
BRANCH 33 37
ATOM     34  C1  GCU B   3      16.587  16.600  12.7930  0.00  0.00     0.000 C
ATOM     35  C2  GCU B   3      17.891  16.491  12.0020  0.00  0.00     0.000 C
ATOM     36  C3  GCU B   3      18.713  17.746  12.2020  0.00  0.00     0.000 C
ATOM     37  C4  GCU B   3      17.881  18.966  11.8310  0.00  0.00     0.000 C
ATOM     38  C5  GCU B   3      16.603  18.992  12.6720  0.00  0.00     0.000 C
ATOM     39  O5  GCU B   3      15.873  17.785  12.4300  0.00  0.00     0.000 O
ATOM     40   O  GCU B   3      18.616  15.347  12.4600  0.00  0.00     0.000 O
ATOM     42  HD  GCU B   3      19.400  15.097  12.7310  0.00  0.00     0.000 HD
ATOM     42   O  GCU B   3      19.916  17.709  11.4140  0.00  0.00     0.000 O
ATOM     44  HD  GCU B   3      20.699  17.459  11.6850  0.00  0.00     0.000 HD
BRANCH 38 44
ATOM     44   C  GCU B   3      15.713  20.164  12.3410  0.00  0.00     0.000 C
ATOM     45   O  GCU B   3      15.778  21.178  13.0520  0.00  0.00     0.000 OA
ATOM     46   O  GCU B   3      14.938  20.095  11.3670  0.00  0.00     0.000 OA
ENDBRANCH 38 44
BRANCH 34 47
ATOM     47  O3  NAG B   4      15.793  15.597  12.4480  0.00  0.00     0.000 O
BRANCH 47 50
ATOM     48  C1  NAG B   4      13.027  13.246  13.2110  0.00  0.00     0.000 C
ATOM     49  C2  NAG B   4      13.918  14.153  12.3690  0.00  0.00     0.000 C
ATOM     50  C3  NAG B   4      15.243  14.432  13.0610  0.00  0.00     0.000 C
ATOM     51  C4  NAG B   4      15.114  14.664  14.5710  0.00  0.00     0.000 C
ATOM     52  C5  NAG B   4      14.507  13.455  15.2640  0.00  0.00     0.000 C
ATOM     53  O5  NAG B   4      13.402  12.858  14.5490  0.00  0.00     0.000 O
BRANCH 49 56
ATOM     54   N  NAG B   4      14.239  13.071  11.4210  0.00  0.00     0.000 N
ATOM     56  HD  NAG B   4      14.340  12.236  11.6240  0.00  0.00     0.000 HD
ATOM     56   C  NAG B   4      14.801  11.983   9.3260  0.00  0.00     0.000 C
ATOM     57   O  NAG B   4      14.800  14.312   9.6020  0.00  0.00     0.000 OA
ATOM     58   C  NAG B   4      14.618  13.229  10.1380  0.00  0.00     0.000 C
ENDBRANCH 49 56
ATOM     59   O  NAG B   4      13.835  12.704  17.5180  0.00  0.00     0.000 O
ATOM     61  HD  NAG B   4      13.621  13.078  16.7660  0.00  0.00     0.000 HD
ATOM     61   O  NAG B   4      13.835  12.704  17.5180  0.00  0.00     0.000 O
ATOM     63  HD  NAG B   4      13.621  13.078  16.7660  0.00  0.00     0.000 HD
ENDBRANCH 47 50
ENDBRANCH 34 47
ENDBRANCH 33 37
ENDBRANCH 17 33
ENDBRANCH 16 19
ENDBRANCH 1 16
TORSDOF 10
ENDMDL
MODEL 13
REMARK VINA RESULT:      -6.5     22.786     27.387
ROOT
ATOM      1  C1  GCU B   1       2.320  32.552  25.3940  0.00  0.00     0.000 C
ATOM      2  C2  GCU B   1       2.198  31.169  24.7750  0.00  0.00     0.000 C
ATOM      3  C3  GCU B   1       1.506  30.215  25.7350  0.00  0.00     0.000 C
ATOM      4  C4  GCU B   1       2.181  30.257  27.0970  0.00  0.00     0.000 C
ATOM      5  C5  GCU B   1       2.309  31.696  27.6020  0.00  0.00     0.000 C
ATOM      6  O5  GCU B   1       3.035  32.470  26.6380  0.00  0.00     0.000 O
ATOM      7   O  GCU B   1       1.453  31.299  23.5680  0.00  0.00     0.000 O
ATOM      9  HD  GCU B   1       1.691  31.009  22.7870  0.00  0.00     0.000 HD
ATOM      9   O  GCU B   1       1.531  28.879  25.2250  0.00  0.00     0.000 O
ATOM     11  HD  GCU B   1       1.768  28.589  24.4440  0.00  0.00     0.000 HD
ATOM     11   O  GCU B   1       1.410  29.488  28.0200  0.00  0.00     0.000 O
ATOM     13  HD  GCU B   1       1.647  29.198  27.2390  0.00  0.00     0.000 HD
ENDROOT
BRANCH 5 13
ATOM     13   C  GCU B   1       2.970  31.706  28.9600  0.00  0.00     0.000 C
ATOM     14   O  GCU B   1       4.088  32.239  29.1140  0.00  0.00     0.000 OA
ATOM     15   O  GCU B   1       2.343  31.193  29.9070  0.00  0.00     0.000 OA
ENDBRANCH 5 13
BRANCH 1 16
ATOM     16  O3  NAG B   2       3.227  33.491  25.1160  0.00  0.00     0.000 O
BRANCH 16 19
ATOM     17  C1  NAG B   2       3.302  37.079  23.9520  0.00  0.00     0.000 C
ATOM     18  C2  NAG B   2       3.104  35.572  23.8470  0.00  0.00     0.000 C
ATOM     19  C3  NAG B   2       3.230  34.923  25.2240  0.00  0.00     0.000 C
ATOM     20  C4  NAG B   2       4.537  35.346  25.8940  0.00  0.00     0.000 C
ATOM     21  C5  NAG B   2       4.622  36.865  25.9460  0.00  0.00     0.000 C
ATOM     22  O5  NAG B   2       4.544  37.382  24.6060  0.00  0.00     0.000 O
ATOM     23   O  NAG B   2       4.575  34.779  27.2080  0.00  0.00     0.000 O
ATOM     25  HD  NAG B   2       5.143  34.474  26.6300  0.00  0.00     0.000 HD
ATOM     25   C  NAG B   2       5.899  37.362  26.6190  0.00  0.00     0.000 C
ATOM     26   O  NAG B   2       7.049  37.175  25.7800  0.00  0.00     0.000 O
ATOM     28  HD  NAG B   2       7.616  36.870  25.2010  0.00  0.00     0.000 HD
BRANCH 18 30
ATOM     28   N  NAG B   2       1.821  35.331  23.2150  0.00  0.00     0.000 N
ATOM     30  HD  NAG B   2       2.384  34.981  22.6580  0.00  0.00     0.000 HD
ATOM     30   C  NAG B   2       1.679  34.810  21.9890  0.00  0.00     0.000 C
ATOM     31   C  NAG B   2       0.283  34.662  21.4530  0.00  0.00     0.000 C
ATOM     32   O  NAG B   2       2.636  34.468  21.3240  0.00  0.00     0.000 OA
ENDBRANCH 18 30
BRANCH 17 33
ATOM     33  O4  GCU B   3       3.207  37.625  22.6210  0.00  0.00     0.000 O
BRANCH 33 37
ATOM     34  C1  GCU B   3       2.483  41.514  21.3240  0.00  0.00     0.000 C
ATOM     35  C2  GCU B   3       3.925  41.136  21.6650  0.00  0.00     0.000 C
ATOM     36  C3  GCU B   3       4.061  39.629  21.6950  0.00  0.00     0.000 C
ATOM     37  C4  GCU B   3       3.038  39.043  22.6590  0.00  0.00     0.000 C
ATOM     38  C5  GCU B   3       1.631  39.470  22.2380  0.00  0.00     0.000 C
ATOM     39  O5  GCU B   3       1.570  40.900  22.2380  0.00  0.00     0.000 O
ATOM     40   O  GCU B   3       4.795  41.691  20.6760  0.00  0.00     0.000 O
ATOM     42  HD  GCU B   3       5.446  41.484  20.1430  0.00  0.00     0.000 HD
ATOM     42   O  GCU B   3       5.389  39.236  22.0850  0.00  0.00     0.000 O
ATOM     44  HD  GCU B   3       6.040  39.030  21.5520  0.00  0.00     0.000 HD
BRANCH 38 44
ATOM     44   C  GCU B   3       0.562  38.946  23.1650  0.00  0.00     0.000 C
ATOM     45   O  GCU B   3      -0.010  37.885  22.8710  0.00  0.00     0.000 OA
ATOM     46   O  GCU B   3       0.278  39.578  24.2000  0.00  0.00     0.000 OA
ENDBRANCH 38 44
BRANCH 34 47
ATOM     47  O3  NAG B   4       2.329  42.818  21.5020  0.00  0.00     0.000 O
BRANCH 47 50
ATOM     48  C1  NAG B   4      -0.052  45.374  20.2570  0.00  0.00     0.000 C
ATOM     49  C2  NAG B   4       0.660  44.481  21.2670  0.00  0.00     0.000 C
ATOM     50  C3  NAG B   4       1.975  43.953  20.7140  0.00  0.00     0.000 C
ATOM     51  C4  NAG B   4       1.905  43.546  19.2380  0.00  0.00     0.000 C
ATOM     52  C5  NAG B   4       1.506  44.721  18.3610  0.00  0.00     0.000 C
ATOM     53  O5  NAG B   4       0.449  45.537  18.9140  0.00  0.00     0.000 O
BRANCH 49 56
ATOM     54   N  NAG B   4       1.147  45.597  22.0960  0.00  0.00     0.000 N
ATOM     56  HD  NAG B   4       1.566  46.297  21.8060  0.00  0.00     0.000 HD
ATOM     56   C  NAG B   4       1.642  46.899  24.0840  0.00  0.00     0.000 C
ATOM     57   O  NAG B   4       0.894  44.677  24.1590  0.00  0.00     0.000 OA
ATOM     58   C  NAG B   4       1.200  45.619  23.4430  0.00  0.00     0.000 C
ENDBRANCH 49 56
ATOM     59   O  NAG B   4       1.072  45.252  15.9890  0.00  0.00     0.000 O
ATOM     61  HD  NAG B   4       0.766  45.008  16.7620  0.00  0.00     0.000 HD
ATOM     61   O  NAG B   4       1.072  45.252  15.9890  0.00  0.00     0.000 O
ATOM     63  HD  NAG B   4       0.766  45.008  16.7620  0.00  0.00     0.000 HD
ENDBRANCH 47 50
ENDBRANCH 34 47
ENDBRANCH 33 37
ENDBRANCH 17 33
ENDBRANCH 16 19
ENDBRANCH 1 16
TORSDOF 10
ENDMDL
MODEL 14
REMARK VINA RESULT:      -6.5     12.574     18.532
ROOT
ATOM      1  C1  GCU B   1      15.145  43.357  15.6260  0.00  0.00     0.000 C
ATOM      2  C2  GCU B   1      14.192  44.534  15.7630  0.00  0.00     0.000 C
ATOM      3  C3  GCU B   1      13.632  44.926  14.4050  0.00  0.00     0.000 C
ATOM      4  C4  GCU B   1      14.763  45.121  13.4070  0.00  0.00     0.000 C
ATOM      5  C5  GCU B   1      15.696  43.909  13.3900  0.00  0.00     0.000 C
ATOM      6  O5  GCU B   1      16.203  43.688  14.7130  0.00  0.00     0.000 O
ATOM      7   O  GCU B   1      13.145  44.142  16.6470  0.00  0.00     0.000 O
ATOM      9  HD  GCU B   1      12.882  44.574  17.3490  0.00  0.00     0.000 HD
ATOM      9   O  GCU B   1      12.862  46.127  14.5050  0.00  0.00     0.000 O
ATOM     11  HD  GCU B   1      12.599  46.559  15.2070  0.00  0.00     0.000 HD
ATOM     11   O  GCU B   1      14.203  45.318  12.1080  0.00  0.00     0.000 O
ATOM     13  HD  GCU B   1      13.940  45.749  12.8110  0.00  0.00     0.000 HD
ENDROOT
BRANCH 5 13
ATOM     13   C  GCU B   1      16.800  44.124  12.3820  0.00  0.00     0.000 C
ATOM     14   O  GCU B   1      16.527  44.315  11.1790  0.00  0.00     0.000 OA
ATOM     15   O  GCU B   1      17.971  44.131  12.8060  0.00  0.00     0.000 OA
ENDBRANCH 5 13
BRANCH 1 16
ATOM     16  O3  NAG B   2      16.156  43.030  16.4340  0.00  0.00     0.000 O
BRANCH 16 19
ATOM     17  C1  NAG B   2      17.156  39.926  18.3290  0.00  0.00     0.000 C
ATOM     18  C2  NAG B   2      16.292  41.121  17.9470  0.00  0.00     0.000 C
ATOM     19  C3  NAG B   2      16.851  41.802  16.6990  0.00  0.00     0.000 C
ATOM     20  C4  NAG B   2      18.333  42.125  16.8890  0.00  0.00     0.000 C
ATOM     21  C5  NAG B   2      19.093  40.861  17.2620  0.00  0.00     0.000 C
ATOM     22  O5  NAG B   2      18.531  40.319  18.4700  0.00  0.00     0.000 O
ATOM     23   O  NAG B   2      18.831  42.689  15.6700  0.00  0.00     0.000 O
ATOM     25  HD  NAG B   2      18.781  43.215  16.3570  0.00  0.00     0.000 HD
ATOM     25   C  NAG B   2      20.589  41.105  17.4520  0.00  0.00     0.000 C
ATOM     26   O  NAG B   2      20.860  41.811  18.6720  0.00  0.00     0.000 O
ATOM     28  HD  NAG B   2      20.810  42.337  19.3590  0.00  0.00     0.000 HD
BRANCH 18 30
ATOM     28   N  NAG B   2      15.227  40.876  18.9010  0.00  0.00     0.000 N
ATOM     30  HD  NAG B   2      14.801  40.995  18.1560  0.00  0.00     0.000 HD
ATOM     30   C  NAG B   2      13.924  40.979  18.6070  0.00  0.00     0.000 C
ATOM     31   C  NAG B   2      12.939  40.739  19.7160  0.00  0.00     0.000 C
ATOM     32   O  NAG B   2      13.540  41.259  17.4900  0.00  0.00     0.000 OA
ENDBRANCH 18 30
BRANCH 17 33
ATOM     33  O4  GCU B   3      16.600  39.351  19.5280  0.00  0.00     0.000 O
BRANCH 33 37
ATOM     34  C1  GCU B   3      16.386  35.369  20.7230  0.00  0.00     0.000 C
ATOM     35  C2  GCU B   3      17.544  36.210  21.2620  0.00  0.00     0.000 C
ATOM     36  C3  GCU B   3      17.229  37.680  21.0820  0.00  0.00     0.000 C
ATOM     37  C4  GCU B   3      16.907  37.959  19.6210  0.00  0.00     0.000 C
ATOM     38  C5  GCU B   3      15.740  37.077  19.1730  0.00  0.00     0.000 C
ATOM     39  O5  GCU B   3      16.106  35.706  19.3620  0.00  0.00     0.000 O
ATOM     40   O  GCU B   3      17.729  35.910  22.6470  0.00  0.00     0.000 O
ATOM     42  HD  GCU B   3      17.817  36.285  23.4230  0.00  0.00     0.000 HD
ATOM     42   O  GCU B   3      18.329  38.502  21.5120  0.00  0.00     0.000 O
ATOM     44  HD  GCU B   3      18.417  38.877  22.2880  0.00  0.00     0.000 HD
BRANCH 38 44
ATOM     44   C  GCU B   3      15.379  37.280  17.7230  0.00  0.00     0.000 C
ATOM     45   O  GCU B   3      16.052  36.700  16.8570  0.00  0.00     0.000 OA
ATOM     46   O  GCU B   3      14.421  38.016  17.4220  0.00  0.00     0.000 OA
ENDBRANCH 38 44
BRANCH 34 47
ATOM     47  O3  NAG B   4      16.759  34.097  20.6970  0.00  0.00     0.000 O
BRANCH 47 50
ATOM     48  C1  NAG B   4      17.451  30.602  19.6680  0.00  0.00     0.000 C
ATOM     49  C2  NAG B   4      16.985  31.744  20.5630  0.00  0.00     0.000 C
ATOM     50  C3  NAG B   4      16.745  33.016  19.7660  0.00  0.00     0.000 C
ATOM     51  C4  NAG B   4      17.794  33.269  18.6770  0.00  0.00     0.000 C
ATOM     52  C5  NAG B   4      17.833  32.127  17.6740  0.00  0.00     0.000 C
ATOM     53  O5  NAG B   4      17.744  30.815  18.2710  0.00  0.00     0.000 O
BRANCH 49 56
ATOM     54   N  NAG B   4      15.649  31.145  20.7250  0.00  0.00     0.000 N
ATOM     56  HD  NAG B   4      15.238  30.659  20.1370  0.00  0.00     0.000 HD
ATOM     56   C  NAG B   4      13.507  30.614  21.7370  0.00  0.00     0.000 C
ATOM     57   O  NAG B   4      14.961  32.244  22.5920  0.00  0.00     0.000 OA
ATOM     58   C  NAG B   4      14.774  31.413  21.7150  0.00  0.00     0.000 C
ENDBRANCH 49 56
ATOM     59   O  NAG B   4      19.044  31.439  15.6350  0.00  0.00     0.000 O
ATOM     61  HD  NAG B   4      18.972  31.416  16.4980  0.00  0.00     0.000 HD
ATOM     61   O  NAG B   4      19.044  31.439  15.6350  0.00  0.00     0.000 O
ATOM     63  HD  NAG B   4      18.972  31.416  16.4980  0.00  0.00     0.000 HD
ENDBRANCH 47 50
ENDBRANCH 34 47
ENDBRANCH 33 37
ENDBRANCH 17 33
ENDBRANCH 16 19
ENDBRANCH 1 16
TORSDOF 10
ENDMDL
MODEL 15
REMARK VINA RESULT:      -6.5     10.967     14.099
ROOT
ATOM      1  C1  GCU B   1      16.782  34.431  19.4960  0.00  0.00     0.000 C
ATOM      2  C2  GCU B   1      16.427  34.864  18.0820  0.00  0.00     0.000 C
ATOM      3  C3  GCU B   1      16.739  36.339  17.8840  0.00  0.00     0.000 C
ATOM      4  C4  GCU B   1      16.105  37.165  18.9930  0.00  0.00     0.000 C
ATOM      5  C5  GCU B   1      16.474  36.611  20.3700  0.00  0.00     0.000 C
ATOM      6  O5  GCU B   1      16.069  35.237  20.4480  0.00  0.00     0.000 O
ATOM      7   O  GCU B   1      17.184  34.063  17.1810  0.00  0.00     0.000 O
ATOM      9  HD  GCU B   1      16.870  33.607  16.5150  0.00  0.00     0.000 HD
ATOM      9   O  GCU B   1      16.262  36.789  16.6130  0.00  0.00     0.000 O
ATOM     11  HD  GCU B   1      15.947  36.333  15.9470  0.00  0.00     0.000 HD
ATOM     11   O  GCU B   1      16.555  38.515  18.8790  0.00  0.00     0.000 O
ATOM     13  HD  GCU B   1      16.241  38.059  18.2130  0.00  0.00     0.000 HD
ENDROOT
BRANCH 5 13
ATOM     13   C  GCU B   1      15.843  37.456  21.4500  0.00  0.00     0.000 C
ATOM     14   O  GCU B   1      14.742  37.134  21.9420  0.00  0.00     0.000 OA
ATOM     15   O  GCU B   1      16.476  38.456  21.8400  0.00  0.00     0.000 OA
ENDBRANCH 5 13
BRANCH 1 16
ATOM     16  O3  NAG B   2      16.256  33.421  20.1940  0.00  0.00     0.000 O
BRANCH 16 19
ATOM     17  C1  NAG B   2      17.623  30.106  21.3640  0.00  0.00     0.000 C
ATOM     18  C2  NAG B   2      17.222  31.187  20.3680  0.00  0.00     0.000 C
ATOM     19  C3  NAG B   2      16.808  32.459  21.1060  0.00  0.00     0.000 C
ATOM     20  C4  NAG B   2      15.748  32.142  22.1610  0.00  0.00     0.000 C
ATOM     21  C5  NAG B   2      16.261  31.057  23.0970  0.00  0.00     0.000 C
ATOM     22  O5  NAG B   2      16.577  29.886  22.3230  0.00  0.00     0.000 O
ATOM     23   O  NAG B   2      15.450  33.346  22.8770  0.00  0.00     0.000 O
ATOM     25  HD  NAG B   2      14.827  33.025  22.3680  0.00  0.00     0.000 HD
ATOM     25   C  NAG B   2      15.258  30.699  24.1910  0.00  0.00     0.000 C
ATOM     26   O  NAG B   2      14.154  29.942  23.6710  0.00  0.00     0.000 O
ATOM     28  HD  NAG B   2      13.531  29.620  23.1630  0.00  0.00     0.000 HD
BRANCH 18 30
ATOM     28   N  NAG B   2      18.353  30.953  19.4910  0.00  0.00     0.000 N
ATOM     30  HD  NAG B   2      17.740  31.240  18.9510  0.00  0.00     0.000 HD
ATOM     30   C  NAG B   2      18.296  31.054  18.1570  0.00  0.00     0.000 C
ATOM     31   C  NAG B   2      19.543  30.737  17.3810  0.00  0.00     0.000 C
ATOM     32   O  NAG B   2      17.279  31.387  17.5830  0.00  0.00     0.000 OA
ENDBRANCH 18 30
BRANCH 17 33
ATOM     33  O4  GCU B   3      17.966  28.926  20.6110  0.00  0.00     0.000 O
BRANCH 33 37
ATOM     34  C1  GCU B   3      20.180  25.570  21.6930  0.00  0.00     0.000 C
ATOM     35  C2  GCU B   3      18.679  25.555  21.9860  0.00  0.00     0.000 C
ATOM     36  C3  GCU B   3      17.992  26.625  21.1640  0.00  0.00     0.000 C
ATOM     37  C4  GCU B   3      18.646  27.973  21.4300  0.00  0.00     0.000 C
ATOM     38  C5  GCU B   3      20.140  27.893  21.1080  0.00  0.00     0.000 C
ATOM     39  O5  GCU B   3      20.727  26.872  21.9220  0.00  0.00     0.000 O
ATOM     40   O  GCU B   3      18.156  24.267  21.6570  0.00  0.00     0.000 O
ATOM     42  HD  GCU B   3      17.518  23.878  21.2190  0.00  0.00     0.000 HD
ATOM     42   O  GCU B   3      16.587  26.688  21.4690  0.00  0.00     0.000 O
ATOM     44  HD  GCU B   3      15.949  26.300  21.0300  0.00  0.00     0.000 HD
BRANCH 38 44
ATOM     44   C  GCU B   3      20.862  29.190  21.3720  0.00  0.00     0.000 C
ATOM     45   O  GCU B   3      21.114  29.501  22.5460  0.00  0.00     0.000 OA
ATOM     46   O  GCU B   3      21.194  29.918  20.4160  0.00  0.00     0.000 OA
ENDBRANCH 38 44
BRANCH 34 47
ATOM     47  O3  NAG B   4      20.793  24.779  22.5630  0.00  0.00     0.000 O
BRANCH 47 50
ATOM     48  C1  NAG B   4      21.348  24.151  26.1750  0.00  0.00     0.000 C
ATOM     49  C2  NAG B   4      21.199  24.954  24.8880  0.00  0.00     0.000 C
ATOM     50  C3  NAG B   4      20.492  24.152  23.8080  0.00  0.00     0.000 C
ATOM     51  C4  NAG B   4      20.918  22.680  23.7530  0.00  0.00     0.000 C
ATOM     52  C5  NAG B   4      20.639  21.976  25.0710  0.00  0.00     0.000 C
ATOM     53  O5  NAG B   4      20.970  22.759  26.2390  0.00  0.00     0.000 O
BRANCH 49 56
ATOM     54   N  NAG B   4      20.027  25.793  25.1970  0.00  0.00     0.000 N
ATOM     56  HD  NAG B   4      19.199  25.554  25.1150  0.00  0.00     0.000 HD
ATOM     56   C  NAG B   4      18.745  27.749  25.8440  0.00  0.00     0.000 C
ATOM     57   O  NAG B   4      21.051  27.809  25.4250  0.00  0.00     0.000 OA
ATOM     58   C  NAG B   4      20.046  27.115  25.4610  0.00  0.00     0.000 C
ENDBRANCH 49 56
ATOM     59   O  NAG B   4      20.897  19.759  26.1240  0.00  0.00     0.000 O
ATOM     61  HD  NAG B   4      21.215  20.550  25.9760  0.00  0.00     0.000 HD
ATOM     61   O  NAG B   4      20.897  19.759  26.1240  0.00  0.00     0.000 O
ATOM     63  HD  NAG B   4      21.215  20.550  25.9760  0.00  0.00     0.000 HD
ENDBRANCH 47 50
ENDBRANCH 34 47
ENDBRANCH 33 37
ENDBRANCH 17 33
ENDBRANCH 16 19
ENDBRANCH 1 16
TORSDOF 10
ENDMDL
MODEL 16
REMARK VINA RESULT:      -6.5     15.030     20.221
ROOT
ATOM      1  C1  GCU B   1      11.823  29.744  30.6310  0.00  0.00     0.000 C
ATOM      2  C2  GCU B   1      12.467  28.999  31.7900  0.00  0.00     0.000 C
ATOM      3  C3  GCU B   1      11.642  27.776  32.1600  0.00  0.00     0.000 C
ATOM      4  C4  GCU B   1      10.187  28.167  32.3690  0.00  0.00     0.000 C
ATOM      5  C5  GCU B   1       9.654  28.963  31.1760  0.00  0.00     0.000 C
ATOM      6  O5  GCU B   1      10.480  30.119  30.9760  0.00  0.00     0.000 O
ATOM      7   O  GCU B   1      13.778  28.620  31.3850  0.00  0.00     0.000 O
ATOM      9  HD  GCU B   1      14.512  28.777  31.8180  0.00  0.00     0.000 HD
ATOM      9   O  GCU B   1      12.153  27.163  33.3470  0.00  0.00     0.000 O
ATOM     11  HD  GCU B   1      12.887  27.321  33.7790  0.00  0.00     0.000 HD
ATOM     11   O  GCU B   1       9.411  26.982  32.5450  0.00  0.00     0.000 O
ATOM     13  HD  GCU B   1      10.144  27.139  32.9770  0.00  0.00     0.000 HD
ENDROOT
BRANCH 5 13
ATOM     13   C  GCU B   1       8.207  29.325  31.4050  0.00  0.00     0.000 C
ATOM     14   O  GCU B   1       7.304  28.494  31.1740  0.00  0.00     0.000 OA
ATOM     15   O  GCU B   1       7.963  30.462  31.8550  0.00  0.00     0.000 OA
ENDBRANCH 5 13
BRANCH 1 16
ATOM     16  O3  NAG B   2      11.940  31.040  30.3320  0.00  0.00     0.000 O
BRANCH 16 19
ATOM     17  C1  NAG B   2      13.413  32.701  27.2820  0.00  0.00     0.000 C
ATOM     18  C2  NAG B   2      13.360  31.769  28.4860  0.00  0.00     0.000 C
ATOM     19  C3  NAG B   2      11.959  31.769  29.0950  0.00  0.00     0.000 C
ATOM     20  C4  NAG B   2      11.503  33.200  29.3800  0.00  0.00     0.000 C
ATOM     21  C5  NAG B   2      11.595  34.033  28.1090  0.00  0.00     0.000 C
ATOM     22  O5  NAG B   2      12.954  34.015  27.6380  0.00  0.00     0.000 O
ATOM     23   O  NAG B   2      10.160  33.155  29.8750  0.00  0.00     0.000 O
ATOM     25  HD  NAG B   2      10.778  33.399  30.4300  0.00  0.00     0.000 HD
ATOM     25   C  NAG B   2      11.138  35.476  28.3150  0.00  0.00     0.000 C
ATOM     26   O  NAG B   2      12.099  36.235  29.0650  0.00  0.00     0.000 O
ATOM     28  HD  NAG B   2      12.717  36.479  29.6200  0.00  0.00     0.000 HD
BRANCH 18 30
ATOM     28   N  NAG B   2      14.693  31.198  28.5090  0.00  0.00     0.000 N
ATOM     30  HD  NAG B   2      14.187  30.512  28.3600  0.00  0.00     0.000 HD
ATOM     30   C  NAG B   2      14.944  29.885  28.4470  0.00  0.00     0.000 C
ATOM     31   C  NAG B   2      16.379  29.445  28.5270  0.00  0.00     0.000 C
ATOM     32   O  NAG B   2      14.053  29.067  28.3340  0.00  0.00     0.000 OA
ENDBRANCH 18 30
BRANCH 17 33
ATOM     33  O4  GCU B   3      14.763  32.684  26.7770  0.00  0.00     0.000 O
BRANCH 33 37
ATOM     34  C1  GCU B   3      16.180  32.878  22.8670  0.00  0.00     0.000 C
ATOM     35  C2  GCU B   3      16.014  34.194  23.6280  0.00  0.00     0.000 C
ATOM     36  C3  GCU B   3      15.913  33.912  25.1120  0.00  0.00     0.000 C
ATOM     37  C4  GCU B   3      14.788  32.920  25.3680  0.00  0.00     0.000 C
ATOM     38  C5  GCU B   3      15.040  31.639  24.5710  0.00  0.00     0.000 C
ATOM     39  O5  GCU B   3      15.116  31.974  23.1820  0.00  0.00     0.000 O
ATOM     40   O  GCU B   3      17.142  35.029  23.3600  0.00  0.00     0.000 O
ATOM     42  HD  GCU B   3      17.745  35.513  23.7510  0.00  0.00     0.000 HD
ATOM     42   O  GCU B   3      15.683  35.123  25.8550  0.00  0.00     0.000 O
ATOM     44  HD  GCU B   3      16.285  35.607  26.2460  0.00  0.00     0.000 HD
BRANCH 38 44
ATOM     44   C  GCU B   3      13.948  30.614  24.7560  0.00  0.00     0.000 C
ATOM     45   O  GCU B   3      14.255  29.491  25.1840  0.00  0.00     0.000 OA
ATOM     46   O  GCU B   3      12.770  30.910  24.4810  0.00  0.00     0.000 OA
ENDBRANCH 38 44
BRANCH 34 47
ATOM     47  O3  NAG B   4      16.060  33.117  21.5690  0.00  0.00     0.000 O
BRANCH 47 50
ATOM     48  C1  NAG B   4      18.109  30.800  19.5220  0.00  0.00     0.000 C
ATOM     49  C2  NAG B   4      17.281  31.280  20.7100  0.00  0.00     0.000 C
ATOM     50  C3  NAG B   4      16.429  32.485  20.3450  0.00  0.00     0.000 C
ATOM     51  C4  NAG B   4      17.145  33.497  19.4440  0.00  0.00     0.000 C
ATOM     52  C5  NAG B   4      17.579  32.859  18.1340  0.00  0.00     0.000 C
ATOM     53  O5  NAG B   4      18.136  31.534  18.2800  0.00  0.00     0.000 O
BRANCH 49 56
ATOM     54   N  NAG B   4      16.158  30.326  20.6860  0.00  0.00     0.000 N
ATOM     56  HD  NAG B   4      15.454  30.386  20.1850  0.00  0.00     0.000 HD
ATOM     56   C  NAG B   4      14.791  28.416  21.2960  0.00  0.00     0.000 C
ATOM     57   O  NAG B   4      16.646  29.117  22.5480  0.00  0.00     0.000 OA
ATOM     58   C  NAG B   4      15.947  29.328  21.5670  0.00  0.00     0.000 C
ENDBRANCH 49 56
ATOM     59   O  NAG B   4      18.756  33.441  16.0440  0.00  0.00     0.000 O
ATOM     61  HD  NAG B   4      18.789  33.128  16.8510  0.00  0.00     0.000 HD
ATOM     61   O  NAG B   4      18.756  33.441  16.0440  0.00  0.00     0.000 O
ATOM     63  HD  NAG B   4      18.789  33.128  16.8510  0.00  0.00     0.000 HD
ENDBRANCH 47 50
ENDBRANCH 34 47
ENDBRANCH 33 37
ENDBRANCH 17 33
ENDBRANCH 16 19
ENDBRANCH 1 16
TORSDOF 10
ENDMDL
MODEL 17
REMARK VINA RESULT:      -6.5     11.197     17.736
ROOT
ATOM      1  C1  GCU B   1      14.875  41.613  17.6500  0.00  0.00     0.000 C
ATOM      2  C2  GCU B   1      13.775  42.651  17.8090  0.00  0.00     0.000 C
ATOM      3  C3  GCU B   1      13.067  42.882  16.4830  0.00  0.00     0.000 C
ATOM      4  C4  GCU B   1      14.082  43.175  15.3890  0.00  0.00     0.000 C
ATOM      5  C5  GCU B   1      15.176  42.107  15.3540  0.00  0.00     0.000 C
ATOM      6  O5  GCU B   1      15.805  42.036  16.6410  0.00  0.00     0.000 O
ATOM      7   O  GCU B   1      12.863  42.169  18.7900  0.00  0.00     0.000 O
ATOM      9  HD  GCU B   1      12.592  42.599  19.4910  0.00  0.00     0.000 HD
ATOM      9   O  GCU B   1      12.142  43.967  16.5880  0.00  0.00     0.000 O
ATOM     11  HD  GCU B   1      11.871  44.398  17.2880  0.00  0.00     0.000 HD
ATOM     11   O  GCU B   1      13.407  43.216  14.1310  0.00  0.00     0.000 O
ATOM     13  HD  GCU B   1      13.136  43.647  14.8320  0.00  0.00     0.000 HD
ENDROOT
BRANCH 5 13
ATOM     13   C  GCU B   1      16.161  42.415  14.2510  0.00  0.00     0.000 C
ATOM     14   O  GCU B   1      17.120  43.187  14.4590  0.00  0.00     0.000 OA
ATOM     15   O  GCU B   1      15.988  41.851  13.1540  0.00  0.00     0.000 OA
ENDBRANCH 5 13
BRANCH 1 16
ATOM     16  O3  NAG B   2      15.979  41.478  18.3890  0.00  0.00     0.000 O
BRANCH 16 19
ATOM     17  C1  NAG B   2      18.331  38.534  18.5540  0.00  0.00     0.000 C
ATOM     18  C2  NAG B   2      16.995  39.266  18.5540  0.00  0.00     0.000 C
ATOM     19  C3  NAG B   2      17.199  40.742  18.2150  0.00  0.00     0.000 C
ATOM     20  C4  NAG B   2      18.260  41.356  19.1280  0.00  0.00     0.000 C
ATOM     21  C5  NAG B   2      19.546  40.547  19.0410  0.00  0.00     0.000 C
ATOM     22  O5  NAG B   2      19.268  39.189  19.4240  0.00  0.00     0.000 O
ATOM     23   O  NAG B   2      18.472  42.713  18.7230  0.00  0.00     0.000 O
ATOM     25  HD  NAG B   2      18.096  42.585  19.4920  0.00  0.00     0.000 HD
ATOM     25   C  NAG B   2      20.660  41.114  19.9180  0.00  0.00     0.000 C
ATOM     26   O  NAG B   2      20.417  40.865  21.3120  0.00  0.00     0.000 O
ATOM     28  HD  NAG B   2      20.041  40.737  22.0810  0.00  0.00     0.000 HD
BRANCH 18 30
ATOM     28   N  NAG B   2      16.219  38.404  17.6830  0.00  0.00     0.000 N
ATOM     30  HD  NAG B   2      15.685  38.542  18.3510  0.00  0.00     0.000 HD
ATOM     30   C  NAG B   2      15.026  37.892  18.0110  0.00  0.00     0.000 C
ATOM     31   C  NAG B   2      14.364  36.978  17.0190  0.00  0.00     0.000 C
ATOM     32   O  NAG B   2      14.488  38.147  19.0700  0.00  0.00     0.000 OA
ENDBRANCH 18 30
BRANCH 17 33
ATOM     33  O4  GCU B   3      18.077  37.162  18.9150  0.00  0.00     0.000 O
BRANCH 33 37
ATOM     34  C1  GCU B   3      19.967  33.683  17.6280  0.00  0.00     0.000 C
ATOM     35  C2  GCU B   3      20.406  34.276  18.9670  0.00  0.00     0.000 C
ATOM     36  C3  GCU B   3      19.355  35.247  19.4610  0.00  0.00     0.000 C
ATOM     37  C4  GCU B   3      19.088  36.298  18.3930  0.00  0.00     0.000 C
ATOM     38  C5  GCU B   3      18.653  35.614  17.0950  0.00  0.00     0.000 C
ATOM     39  O5  GCU B   3      19.691  34.720  16.6820  0.00  0.00     0.000 O
ATOM     40   O  GCU B   3      20.581  33.214  19.9080  0.00  0.00     0.000 O
ATOM     42  HD  GCU B   3      20.366  32.969  20.7110  0.00  0.00     0.000 HD
ATOM     42   O  GCU B   3      19.769  35.879  20.6850  0.00  0.00     0.000 O
ATOM     44  HD  GCU B   3      19.555  35.634  21.4880  0.00  0.00     0.000 HD
BRANCH 38 44
ATOM     44   C  GCU B   3      18.394  36.595  15.9790  0.00  0.00     0.000 C
ATOM     45   O  GCU B   3      17.247  36.674  15.5130  0.00  0.00     0.000 OA
ATOM     46   O  GCU B   3      19.325  37.304  15.5510  0.00  0.00     0.000 OA
ENDBRANCH 38 44
BRANCH 34 47
ATOM     47  O3  NAG B   4      20.978  33.000  17.1100  0.00  0.00     0.000 O
BRANCH 47 50
ATOM     48  C1  NAG B   4      22.234  32.341  13.6830  0.00  0.00     0.000 C
ATOM     49  C2  NAG B   4      22.240  32.877  15.1110  0.00  0.00     0.000 C
ATOM     50  C3  NAG B   4      21.214  32.165  15.9780  0.00  0.00     0.000 C
ATOM     51  C4  NAG B   4      19.886  31.890  15.2630  0.00  0.00     0.000 C
ATOM     52  C5  NAG B   4      20.092  31.022  14.0330  0.00  0.00     0.000 C
ATOM     53  O5  NAG B   4      21.250  31.379  13.2470  0.00  0.00     0.000 O
BRANCH 49 56
ATOM     54   N  NAG B   4      23.382  32.187  15.7360  0.00  0.00     0.000 N
ATOM     56  HD  NAG B   4      23.344  31.442  16.1750  0.00  0.00     0.000 HD
ATOM     56   C  NAG B   4      25.657  31.779  16.4760  0.00  0.00     0.000 C
ATOM     57   O  NAG B   4      24.945  33.831  15.5910  0.00  0.00     0.000 OA
ATOM     58   C  NAG B   4      24.621  32.694  15.8990  0.00  0.00     0.000 C
ENDBRANCH 49 56
ATOM     59   O  NAG B   4      18.796  30.005  12.1950  0.00  0.00     0.000 O
ATOM     61  HD  NAG B   4      19.267  30.668  12.4900  0.00  0.00     0.000 HD
ATOM     61   O  NAG B   4      18.796  30.005  12.1950  0.00  0.00     0.000 O
ATOM     63  HD  NAG B   4      19.267  30.668  12.4900  0.00  0.00     0.000 HD
ENDBRANCH 47 50
ENDBRANCH 34 47
ENDBRANCH 33 37
ENDBRANCH 17 33
ENDBRANCH 16 19
ENDBRANCH 1 16
TORSDOF 10
ENDMDL
MODEL 18
REMARK VINA RESULT:      -6.5      9.828     16.899
ROOT
ATOM      1  C1  GCU B   1      19.587  26.584  22.1650  0.00  0.00     0.000 C
ATOM      2  C2  GCU B   1      20.565  26.070  23.2100  0.00  0.00     0.000 C
ATOM      3  C3  GCU B   1      21.285  24.831  22.7010  0.00  0.00     0.000 C
ATOM      4  C4  GCU B   1      20.279  23.808  22.1970  0.00  0.00     0.000 C
ATOM      5  C5  GCU B   1      19.306  24.439  21.2000  0.00  0.00     0.000 C
ATOM      6  O5  GCU B   1      18.649  25.551  21.8240  0.00  0.00     0.000 O
ATOM      7   O  GCU B   1      21.493  27.115  23.4860  0.00  0.00     0.000 O
ATOM      9  HD  GCU B   1      21.695  27.425  24.2690  0.00  0.00     0.000 HD
ATOM      9   O  GCU B   1      22.086  24.252  23.7350  0.00  0.00     0.000 O
ATOM     11  HD  GCU B   1      22.288  24.563  24.5180  0.00  0.00     0.000 HD
ATOM     11   O  GCU B   1      20.984  22.736  21.5710  0.00  0.00     0.000 O
ATOM     13  HD  GCU B   1      21.186  23.046  22.3540  0.00  0.00     0.000 HD
ENDROOT
BRANCH 5 13
ATOM     13   C  GCU B   1      18.328  23.399  20.7070  0.00  0.00     0.000 C
ATOM     14   O  GCU B   1      17.932  23.417  19.5230  0.00  0.00     0.000 OA
ATOM     15   O  GCU B   1      17.967  22.523  21.5150  0.00  0.00     0.000 OA
ENDBRANCH 5 13
BRANCH 1 16
ATOM     16  O3  NAG B   2      18.482  27.303  22.3700  0.00  0.00     0.000 O
BRANCH 16 19
ATOM     17  C1  NAG B   2      17.367  30.558  20.8220  0.00  0.00     0.000 C
ATOM     18  C2  NAG B   2      18.298  29.593  21.5460  0.00  0.00     0.000 C
ATOM     19  C3  NAG B   2      17.709  28.183  21.5390  0.00  0.00     0.000 C
ATOM     20  C4  NAG B   2      16.276  28.203  22.0710  0.00  0.00     0.000 C
ATOM     21  C5  NAG B   2      15.443  29.195  21.2730  0.00  0.00     0.000 C
ATOM     22  O5  NAG B   2      16.044  30.498  21.3780  0.00  0.00     0.000 O
ATOM     23   O  NAG B   2      15.740  26.879  21.9740  0.00  0.00     0.000 O
ATOM     25  HD  NAG B   2      15.883  27.189  22.7690  0.00  0.00     0.000 HD
ATOM     25   C  NAG B   2      13.990  29.257  21.7400  0.00  0.00     0.000 C
ATOM     26   O  NAG B   2      13.866  29.934  23.0000  0.00  0.00     0.000 O
ATOM     28  HD  NAG B   2      14.009  30.245  23.7960  0.00  0.00     0.000 HD
BRANCH 18 30
ATOM     28   N  NAG B   2      19.508  30.053  20.8920  0.00  0.00     0.000 N
ATOM     30  HD  NAG B   2      19.784  29.827  21.6810  0.00  0.00     0.000 HD
ATOM     30   C  NAG B   2      20.687  30.186  21.5120  0.00  0.00     0.000 C
ATOM     31   C  NAG B   2      21.841  30.718  20.7090  0.00  0.00     0.000 C
ATOM     32   O  NAG B   2      20.832  29.894  22.6820  0.00  0.00     0.000 OA
ENDBRANCH 18 30
BRANCH 17 33
ATOM     33  O4  GCU B   3      17.959  31.870  20.8950  0.00  0.00     0.000 O
BRANCH 33 37
ATOM     34  C1  GCU B   3      17.092  35.376  18.8230  0.00  0.00     0.000 C
ATOM     35  C2  GCU B   3      16.178  34.995  19.9880  0.00  0.00     0.000 C
ATOM     36  C3  GCU B   3      16.870  33.971  20.8620  0.00  0.00     0.000 C
ATOM     37  C4  GCU B   3      17.298  32.781  20.0150  0.00  0.00     0.000 C
ATOM     38  C5  GCU B   3      18.208  33.257  18.8810  0.00  0.00     0.000 C
ATOM     39  O5  GCU B   3      17.492  34.212  18.0920  0.00  0.00     0.000 O
ATOM     40   O  GCU B   3      15.879  36.170  20.7450  0.00  0.00     0.000 O
ATOM     42  HD  GCU B   3      15.868  36.479  21.5540  0.00  0.00     0.000 HD
ATOM     42   O  GCU B   3      16.009  33.536  21.9300  0.00  0.00     0.000 O
ATOM     44  HD  GCU B   3      15.999  33.844  22.7390  0.00  0.00     0.000 HD
BRANCH 38 44
ATOM     44   C  GCU B   3      18.653  32.131  17.9810  0.00  0.00     0.000 C
ATOM     45   O  GCU B   3      17.845  31.674  17.1590  0.00  0.00     0.000 OA
ATOM     46   O  GCU B   3      19.813  31.687  18.0750  0.00  0.00     0.000 OA
ENDBRANCH 38 44
BRANCH 34 47
ATOM     47  O3  NAG B   4      16.402  36.108  17.9600  0.00  0.00     0.000 O
BRANCH 47 50
ATOM     48  C1  NAG B   4      17.392  39.677  18.1550  0.00  0.00     0.000 C
ATOM     49  C2  NAG B   4      17.564  38.161  18.1530  0.00  0.00     0.000 C
ATOM     50  C3  NAG B   4      16.367  37.466  17.5240  0.00  0.00     0.000 C
ATOM     51  C4  NAG B   4      15.020  38.089  17.9060  0.00  0.00     0.000 C
ATOM     52  C5  NAG B   4      14.947  39.547  17.4830  0.00  0.00     0.000 C
ATOM     53  O5  NAG B   4      16.159  40.293  17.7290  0.00  0.00     0.000 O
BRANCH 49 56
ATOM     54   N  NAG B   4      18.478  38.094  17.0000  0.00  0.00     0.000 N
ATOM     56  HD  NAG B   4      18.298  38.358  16.1950  0.00  0.00     0.000 HD
ATOM     56   C  NAG B   4      20.471  37.583  15.7110  0.00  0.00     0.000 C
ATOM     57   O  NAG B   4      20.096  36.759  17.8750  0.00  0.00     0.000 OA
ATOM     58   C  NAG B   4      19.655  37.438  16.9590  0.00  0.00     0.000 C
ENDBRANCH 49 56
ATOM     59   O  NAG B   4      13.399  41.468  17.5700  0.00  0.00     0.000 O
ATOM     61  HD  NAG B   4      14.053  41.027  17.9270  0.00  0.00     0.000 HD
ATOM     61   O  NAG B   4      13.399  41.468  17.5700  0.00  0.00     0.000 O
ATOM     63  HD  NAG B   4      14.053  41.027  17.9270  0.00  0.00     0.000 HD
ENDBRANCH 47 50
ENDBRANCH 34 47
ENDBRANCH 33 37
ENDBRANCH 17 33
ENDBRANCH 16 19
ENDBRANCH 1 16
TORSDOF 10
ENDMDL
MODEL 19
REMARK VINA RESULT:      -6.5     15.492     22.609
ROOT
ATOM      1  C1  GCU B   1       8.034  11.783  33.6780  0.00  0.00     0.000 C
ATOM      2  C2  GCU B   1       6.906  11.141  34.4700  0.00  0.00     0.000 C
ATOM      3  C3  GCU B   1       5.955  12.204  34.9980  0.00  0.00     0.000 C
ATOM      4  C4  GCU B   1       6.731  13.285  35.7350  0.00  0.00     0.000 C
ATOM      5  C5  GCU B   1       7.878  13.820  34.8760  0.00  0.00     0.000 C
ATOM      6  O5  GCU B   1       8.732  12.730  34.5020  0.00  0.00     0.000 O
ATOM      7   O  GCU B   1       6.225  10.241  33.6020  0.00  0.00     0.000 O
ATOM      9  HD  GCU B   1       6.053   9.408  33.7620  0.00  0.00     0.000 HD
ATOM      9   O  GCU B   1       4.985  11.623  35.8730  0.00  0.00     0.000 O
ATOM     11  HD  GCU B   1       4.813  10.790  36.0340  0.00  0.00     0.000 HD
ATOM     11   O  GCU B   1       5.839  14.349  36.0670  0.00  0.00     0.000 O
ATOM     13  HD  GCU B   1       5.667  13.516  36.2280  0.00  0.00     0.000 HD
ENDROOT
BRANCH 5 13
ATOM     13   C  GCU B   1       8.622  14.899  35.6270  0.00  0.00     0.000 C
ATOM     14   O  GCU B   1       9.462  14.597  36.4990  0.00  0.00     0.000 OA
ATOM     15   O  GCU B   1       8.381  16.082  35.3190  0.00  0.00     0.000 OA
ENDBRANCH 5 13
BRANCH 1 16
ATOM     16  O3  NAG B   2       9.260  11.297  33.4700  0.00  0.00     0.000 O
BRANCH 16 19
ATOM     17  C1  NAG B   2      11.315  11.531  30.3150  0.00  0.00     0.000 C
ATOM     18  C2  NAG B   2      10.080  11.283  31.1720  0.00  0.00     0.000 C
ATOM     19  C3  NAG B   2      10.347  11.693  32.6190  0.00  0.00     0.000 C
ATOM     20  C4  NAG B   2      11.622  11.026  33.1340  0.00  0.00     0.000 C
ATOM     21  C5  NAG B   2      12.784  11.347  32.2050  0.00  0.00     0.000 C
ATOM     22  O5  NAG B   2      12.464  10.882  30.8820  0.00  0.00     0.000 O
ATOM     23   O  NAG B   2      11.873  11.500  34.4620  0.00  0.00     0.000 O
ATOM     25  HD  NAG B   2      11.650  10.667  34.3750  0.00  0.00     0.000 HD
ATOM     25   C  NAG B   2      14.099  10.725  32.6690  0.00  0.00     0.000 C
ATOM     26   O  NAG B   2      14.120   9.305  32.4530  0.00  0.00     0.000 O
ATOM     28  HD  NAG B   2      13.896   8.473  32.3660  0.00  0.00     0.000 HD
BRANCH 18 30
ATOM     28   N  NAG B   2       9.013  10.710  30.3730  0.00  0.00     0.000 N
ATOM     30  HD  NAG B   2       8.793  11.546  30.4260  0.00  0.00     0.000 HD
ATOM     30   C  NAG B   2       7.923  11.386  29.9890  0.00  0.00     0.000 C
ATOM     31   C  NAG B   2       6.882  10.641  29.2010  0.00  0.00     0.000 C
ATOM     32   O  NAG B   2       7.767  12.559  30.2640  0.00  0.00     0.000 OA
ENDBRANCH 18 30
BRANCH 17 33
ATOM     33  O4  GCU B   3      11.012  11.092  28.9760  0.00  0.00     0.000 O
BRANCH 33 37
ATOM     34  C1  GCU B   3      13.083  11.606  25.4010  0.00  0.00     0.000 C
ATOM     35  C2  GCU B   3      13.561  10.503  26.3460  0.00  0.00     0.000 C
ATOM     36  C3  GCU B   3      12.471  10.186  27.3480  0.00  0.00     0.000 C
ATOM     37  C4  GCU B   3      12.052  11.460  28.0680  0.00  0.00     0.000 C
ATOM     38  C5  GCU B   3      11.589  12.500  27.0460  0.00  0.00     0.000 C
ATOM     39  O5  GCU B   3      12.665  12.758  26.1390  0.00  0.00     0.000 O
ATOM     40   O  GCU B   3      13.880   9.341  25.5780  0.00  0.00     0.000 O
ATOM     42  HD  GCU B   3      13.739   8.487  25.5370  0.00  0.00     0.000 HD
ATOM     42   O  GCU B   3      12.913   9.202  28.3000  0.00  0.00     0.000 O
ATOM     44  HD  GCU B   3      12.772   8.348  28.2590  0.00  0.00     0.000 HD
BRANCH 38 44
ATOM     44   C  GCU B   3      11.180  13.803  27.6860  0.00  0.00     0.000 C
ATOM     45   O  GCU B   3      10.041  13.896  28.1670  0.00  0.00     0.000 OA
ATOM     46   O  GCU B   3      11.986  14.752  27.7240  0.00  0.00     0.000 OA
ENDBRANCH 38 44
BRANCH 34 47
ATOM     47  O3  NAG B   4      14.110  12.016  24.6690  0.00  0.00     0.000 O
BRANCH 47 50
ATOM     48  C1  NAG B   4      14.362  14.580  22.0010  0.00  0.00     0.000 C
ATOM     49  C2  NAG B   4      14.565  13.943  23.3720  0.00  0.00     0.000 C
ATOM     50  C3  NAG B   4      14.341  12.440  23.3270  0.00  0.00     0.000 C
ATOM     51  C4  NAG B   4      13.159  12.018  22.4480  0.00  0.00     0.000 C
ATOM     52  C5  NAG B   4      13.351  12.472  21.0100  0.00  0.00     0.000 C
ATOM     53  O5  NAG B   4      13.878  13.811  20.8800  0.00  0.00     0.000 O
BRANCH 49 56
ATOM     54   N  NAG B   4      16.033  14.049  23.2990  0.00  0.00     0.000 N
ATOM     56  HD  NAG B   4      16.517  13.895  22.5980  0.00  0.00     0.000 HD
ATOM     56   C  NAG B   4      18.322  14.389  24.0310  0.00  0.00     0.000 C
ATOM     57   O  NAG B   4      16.512  14.227  25.5140  0.00  0.00     0.000 OA
ATOM     58   C  NAG B   4      16.869  14.207  24.3450  0.00  0.00     0.000 C
ENDBRANCH 49 56
ATOM     59   O  NAG B   4      12.191  12.403  18.8320  0.00  0.00     0.000 O
ATOM     61  HD  NAG B   4      12.354  12.823  19.5720  0.00  0.00     0.000 HD
ATOM     61   O  NAG B   4      12.191  12.403  18.8320  0.00  0.00     0.000 O
ATOM     63  HD  NAG B   4      12.354  12.823  19.5720  0.00  0.00     0.000 HD
ENDBRANCH 47 50
ENDBRANCH 34 47
ENDBRANCH 33 37
ENDBRANCH 17 33
ENDBRANCH 16 19
ENDBRANCH 1 16
TORSDOF 10
ENDMDL
MODEL 20
REMARK VINA RESULT:      -6.5     12.351     18.293
ROOT
ATOM      1  C1  GCU B   1      15.050  29.532  28.2480  0.00  0.00     0.000 C
ATOM      2  C2  GCU B   1      13.718  29.082  28.8260  0.00  0.00     0.000 C
ATOM      3  C3  GCU B   1      13.597  29.509  30.2810  0.00  0.00     0.000 C
ATOM      4  C4  GCU B   1      14.825  29.066  31.0620  0.00  0.00     0.000 C
ATOM      5  C5  GCU B   1      16.111  29.516  30.3660  0.00  0.00     0.000 C
ATOM      6  O5  GCU B   1      16.129  28.995  29.0300  0.00  0.00     0.000 O
ATOM      7   O  GCU B   1      12.685  29.669  28.0410  0.00  0.00     0.000 O
ATOM      9  HD  GCU B   1      12.024  29.249  27.6700  0.00  0.00     0.000 HD
ATOM      9   O  GCU B   1      12.421  28.953  30.8730  0.00  0.00     0.000 O
ATOM     11  HD  GCU B   1      11.760  28.533  30.5030  0.00  0.00     0.000 HD
ATOM     11   O  GCU B   1      14.764  29.627  32.3740  0.00  0.00     0.000 O
ATOM     13  HD  GCU B   1      14.103  29.207  32.0030  0.00  0.00     0.000 HD
ENDROOT
BRANCH 5 13
ATOM     13   C  GCU B   1      17.311  29.076  31.1690  0.00  0.00     0.000 C
ATOM     14   O  GCU B   1      17.252  28.054  31.8830  0.00  0.00     0.000 OA
ATOM     15   O  GCU B   1      18.352  29.753  31.0640  0.00  0.00     0.000 OA
ENDBRANCH 5 13
BRANCH 1 16
ATOM     16  O3  NAG B   2      15.723  28.986  27.2320  0.00  0.00     0.000 O
BRANCH 16 19
ATOM     17  C1  NAG B   2      16.766  30.476  23.9270  0.00  0.00     0.000 C
ATOM     18  C2  NAG B   2      15.821  30.091  25.0590  0.00  0.00     0.000 C
ATOM     19  C3  NAG B   2      16.609  29.519  26.2360  0.00  0.00     0.000 C
ATOM     20  C4  NAG B   2      17.526  28.391  25.7640  0.00  0.00     0.000 C
ATOM     21  C5  NAG B   2      18.423  28.891  24.6400  0.00  0.00     0.000 C
ATOM     22  O5  NAG B   2      17.597  29.363  23.5610  0.00  0.00     0.000 O
ATOM     23   O  NAG B   2      18.298  27.940  26.8820  0.00  0.00     0.000 O
ATOM     25  HD  NAG B   2      17.707  27.392  26.5640  0.00  0.00     0.000 HD
ATOM     25   C  NAG B   2      19.381  27.818  24.1270  0.00  0.00     0.000 C
ATOM     26   O  NAG B   2      18.698  26.826  23.3460  0.00  0.00     0.000 O
ATOM     28  HD  NAG B   2      18.107  26.279  23.0280  0.00  0.00     0.000 HD
BRANCH 18 30
ATOM     28   N  NAG B   2      15.058  31.325  25.0770  0.00  0.00     0.000 N
ATOM     30  HD  NAG B   2      14.459  30.719  25.2360  0.00  0.00     0.000 HD
ATOM     30   C  NAG B   2      13.724  31.375  25.1810  0.00  0.00     0.000 C
ATOM     31   C  NAG B   2      13.073  32.729  25.1390  0.00  0.00     0.000 C
ATOM     32   O  NAG B   2      13.052  30.370  25.3010  0.00  0.00     0.000 OA
ENDBRANCH 18 30
BRANCH 17 33
ATOM     33  O4  GCU B   3      15.962  30.973  22.8380  0.00  0.00     0.000 O
BRANCH 33 37
ATOM     34  C1  GCU B   3      16.943  33.480  19.6630  0.00  0.00     0.000 C
ATOM     35  C2  GCU B   3      17.211  31.984  19.4950  0.00  0.00     0.000 C
ATOM     36  C3  GCU B   3      16.423  31.209  20.5290  0.00  0.00     0.000 C
ATOM     37  C4  GCU B   3      16.753  31.730  21.9210  0.00  0.00     0.000 C
ATOM     38  C5  GCU B   3      16.451  33.228  21.9940  0.00  0.00     0.000 C
ATOM     39  O5  GCU B   3      17.232  33.899  21.0000  0.00  0.00     0.000 O
ATOM     40   O  GCU B   3      16.823  31.589  18.1780  0.00  0.00     0.000 O
ATOM     42  HD  GCU B   3      16.359  30.995  17.7500  0.00  0.00     0.000 HD
ATOM     42   O  GCU B   3      16.707  29.800  20.4480  0.00  0.00     0.000 O
ATOM     44  HD  GCU B   3      16.244  29.207  20.0200  0.00  0.00     0.000 HD
BRANCH 38 44
ATOM     44   C  GCU B   3      16.778  33.822  23.3410  0.00  0.00     0.000 C
ATOM     45   O  GCU B   3      15.847  34.220  24.0560  0.00  0.00     0.000 OA
ATOM     46   O  GCU B   3      17.966  33.899  23.7100  0.00  0.00     0.000 OA
ENDBRANCH 38 44
BRANCH 34 47
ATOM     47  O3  NAG B   4      17.789  34.154  18.8970  0.00  0.00     0.000 O
BRANCH 47 50
ATOM     48  C1  NAG B   4      19.326  36.110  16.1460  0.00  0.00     0.000 C
ATOM     49  C2  NAG B   4      19.148  34.964  17.1360  0.00  0.00     0.000 C
ATOM     50  C3  NAG B   4      17.737  34.928  17.6990  0.00  0.00     0.000 C
ATOM     51  C4  NAG B   4      17.161  36.314  18.0130  0.00  0.00     0.000 C
ATOM     52  C5  NAG B   4      17.109  37.183  16.7670  0.00  0.00     0.000 C
ATOM     53  O5  NAG B   4      18.283  37.084  15.9300  0.00  0.00     0.000 O
BRANCH 49 56
ATOM     54   N  NAG B   4      19.112  33.949  16.0690  0.00  0.00     0.000 N
ATOM     56  HD  NAG B   4      18.737  34.043  15.2940  0.00  0.00     0.000 HD
ATOM     56   C  NAG B   4      19.448  31.822  14.9480  0.00  0.00     0.000 C
ATOM     57   O  NAG B   4      19.835  32.139  17.2390  0.00  0.00     0.000 OA
ATOM     58   C  NAG B   4      19.474  32.656  16.1920  0.00  0.00     0.000 C
ENDBRANCH 49 56
ATOM     59   O  NAG B   4      16.447  39.457  16.0720  0.00  0.00     0.000 O
ATOM     61  HD  NAG B   4      17.066  38.917  16.3450  0.00  0.00     0.000 HD
ATOM     61   O  NAG B   4      16.447  39.457  16.0720  0.00  0.00     0.000 O
ATOM     63  HD  NAG B   4      17.066  38.917  16.3450  0.00  0.00     0.000 HD
ENDBRANCH 47 50
ENDBRANCH 34 47
ENDBRANCH 33 37
ENDBRANCH 17 33
ENDBRANCH 16 19
ENDBRANCH 1 16
TORSDOF 10
ENDMDL
MODEL 21
REMARK VINA RESULT:      -6.5     12.465     20.328
ROOT
ATOM      1  C1  GCU B   1      16.845  31.819  20.6900  0.00  0.00     0.000 C
ATOM      2  C2  GCU B   1      17.824  30.694  20.3880  0.00  0.00     0.000 C
ATOM      3  C3  GCU B   1      17.095  29.361  20.3120  0.00  0.00     0.000 C
ATOM      4  C4  GCU B   1      16.238  29.160  21.5530  0.00  0.00     0.000 C
ATOM      5  C5  GCU B   1      15.337  30.371  21.8010  0.00  0.00     0.000 C
ATOM      6  O5  GCU B   1      16.150  31.546  21.9170  0.00  0.00     0.000 O
ATOM      7   O  GCU B   1      18.458  30.993  19.1480  0.00  0.00     0.000 O
ATOM      9  HD  GCU B   1      19.311  31.014  19.0030  0.00  0.00     0.000 HD
ATOM      9   O  GCU B   1      18.027  28.284  20.1880  0.00  0.00     0.000 O
ATOM     11  HD  GCU B   1      18.880  28.304  20.0420  0.00  0.00     0.000 HD
ATOM     11   O  GCU B   1      15.439  27.990  21.3770  0.00  0.00     0.000 O
ATOM     13  HD  GCU B   1      16.292  28.010  21.2310  0.00  0.00     0.000 HD
ENDROOT
BRANCH 5 13
ATOM     13   C  GCU B   1      14.490  30.137  23.0290  0.00  0.00     0.000 C
ATOM     14   O  GCU B   1      14.718  29.164  23.7780  0.00  0.00     0.000 OA
ATOM     15   O  GCU B   1      13.588  30.962  23.2690  0.00  0.00     0.000 OA
ENDBRANCH 5 13
BRANCH 1 16
ATOM     16  O3  NAG B   2      17.106  32.987  21.2800  0.00  0.00     0.000 O
BRANCH 16 19
ATOM     17  C1  NAG B   2      16.964  36.550  20.0490  0.00  0.00     0.000 C
ATOM     18  C2  NAG B   2      17.399  35.090  20.0780  0.00  0.00     0.000 C
ATOM     19  C3  NAG B   2      16.586  34.315  21.1130  0.00  0.00     0.000 C
ATOM     20  C4  NAG B   2      16.641  35.021  22.4680  0.00  0.00     0.000 C
ATOM     21  C5  NAG B   2      16.182  36.464  22.3170  0.00  0.00     0.000 C
ATOM     22  O5  NAG B   2      17.032  37.125  21.3630  0.00  0.00     0.000 O
ATOM     23   O  NAG B   2      15.805  34.304  23.3840  0.00  0.00     0.000 O
ATOM     25  HD  NAG B   2      16.659  34.281  23.5280  0.00  0.00     0.000 HD
ATOM     25   C  NAG B   2      16.195  37.229  23.6390  0.00  0.00     0.000 C
ATOM     26   O  NAG B   2      17.532  37.538  24.0600  0.00  0.00     0.000 O
ATOM     28  HD  NAG B   2      18.386  37.515  24.2040  0.00  0.00     0.000 HD
BRANCH 18 30
ATOM     28   N  NAG B   2      18.401  35.019  19.0310  0.00  0.00     0.000 N
ATOM     30  HD  NAG B   2      17.767  34.509  18.7330  0.00  0.00     0.000 HD
ATOM     30   C  NAG B   2      18.315  34.208  17.9690  0.00  0.00     0.000 C
ATOM     31   C  NAG B   2      19.456  34.215  16.9920  0.00  0.00     0.000 C
ATOM     32   O  NAG B   2      17.355  33.485  17.7920  0.00  0.00     0.000 OA
ENDBRANCH 18 30
BRANCH 17 33
ATOM     33  O4  GCU B   3      17.789  37.231  19.0820  0.00  0.00     0.000 O
BRANCH 33 37
ATOM     34  C1  GCU B   3      17.105  40.682  16.8560  0.00  0.00     0.000 C
ATOM     35  C2  GCU B   3      17.502  40.851  18.3230  0.00  0.00     0.000 C
ATOM     36  C3  GCU B   3      18.111  39.563  18.8350  0.00  0.00     0.000 C
ATOM     37  C4  GCU B   3      17.145  38.411  18.5990  0.00  0.00     0.000 C
ATOM     38  C5  GCU B   3      16.808  38.319  17.1090  0.00  0.00     0.000 C
ATOM     39  O5  GCU B   3      16.231  39.561  16.6940  0.00  0.00     0.000 O
ATOM     40   O  GCU B   3      18.446  41.920  18.4270  0.00  0.00     0.000 O
ATOM     42  HD  GCU B   3      19.217  42.121  18.7650  0.00  0.00     0.000 HD
ATOM     42   O  GCU B   3      18.431  39.662  20.2340  0.00  0.00     0.000 O
ATOM     44  HD  GCU B   3      19.203  39.863  20.5710  0.00  0.00     0.000 HD
BRANCH 38 44
ATOM     44   C  GCU B   3      15.832  37.212  16.8010  0.00  0.00     0.000 C
ATOM     45   O  GCU B   3      14.683  37.287  17.2620  0.00  0.00     0.000 OA
ATOM     46   O  GCU B   3      16.190  36.251  16.0920  0.00  0.00     0.000 OA
ENDBRANCH 38 44
BRANCH 34 47
ATOM     47  O3  NAG B   4      16.392  41.735  16.4820  0.00  0.00     0.000 O
BRANCH 47 50
ATOM     48  C1  NAG B   4      16.739  45.065  14.8850  0.00  0.00     0.000 C
ATOM     49  C2  NAG B   4      17.105  43.877  15.7690  0.00  0.00     0.000 C
ATOM     50  C3  NAG B   4      16.336  42.627  15.3710  0.00  0.00     0.000 C
ATOM     51  C4  NAG B   4      14.872  42.894  15.0040  0.00  0.00     0.000 C
ATOM     52  C5  NAG B   4      14.763  43.862  13.8370  0.00  0.00     0.000 C
ATOM     53  O5  NAG B   4      15.682  44.974  13.9070  0.00  0.00     0.000 O
BRANCH 49 56
ATOM     54   N  NAG B   4      18.373  43.464  15.1430  0.00  0.00     0.000 N
ATOM     56  HD  NAG B   4      18.451  43.013  14.4080  0.00  0.00     0.000 HD
ATOM     56   C  NAG B   4      20.763  43.155  14.8480  0.00  0.00     0.000 C
ATOM     57   O  NAG B   4      19.807  43.925  16.8460  0.00  0.00     0.000 OA
ATOM     58   C  NAG B   4      19.596  43.543  15.7050  0.00  0.00     0.000 C
ENDBRANCH 49 56
ATOM     59   O  NAG B   4      13.047  44.987  12.4650  0.00  0.00     0.000 O
ATOM     61  HD  NAG B   4      13.576  45.003  13.1510  0.00  0.00     0.000 HD
ATOM     61   O  NAG B   4      13.047  44.987  12.4650  0.00  0.00     0.000 O
ATOM     63  HD  NAG B   4      13.576  45.003  13.1510  0.00  0.00     0.000 HD
ENDBRANCH 47 50
ENDBRANCH 34 47
ENDBRANCH 33 37
ENDBRANCH 17 33
ENDBRANCH 16 19
ENDBRANCH 1 16
TORSDOF 10
ENDMDL
MODEL 22
REMARK VINA RESULT:      -6.4     12.559     20.151
ROOT
ATOM      1  C1  GCU B   1      10.750  11.985  31.1500  0.00  0.00     0.000 C
ATOM      2  C2  GCU B   1       9.458  12.461  31.7950  0.00  0.00     0.000 C
ATOM      3  C3  GCU B   1       9.754  13.243  33.0650  0.00  0.00     0.000 C
ATOM      4  C4  GCU B   1      10.674  12.441  33.9730  0.00  0.00     0.000 C
ATOM      5  C5  GCU B   1      11.912  11.959  33.2140  0.00  0.00     0.000 C
ATOM      6  O5  GCU B   1      11.496  11.185  32.0810  0.00  0.00     0.000 O
ATOM      7   O  GCU B   1       8.777  13.277  30.8470  0.00  0.00     0.000 O
ATOM      9  HD  GCU B   1       7.954  13.186  30.5930  0.00  0.00     0.000 HD
ATOM      9   O  GCU B   1       8.543  13.555  33.7580  0.00  0.00     0.000 O
ATOM     11  HD  GCU B   1       7.720  13.464  33.5040  0.00  0.00     0.000 HD
ATOM     11   O  GCU B   1      11.070  13.264  35.0710  0.00  0.00     0.000 O
ATOM     13  HD  GCU B   1      10.248  13.173  34.8160  0.00  0.00     0.000 HD
ENDROOT
BRANCH 5 13
ATOM     13   C  GCU B   1      12.812  11.180  34.1420  0.00  0.00     0.000 C
ATOM     14   O  GCU B   1      13.396  11.754  35.0840  0.00  0.00     0.000 OA
ATOM     15   O  GCU B   1      12.920   9.955  33.9420  0.00  0.00     0.000 OA
ENDBRANCH 5 13
BRANCH 1 16
ATOM     16  O3  NAG B   2      10.920  10.931  30.3490  0.00  0.00     0.000 O
BRANCH 16 19
ATOM     17  C1  NAG B   2      12.341  11.073  26.8580  0.00  0.00     0.000 C
ATOM     18  C2  NAG B   2      11.507  11.515  28.0540  0.00  0.00     0.000 C
ATOM     19  C3  NAG B   2      11.824  10.646  29.2700  0.00  0.00     0.000 C
ATOM     20  C4  NAG B   2      11.689   9.166  28.9150  0.00  0.00     0.000 C
ATOM     21  C5  NAG B   2      12.566   8.841  27.7140  0.00  0.00     0.000 C
ATOM     22  O5  NAG B   2      12.164   9.669  26.6080  0.00  0.00     0.000 O
ATOM     23   O  NAG B   2      12.069   8.392  30.0590  0.00  0.00     0.000 O
ATOM     25  HD  NAG B   2      11.235   8.371  29.8270  0.00  0.00     0.000 HD
ATOM     25   C  NAG B   2      12.494   7.370  27.3110  0.00  0.00     0.000 C
ATOM     26   O  NAG B   2      11.245   7.053  26.6780  0.00  0.00     0.000 O
ATOM     28  HD  NAG B   2      10.411   7.032  26.4460  0.00  0.00     0.000 HD
BRANCH 18 30
ATOM     28   N  NAG B   2      11.789  12.938  28.0450  0.00  0.00     0.000 N
ATOM     30  HD  NAG B   2      10.932  12.907  28.1630  0.00  0.00     0.000 HD
ATOM     30   C  NAG B   2      10.845  13.886  28.0750  0.00  0.00     0.000 C
ATOM     31   C  NAG B   2      11.294  15.319  28.0150  0.00  0.00     0.000 C
ATOM     32   O  NAG B   2       9.663  13.611  28.1440  0.00  0.00     0.000 OA
ENDBRANCH 18 30
BRANCH 17 33
ATOM     33  O4  GCU B   3      11.972  11.903  25.7380  0.00  0.00     0.000 O
BRANCH 33 37
ATOM     34  C1  GCU B   3      13.941  12.647  22.1470  0.00  0.00     0.000 C
ATOM     35  C2  GCU B   3      13.023  11.427  22.2130  0.00  0.00     0.000 C
ATOM     36  C3  GCU B   3      12.092  11.556  23.4000  0.00  0.00     0.000 C
ATOM     37  C4  GCU B   3      12.908  11.769  24.6680  0.00  0.00     0.000 C
ATOM     38  C5  GCU B   3      13.791  13.008  24.5100  0.00  0.00     0.000 C
ATOM     39  O5  GCU B   3      14.647  12.817  23.3790  0.00  0.00     0.000 O
ATOM     40   O  GCU B   3      12.269  11.348  21.0010  0.00  0.00     0.000 O
ATOM     42  HD  GCU B   3      11.462  11.255  20.7020  0.00  0.00     0.000 HD
ATOM     42   O  GCU B   3      11.261  10.389  23.5370  0.00  0.00     0.000 O
ATOM     44  HD  GCU B   3      10.454  10.296  23.2370  0.00  0.00     0.000 HD
BRANCH 38 44
ATOM     44   C  GCU B   3      14.650  13.269  25.7220  0.00  0.00     0.000 C
ATOM     45   O  GCU B   3      14.221  14.032  26.6010  0.00  0.00     0.000 OA
ATOM     46   O  GCU B   3      15.762  12.717  25.8210  0.00  0.00     0.000 OA
ENDBRANCH 38 44
BRANCH 34 47
ATOM     47  O3  NAG B   4      14.879  12.427  21.2370  0.00  0.00     0.000 O
BRANCH 47 50
ATOM     48  C1  NAG B   4      16.694  11.744  18.0750  0.00  0.00     0.000 C
ATOM     49  C2  NAG B   4      16.358  11.651  19.5600  0.00  0.00     0.000 C
ATOM     50  C3  NAG B   4      14.943  12.129  19.8430  0.00  0.00     0.000 C
ATOM     51  C4  NAG B   4      14.537  13.368  19.0370  0.00  0.00     0.000 C
ATOM     52  C5  NAG B   4      14.615  13.103  17.5430  0.00  0.00     0.000 C
ATOM     53  O5  NAG B   4      15.783  12.355  17.1370  0.00  0.00     0.000 O
BRANCH 49 56
ATOM     54   N  NAG B   4      16.048  10.214  19.6590  0.00  0.00     0.000 N
ATOM     56  HD  NAG B   4      15.318   9.834  19.3890  0.00  0.00     0.000 HD
ATOM     56   C  NAG B   4      16.307   7.871  20.2400  0.00  0.00     0.000 C
ATOM     57   O  NAG B   4      17.720   9.558  21.0530  0.00  0.00     0.000 OA
ATOM     58   C  NAG B   4      16.749   9.298  20.3570  0.00  0.00     0.000 C
ENDBRANCH 49 56
ATOM     59   O  NAG B   4      14.251  14.262  15.3940  0.00  0.00     0.000 O
ATOM     61  HD  NAG B   4      14.794  14.028  16.0270  0.00  0.00     0.000 HD
ATOM     61   O  NAG B   4      14.251  14.262  15.3940  0.00  0.00     0.000 O
ATOM     63  HD  NAG B   4      14.794  14.028  16.0270  0.00  0.00     0.000 HD
ENDBRANCH 47 50
ENDBRANCH 34 47
ENDBRANCH 33 37
ENDBRANCH 17 33
ENDBRANCH 16 19
ENDBRANCH 1 16
TORSDOF 10
ENDMDL
MODEL 23
REMARK VINA RESULT:      -6.4     14.829     22.741
ROOT
ATOM      1  C1  GCU B   1       6.793   9.949  30.8000  0.00  0.00     0.000 C
ATOM      2  C2  GCU B   1       5.866   8.752  30.9510  0.00  0.00     0.000 C
ATOM      3  C3  GCU B   1       4.444   9.129  30.5660  0.00  0.00     0.000 C
ATOM      4  C4  GCU B   1       4.012  10.381  31.3130  0.00  0.00     0.000 C
ATOM      5  C5  GCU B   1       5.039  11.503  31.1480  0.00  0.00     0.000 C
ATOM      6  O5  GCU B   1       6.317  11.040  31.6050  0.00  0.00     0.000 O
ATOM      7   O  GCU B   1       6.359   7.715  30.1080  0.00  0.00     0.000 O
ATOM      9  HD  GCU B   1       6.527   6.900  30.3470  0.00  0.00     0.000 HD
ATOM      9   O  GCU B   1       3.543   8.058  30.8560  0.00  0.00     0.000 O
ATOM     11  HD  GCU B   1       3.711   7.242  31.0940  0.00  0.00     0.000 HD
ATOM     11   O  GCU B   1       2.746  10.807  30.8080  0.00  0.00     0.000 O
ATOM     13  HD  GCU B   1       2.914   9.992  31.0460  0.00  0.00     0.000 HD
ENDROOT
BRANCH 5 13
ATOM     13   C  GCU B   1       4.578  12.735  31.8880  0.00  0.00     0.000 C
ATOM     14   O  GCU B   1       3.954  13.635  31.2880  0.00  0.00     0.000 OA
ATOM     15   O  GCU B   1       4.821  12.797  33.1090  0.00  0.00     0.000 OA
ENDBRANCH 5 13
BRANCH 1 16
ATOM     16  O3  NAG B   2       7.938  10.177  31.4470  0.00  0.00     0.000 O
BRANCH 16 19
ATOM     17  C1  NAG B   2      11.149  11.464  29.9420  0.00  0.00     0.000 C
ATOM     18  C2  NAG B   2       9.888  10.615  30.0470  0.00  0.00     0.000 C
ATOM     19  C3  NAG B   2       9.034  11.078  31.2250  0.00  0.00     0.000 C
ATOM     20  C4  NAG B   2       9.872  11.130  32.5020  0.00  0.00     0.000 C
ATOM     21  C5  NAG B   2      11.097  12.006  32.2800  0.00  0.00     0.000 C
ATOM     22  O5  NAG B   2      11.863  11.467  31.1890  0.00  0.00     0.000 O
ATOM     23   O  NAG B   2       9.053  11.643  33.5590  0.00  0.00     0.000 O
ATOM     25  HD  NAG B   2       9.292  10.812  33.6120  0.00  0.00     0.000 HD
ATOM     25   C  NAG B   2      11.976  12.118  33.5240  0.00  0.00     0.000 C
ATOM     26   O  NAG B   2      12.701  10.904  33.7720  0.00  0.00     0.000 O
ATOM     28  HD  NAG B   2      12.940  10.073  33.8250  0.00  0.00     0.000 HD
BRANCH 18 30
ATOM     28   N  NAG B   2       9.540  10.684  28.6410  0.00  0.00     0.000 N
ATOM     30  HD  NAG B   2       9.287   9.887  28.8670  0.00  0.00     0.000 HD
ATOM     30   C  NAG B   2       9.076   9.646  27.9350  0.00  0.00     0.000 C
ATOM     31   C  NAG B   2       8.801   9.863  26.4730  0.00  0.00     0.000 C
ATOM     32   O  NAG B   2       8.881   8.560  28.4450  0.00  0.00     0.000 OA
ENDBRANCH 18 30
BRANCH 17 33
ATOM     33  O4  GCU B   3      11.926  10.955  28.8390  0.00  0.00     0.000 O
BRANCH 33 37
ATOM     34  C1  GCU B   3      14.623  12.928  26.3560  0.00  0.00     0.000 C
ATOM     35  C2  GCU B   3      15.192  12.133  27.5320  0.00  0.00     0.000 C
ATOM     36  C3  GCU B   3      14.145  11.167  28.0440  0.00  0.00     0.000 C
ATOM     37  C4  GCU B   3      12.871  11.926  28.3870  0.00  0.00     0.000 C
ATOM     38  C5  GCU B   3      12.377  12.686  27.1540  0.00  0.00     0.000 C
ATOM     39  O5  GCU B   3      13.408  13.584  26.7290  0.00  0.00     0.000 O
ATOM     40   O  GCU B   3      16.350  11.421  27.0920  0.00  0.00     0.000 O
ATOM     42  HD  GCU B   3      16.712  10.634  27.0960  0.00  0.00     0.000 HD
ATOM     42   O  GCU B   3      14.621  10.451  29.1980  0.00  0.00     0.000 O
ATOM     44  HD  GCU B   3      14.983   9.665  29.2010  0.00  0.00     0.000 HD
BRANCH 38 44
ATOM     44   C  GCU B   3      11.128  13.486  27.4260  0.00  0.00     0.000 C
ATOM     45   O  GCU B   3      11.239  14.594  27.9710  0.00  0.00     0.000 OA
ATOM     46   O  GCU B   3      10.017  13.027  27.0980  0.00  0.00     0.000 OA
ENDBRANCH 38 44
BRANCH 34 47
ATOM     47  O3  NAG B   4      15.466  13.905  26.0540  0.00  0.00     0.000 O
BRANCH 47 50
ATOM     48  C1  NAG B   4      17.357  13.150  22.9540  0.00  0.00     0.000 C
ATOM     49  C2  NAG B   4      16.177  13.167  23.9200  0.00  0.00     0.000 C
ATOM     50  C3  NAG B   4      16.338  14.247  24.9780  0.00  0.00     0.000 C
ATOM     51  C4  NAG B   4      17.770  14.385  25.5060  0.00  0.00     0.000 C
ATOM     52  C5  NAG B   4      18.741  14.725  24.3870  0.00  0.00     0.000 C
ATOM     53  O5  NAG B   4      18.512  13.988  23.1650  0.00  0.00     0.000 O
BRANCH 49 56
ATOM     54   N  NAG B   4      15.240  13.875  23.0310  0.00  0.00     0.000 N
ATOM     56  HD  NAG B   4      15.355  14.668  22.7030  0.00  0.00     0.000 HD
ATOM     56   C  NAG B   4      13.234  14.315  21.7360  0.00  0.00     0.000 C
ATOM     57   O  NAG B   4      13.423  12.525  23.2400  0.00  0.00     0.000 OA
ATOM     58   C  NAG B   4      13.978  13.495  22.7450  0.00  0.00     0.000 C
ENDBRANCH 49 56
ATOM     59   O  NAG B   4      21.147  15.142  24.0300  0.00  0.00     0.000 O
ATOM     61  HD  NAG B   4      20.485  14.584  24.0390  0.00  0.00     0.000 HD
ATOM     61   O  NAG B   4      21.147  15.142  24.0300  0.00  0.00     0.000 O
ATOM     63  HD  NAG B   4      20.485  14.584  24.0390  0.00  0.00     0.000 HD
ENDBRANCH 47 50
ENDBRANCH 34 47
ENDBRANCH 33 37
ENDBRANCH 17 33
ENDBRANCH 16 19
ENDBRANCH 1 16
TORSDOF 10
ENDMDL
MODEL 24
REMARK VINA RESULT:      -6.4     16.403     23.570
ROOT
ATOM      1  C1  GCU B   1       4.935  11.268  31.0160  0.00  0.00     0.000 C
ATOM      2  C2  GCU B   1       3.912  10.143  31.0600  0.00  0.00     0.000 C
ATOM      3  C3  GCU B   1       2.575  10.619  30.5130  0.00  0.00     0.000 C
ATOM      4  C4  GCU B   1       2.153  11.907  31.2030  0.00  0.00     0.000 C
ATOM      5  C5  GCU B   1       3.272  12.948  31.1560  0.00  0.00     0.000 C
ATOM      6  O5  GCU B   1       4.451  12.399  31.7590  0.00  0.00     0.000 O
ATOM      7   O  GCU B   1       4.421   9.065  30.2820  0.00  0.00     0.000 O
ATOM      9  HD  GCU B   1       4.500   8.242  30.5400  0.00  0.00     0.000 HD
ATOM      9   O  GCU B   1       1.570   9.619  30.6980  0.00  0.00     0.000 O
ATOM     11  HD  GCU B   1       1.649   8.796  30.9560  0.00  0.00     0.000 HD
ATOM     11   O  GCU B   1       0.989  12.418  30.5520  0.00  0.00     0.000 O
ATOM     13  HD  GCU B   1       1.068  11.595  30.8100  0.00  0.00     0.000 HD
ENDROOT
BRANCH 5 13
ATOM     13   C  GCU B   1       2.820  14.219  31.8350  0.00  0.00     0.000 C
ATOM     14   O  GCU B   1       2.929  15.318  31.2530  0.00  0.00     0.000 OA
ATOM     15   O  GCU B   1       2.317  14.115  32.9700  0.00  0.00     0.000 OA
ENDBRANCH 5 13
BRANCH 1 16
ATOM     16  O3  NAG B   2       6.012  11.419  31.7910  0.00  0.00     0.000 O
BRANCH 16 19
ATOM     17  C1  NAG B   2       9.573  11.811  30.6100  0.00  0.00     0.000 C
ATOM     18  C2  NAG B   2       8.164  11.234  30.6550  0.00  0.00     0.000 C
ATOM     19  C3  NAG B   2       7.285  12.054  31.5980  0.00  0.00     0.000 C
ATOM     20  C4  NAG B   2       7.958  12.196  32.9630  0.00  0.00     0.000 C
ATOM     21  C5  NAG B   2       9.351  12.783  32.7940  0.00  0.00     0.000 C
ATOM     22  O5  NAG B   2      10.118  11.922  31.9340  0.00  0.00     0.000 O
ATOM     23   O  NAG B   2       7.138  13.034  33.7850  0.00  0.00     0.000 O
ATOM     25  HD  NAG B   2       7.197  12.199  34.0080  0.00  0.00     0.000 HD
ATOM     25   C  NAG B   2      10.079  12.969  34.1230  0.00  0.00     0.000 C
ATOM     26   O  NAG B   2      10.510  11.714  34.6720  0.00  0.00     0.000 O
ATOM     28  HD  NAG B   2      10.569  10.879  34.8940  0.00  0.00     0.000 HD
BRANCH 18 30
ATOM     28   N  NAG B   2       7.902  11.143  29.2310  0.00  0.00     0.000 N
ATOM     30  HD  NAG B   2       7.599  10.391  29.5360  0.00  0.00     0.000 HD
ATOM     30   C  NAG B   2       7.432  10.045  28.6270  0.00  0.00     0.000 C
ATOM     31   C  NAG B   2       7.255  10.092  27.1350  0.00  0.00     0.000 C
ATOM     32   O  NAG B   2       7.156   9.039  29.2510  0.00  0.00     0.000 OA
ENDBRANCH 18 30
BRANCH 17 33
ATOM     33  O4  GCU B   3      10.358  10.975  29.7360  0.00  0.00     0.000 O
BRANCH 33 37
ATOM     34  C1  GCU B   3      13.964  11.713  27.7900  0.00  0.00     0.000 C
ATOM     35  C2  GCU B   3      14.026  11.196  29.2280  0.00  0.00     0.000 C
ATOM     36  C3  GCU B   3      12.690  10.594  29.6090  0.00  0.00     0.000 C
ATOM     37  C4  GCU B   3      11.585  11.615  29.3800  0.00  0.00     0.000 C
ATOM     38  C5  GCU B   3      11.599  12.070  27.9190  0.00  0.00     0.000 C
ATOM     39  O5  GCU B   3      12.882  12.634  27.6300  0.00  0.00     0.000 O
ATOM     40   O  GCU B   3      15.058  10.212  29.3230  0.00  0.00     0.000 O
ATOM     42  HD  GCU B   3      15.214   9.409  29.6090  0.00  0.00     0.000 HD
ATOM     42   O  GCU B   3      12.689  10.162  30.9810  0.00  0.00     0.000 O
ATOM     44  HD  GCU B   3      12.845   9.360  31.2670  0.00  0.00     0.000 HD
BRANCH 38 44
ATOM     44   C  GCU B   3      10.543  13.105  27.6220  0.00  0.00     0.000 C
ATOM     45   O  GCU B   3      10.777  14.290  27.9040  0.00  0.00     0.000 OA
ATOM     46   O  GCU B   3       9.467  12.757  27.1000  0.00  0.00     0.000 OA
ENDBRANCH 38 44
BRANCH 34 47
ATOM     47  O3  NAG B   4      15.060  12.416  27.5420  0.00  0.00     0.000 O
BRANCH 47 50
ATOM     48  C1  NAG B   4      16.981  10.950  24.7290  0.00  0.00     0.000 C
ATOM     49  C2  NAG B   4      15.757  11.372  25.5350  0.00  0.00     0.000 C
ATOM     50  C3  NAG B   4      16.111  12.420  26.5780  0.00  0.00     0.000 C
ATOM     51  C4  NAG B   4      17.449  12.163  27.2830  0.00  0.00     0.000 C
ATOM     52  C5  NAG B   4      18.598  12.133  26.2890  0.00  0.00     0.000 C
ATOM     53  O5  NAG B   4      18.302  11.423  25.0660  0.00  0.00     0.000 O
BRANCH 49 56
ATOM     54   N  NAG B   4      15.174  12.283  24.5350  0.00  0.00     0.000 N
ATOM     56  HD  NAG B   4      15.533  13.018  24.2500  0.00  0.00     0.000 HD
ATOM     56   C  NAG B   4      13.565  13.199  22.9660  0.00  0.00     0.000 C
ATOM     57   O  NAG B   4      13.068  11.436  24.4300  0.00  0.00     0.000 OA
ATOM     58   C  NAG B   4      13.917  12.229  24.0520  0.00  0.00     0.000 C
ENDBRANCH 49 56
ATOM     59   O  NAG B   4      21.044  11.802  26.2320  0.00  0.00     0.000 O
ATOM     61  HD  NAG B   4      20.249  11.465  26.1700  0.00  0.00     0.000 HD
ATOM     61   O  NAG B   4      21.044  11.802  26.2320  0.00  0.00     0.000 O
ATOM     63  HD  NAG B   4      20.249  11.465  26.1700  0.00  0.00     0.000 HD
ENDBRANCH 47 50
ENDBRANCH 34 47
ENDBRANCH 33 37
ENDBRANCH 17 33
ENDBRANCH 16 19
ENDBRANCH 1 16
TORSDOF 10
ENDMDL
MODEL 25
REMARK VINA RESULT:      -6.3     22.896     26.594
ROOT
ATOM      1  C1  GCU B   1      15.386  19.773  36.9130  0.00  0.00     0.000 C
ATOM      2  C2  GCU B   1      16.697  20.470  37.2400  0.00  0.00     0.000 C
ATOM      3  C3  GCU B   1      17.097  21.408  36.1120  0.00  0.00     0.000 C
ATOM      4  C4  GCU B   1      17.068  20.672  34.7810  0.00  0.00     0.000 C
ATOM      5  C5  GCU B   1      15.732  19.957  34.5770  0.00  0.00     0.000 C
ATOM      6  O5  GCU B   1      15.508  19.059  35.6720  0.00  0.00     0.000 O
ATOM      7   O  GCU B   1      16.513  21.191  38.4540  0.00  0.00     0.000 O
ATOM      9  HD  GCU B   1      17.016  21.143  39.1580  0.00  0.00     0.000 HD
ATOM      9   O  GCU B   1      18.403  21.944  36.3400  0.00  0.00     0.000 O
ATOM     11  HD  GCU B   1      18.905  21.897  37.0440  0.00  0.00     0.000 HD
ATOM     11   O  GCU B   1      17.278  21.614  33.7280  0.00  0.00     0.000 O
ATOM     13  HD  GCU B   1      17.781  21.566  34.4320  0.00  0.00     0.000 HD
ENDROOT
BRANCH 5 13
ATOM     13   C  GCU B   1      15.727  19.247  33.2440  0.00  0.00     0.000 C
ATOM     14   O  GCU B   1      16.783  19.127  32.5890  0.00  0.00     0.000 OA
ATOM     15   O  GCU B   1      14.645  18.772  32.8510  0.00  0.00     0.000 OA
ENDBRANCH 5 13
BRANCH 1 16
ATOM     16  O3  NAG B   2      14.955  18.595  37.3680  0.00  0.00     0.000 O
BRANCH 16 19
ATOM     17  C1  NAG B   2      11.285  17.869  37.8480  0.00  0.00     0.000 C
ATOM     18  C2  NAG B   2      12.558  18.705  37.8070  0.00  0.00     0.000 C
ATOM     19  C3  NAG B   2      13.715  17.882  37.2440  0.00  0.00     0.000 C
ATOM     20  C4  NAG B   2      13.847  16.562  38.0040  0.00  0.00     0.000 C
ATOM     21  C5  NAG B   2      12.522  15.815  37.9740  0.00  0.00     0.000 C
ATOM     22  O5  NAG B   2      11.506  16.644  38.5660  0.00  0.00     0.000 O
ATOM     23   O  NAG B   2      14.890  15.793  37.3930  0.00  0.00     0.000 O
ATOM     25  HD  NAG B   2      15.038  16.096  38.1910  0.00  0.00     0.000 HD
ATOM     25   C  NAG B   2      12.583  14.474  38.7020  0.00  0.00     0.000 C
ATOM     26   O  NAG B   2      12.629  14.645  40.1270  0.00  0.00     0.000 O
ATOM     28  HD  NAG B   2      12.777  14.948  40.9250  0.00  0.00     0.000 HD
BRANCH 18 30
ATOM     28   N  NAG B   2      12.305  20.034  38.3300  0.00  0.00     0.000 N
ATOM     30  HD  NAG B   2      12.292  20.154  37.4730  0.00  0.00     0.000 HD
ATOM     30   C  NAG B   2      12.231  21.134  37.5700  0.00  0.00     0.000 C
ATOM     31   C  NAG B   2      12.008  22.448  38.2650  0.00  0.00     0.000 C
ATOM     32   O  NAG B   2      12.341  21.085  36.3610  0.00  0.00     0.000 OA
ENDBRANCH 18 30
BRANCH 17 33
ATOM     33  O4  GCU B   3      10.244  18.687  38.4200  0.00  0.00     0.000 O
BRANCH 33 37
ATOM     34  C1  GCU B   3       6.109  18.381  38.0520  0.00  0.00     0.000 C
ATOM     35  C2  GCU B   3       6.760  17.751  39.2830  0.00  0.00     0.000 C
ATOM     36  C3  GCU B   3       8.153  18.315  39.4640  0.00  0.00     0.000 C
ATOM     37  C4  GCU B   3       8.956  18.115  38.1860  0.00  0.00     0.000 C
ATOM     38  C5  GCU B   3       8.231  18.779  37.0140  0.00  0.00     0.000 C
ATOM     39  O5  GCU B   3       6.929  18.196  36.8950  0.00  0.00     0.000 O
ATOM     40   O  GCU B   3       5.958  18.038  40.4300  0.00  0.00     0.000 O
ATOM     42  HD  GCU B   3       6.004  18.343  41.2390  0.00  0.00     0.000 HD
ATOM     42   O  GCU B   3       8.825  17.690  40.5730  0.00  0.00     0.000 O
ATOM     44  HD  GCU B   3       8.871  17.994  41.3820  0.00  0.00     0.000 HD
BRANCH 38 44
ATOM     44   C  GCU B   3       8.957  18.601  35.7040  0.00  0.00     0.000 C
ATOM     45   O  GCU B   3       8.910  17.494  35.1460  0.00  0.00     0.000 OA
ATOM     46   O  GCU B   3       9.582  19.558  35.2090  0.00  0.00     0.000 OA
ENDBRANCH 38 44
BRANCH 34 47
ATOM     47  O3  NAG B   4       4.982  17.735  37.7860  0.00  0.00     0.000 O
BRANCH 47 50
ATOM     48  C1  NAG B   4       1.974  17.403  35.6430  0.00  0.00     0.000 C
ATOM     49  C2  NAG B   4       3.010  18.089  36.5260  0.00  0.00     0.000 C
ATOM     50  C3  NAG B   4       4.284  17.268  36.6330  0.00  0.00     0.000 C
ATOM     51  C4  NAG B   4       4.038  15.760  36.7620  0.00  0.00     0.000 C
ATOM     52  C5  NAG B   4       3.273  15.222  35.5640  0.00  0.00     0.000 C
ATOM     53  O5  NAG B   4       2.192  16.074  35.1240  0.00  0.00     0.000 O
BRANCH 49 56
ATOM     54   N  NAG B   4       3.390  19.076  35.5000  0.00  0.00     0.000 N
ATOM     56  HD  NAG B   4       3.561  18.901  34.6690  0.00  0.00     0.000 HD
ATOM     56   C  NAG B   4       3.983  21.215  34.5190  0.00  0.00     0.000 C
ATOM     57   O  NAG B   4       3.808  20.870  36.8320  0.00  0.00     0.000 OA
ATOM     58   C  NAG B   4       3.724  20.363  35.7230  0.00  0.00     0.000 C
ENDBRANCH 49 56
ATOM     59   O  NAG B   4       2.339  13.102  34.7110  0.00  0.00     0.000 O
ATOM     61  HD  NAG B   4       2.226  13.836  35.1570  0.00  0.00     0.000 HD
ATOM     61   O  NAG B   4       2.339  13.102  34.7110  0.00  0.00     0.000 O
ATOM     63  HD  NAG B   4       2.226  13.836  35.1570  0.00  0.00     0.000 HD
ENDBRANCH 47 50
ENDBRANCH 34 47
ENDBRANCH 33 37
ENDBRANCH 17 33
ENDBRANCH 16 19
ENDBRANCH 1 16
TORSDOF 10
ENDMDL
MODEL 26
REMARK VINA RESULT:      -6.3      3.467      4.664
ROOT
ATOM      1  C1  GCU B   1      20.556  25.201   8.0300  0.00  0.00     0.000 C
ATOM      2  C2  GCU B   1      21.450  26.183   8.7730  0.00  0.00     0.000 C
ATOM      3  C3  GCU B   1      20.931  27.603   8.6080  0.00  0.00     0.000 C
ATOM      4  C4  GCU B   1      20.709  27.914   7.1360  0.00  0.00     0.000 C
ATOM      5  C5  GCU B   1      19.852  26.837   6.4690  0.00  0.00     0.000 C
ATOM      6  O5  GCU B   1      20.483  25.561   6.6410  0.00  0.00     0.000 O
ATOM      7   O  GCU B   1      21.459  25.805  10.1460  0.00  0.00     0.000 O
ATOM      9  HD  GCU B   1      22.162  25.669  10.6330  0.00  0.00     0.000 HD
ATOM      9   O  GCU B   1      21.851  28.543   9.1680  0.00  0.00     0.000 O
ATOM     11  HD  GCU B   1      22.554  28.407   9.6550  0.00  0.00     0.000 HD
ATOM     11   O  GCU B   1      20.064  29.183   7.0240  0.00  0.00     0.000 O
ATOM     13  HD  GCU B   1      20.767  29.047   7.5110  0.00  0.00     0.000 HD
ENDROOT
BRANCH 5 13
ATOM     13   C  GCU B   1      19.637  27.179   5.0140  0.00  0.00     0.000 C
ATOM     14   O  GCU B   1      20.305  28.084   4.4730  0.00  0.00     0.000 OA
ATOM     15   O  GCU B   1      18.797  26.507   4.3850  0.00  0.00     0.000 OA
ENDBRANCH 5 13
BRANCH 1 16
ATOM     16  O3  NAG B   2      20.892  24.005   7.5410  0.00  0.00     0.000 O
BRANCH 16 19
ATOM     17  C1  NAG B   2      19.579  20.558   8.3250  0.00  0.00     0.000 C
ATOM     18  C2  NAG B   2      20.180  21.929   8.6060  0.00  0.00     0.000 C
ATOM     19  C3  NAG B   2      20.167  22.782   7.3390  0.00  0.00     0.000 C
ATOM     20  C4  NAG B   2      20.822  22.027   6.1830  0.00  0.00     0.000 C
ATOM     21  C5  NAG B   2      20.139  20.680   5.9940  0.00  0.00     0.000 C
ATOM     22  O5  NAG B   2      20.243  19.930   7.2170  0.00  0.00     0.000 O
ATOM     23   O  NAG B   2      20.718  22.831   5.0020  0.00  0.00     0.000 O
ATOM     25  HD  NAG B   2      21.510  22.715   5.3320  0.00  0.00     0.000 HD
ATOM     25   C  NAG B   2      20.732  19.874   4.8400  0.00  0.00     0.000 C
ATOM     26   O  NAG B   2      22.024  19.344   5.1730  0.00  0.00     0.000 O
ATOM     28  HD  NAG B   2      22.816  19.227   5.5030  0.00  0.00     0.000 HD
BRANCH 18 30
ATOM     28   N  NAG B   2      19.432  22.190   9.8210  0.00  0.00     0.000 N
ATOM     30  HD  NAG B   2      20.204  22.547   9.9840  0.00  0.00     0.000 HD
ATOM     30   C  NAG B   2      19.964  22.735  10.9220  0.00  0.00     0.000 C
ATOM     31   C  NAG B   2      19.069  22.902  12.1190  0.00  0.00     0.000 C
ATOM     32   O  NAG B   2      21.126  23.083  10.9670  0.00  0.00     0.000 OA
ENDBRANCH 18 30
BRANCH 17 33
ATOM     33  O4  GCU B   3      19.652  19.792   9.5450  0.00  0.00     0.000 O
BRANCH 33 37
ATOM     34  C1  GCU B   3      18.045  16.084  10.5460  0.00  0.00     0.000 C
ATOM     35  C2  GCU B   3      19.216  16.108   9.5620  0.00  0.00     0.000 C
ATOM     36  C3  GCU B   3      19.924  17.443   9.6490  0.00  0.00     0.000 C
ATOM     37  C4  GCU B   3      18.924  18.568   9.4270  0.00  0.00     0.000 C
ATOM     38  C5  GCU B   3      17.795  18.464  10.4550  0.00  0.00     0.000 C
ATOM     39  O5  GCU B   3      17.165  17.187  10.3130  0.00  0.00     0.000 O
ATOM     40   O  GCU B   3      20.117  15.048   9.8880  0.00  0.00     0.000 O
ATOM     42  HD  GCU B   3      20.955  14.881  10.0310  0.00  0.00     0.000 HD
ATOM     42   O  GCU B   3      20.988  17.529   8.6840  0.00  0.00     0.000 O
ATOM     44  HD  GCU B   3      21.826  17.362   8.8280  0.00  0.00     0.000 HD
BRANCH 38 44
ATOM     44   C  GCU B   3      16.748  19.536  10.2800  0.00  0.00     0.000 C
ATOM     45   O  GCU B   3      16.242  19.693   9.1590  0.00  0.00     0.000 OA
ATOM     46   O  GCU B   3      16.411  20.235  11.2550  0.00  0.00     0.000 OA
ENDBRANCH 38 44
BRANCH 34 47
ATOM     47  O3  NAG B   4      17.315  15.002  10.3150  0.00  0.00     0.000 O
BRANCH 47 50
ATOM     48  C1  NAG B   4      14.089  13.314   9.6100  0.00  0.00     0.000 C
ATOM     49  C2  NAG B   4      15.103  14.163  10.3700  0.00  0.00     0.000 C
ATOM     50  C3  NAG B   4      16.233  14.625   9.4650  0.00  0.00     0.000 C
ATOM     51  C4  NAG B   4      16.710  13.555   8.4770  0.00  0.00     0.000 C
ATOM     52  C5  NAG B   4      15.580  13.104   7.5650  0.00  0.00     0.000 C
ATOM     53  O5  NAG B   4      14.316  12.921   8.2400  0.00  0.00     0.000 O
BRANCH 49 56
ATOM     54   N  NAG B   4      14.276  15.382  10.3840  0.00  0.00     0.000 N
ATOM     56  HD  NAG B   4      13.920  15.760   9.6900  0.00  0.00     0.000 HD
ATOM     56   C  NAG B   4      13.141  17.345  11.2510  0.00  0.00     0.000 C
ATOM     57   O  NAG B   4      14.668  16.085  12.5090  0.00  0.00     0.000 OA
ATOM     58   C  NAG B   4      14.105  16.212  11.4320  0.00  0.00     0.000 C
ENDBRANCH 49 56
ATOM     59   O  NAG B   4      15.154  11.523   5.7180  0.00  0.00     0.000 O
ATOM     61  HD  NAG B   4      15.148  11.689   6.5680  0.00  0.00     0.000 HD
ATOM     61   O  NAG B   4      15.154  11.523   5.7180  0.00  0.00     0.000 O
ATOM     63  HD  NAG B   4      15.148  11.689   6.5680  0.00  0.00     0.000 HD
ENDBRANCH 47 50
ENDBRANCH 34 47
ENDBRANCH 33 37
ENDBRANCH 17 33
ENDBRANCH 16 19
ENDBRANCH 1 16
TORSDOF 10
ENDMDL
MODEL 27
REMARK VINA RESULT:      -6.2     21.280     23.721
ROOT
ATOM      1  C1  GCU B   1      10.964  31.670  29.7260  0.00  0.00     0.000 C
ATOM      2  C2  GCU B   1      10.601  33.140  29.5850  0.00  0.00     0.000 C
ATOM      3  C3  GCU B   1      11.163  33.704  28.2900  0.00  0.00     0.000 C
ATOM      4  C4  GCU B   1      12.647  33.389  28.1790  0.00  0.00     0.000 C
ATOM      5  C5  GCU B   1      12.910  31.898  28.3970  0.00  0.00     0.000 C
ATOM      6  O5  GCU B   1      12.391  31.511  29.6760  0.00  0.00     0.000 O
ATOM      7   O  GCU B   1       9.181  33.239  29.6040  0.00  0.00     0.000 O
ATOM      9  HD  GCU B   1       8.711  33.755  30.1180  0.00  0.00     0.000 HD
ATOM      9   O  GCU B   1      10.963  35.119  28.2280  0.00  0.00     0.000 O
ATOM     11  HD  GCU B   1      10.494  35.635  28.7410  0.00  0.00     0.000 HD
ATOM     11   O  GCU B   1      13.106  33.777  26.8840  0.00  0.00     0.000 O
ATOM     13  HD  GCU B   1      12.637  34.293  27.3980  0.00  0.00     0.000 HD
ENDROOT
BRANCH 5 13
ATOM     13   C  GCU B   1      14.387  31.613  28.2680  0.00  0.00     0.000 C
ATOM     14   O  GCU B   1      15.081  31.405  29.2840  0.00  0.00     0.000 OA
ATOM     15   O  GCU B   1      14.865  31.568  27.1180  0.00  0.00     0.000 OA
ENDBRANCH 5 13
BRANCH 1 16
ATOM     16  O3  NAG B   2      11.083  30.966  30.8540  0.00  0.00     0.000 O
BRANCH 16 19
ATOM     17  C1  NAG B   2       9.129  28.189  32.4970  0.00  0.00     0.000 C
ATOM     18  C2  NAG B   2       9.394  29.584  31.9460  0.00  0.00     0.000 C
ATOM     19  C3  NAG B   2      10.737  29.621  31.2200  0.00  0.00     0.000 C
ATOM     20  C4  NAG B   2      11.844  29.073  32.1200  0.00  0.00     0.000 C
ATOM     21  C5  NAG B   2      11.473  27.679  32.6040  0.00  0.00     0.000 C
ATOM     22  O5  NAG B   2      10.225  27.751  33.3160  0.00  0.00     0.000 O
ATOM     23   O  NAG B   2      13.065  29.055  31.3730  0.00  0.00     0.000 O
ATOM     25  HD  NAG B   2      13.013  29.617  32.0290  0.00  0.00     0.000 HD
ATOM     25   C  NAG B   2      12.544  27.060  33.5000  0.00  0.00     0.000 C
ATOM     26   O  NAG B   2      12.567  27.671  34.7990  0.00  0.00     0.000 O
ATOM     28  HD  NAG B   2      12.515  28.233  35.4560  0.00  0.00     0.000 HD
BRANCH 18 30
ATOM     28   N  NAG B   2       8.057  29.752  31.4080  0.00  0.00     0.000 N
ATOM     30  HD  NAG B   2       8.293  30.561  31.6070  0.00  0.00     0.000 HD
ATOM     30   C  NAG B   2       7.394  30.915  31.4050  0.00  0.00     0.000 C
ATOM     31   C  NAG B   2       5.997  30.919  30.8520  0.00  0.00     0.000 C
ATOM     32   O  NAG B   2       7.892  31.937  31.8340  0.00  0.00     0.000 OA
ENDBRANCH 18 30
BRANCH 17 33
ATOM     33  O4  GCU B   3       7.870  28.228  33.1990  0.00  0.00     0.000 O
BRANCH 33 37
ATOM     34  C1  GCU B   3       5.341  25.156  34.4230  0.00  0.00     0.000 C
ATOM     35  C2  GCU B   3       6.503  25.529  35.3450  0.00  0.00     0.000 C
ATOM     36  C3  GCU B   3       7.032  26.896  34.9660  0.00  0.00     0.000 C
ATOM     37  C4  GCU B   3       7.403  26.910  33.4900  0.00  0.00     0.000 C
ATOM     38  C5  GCU B   3       6.182  26.529  32.6490  0.00  0.00     0.000 C
ATOM     39  O5  GCU B   3       5.741  25.228  33.0510  0.00  0.00     0.000 O
ATOM     40   O  GCU B   3       6.039  25.536  36.6960  0.00  0.00     0.000 O
ATOM     42  HD  GCU B   3       6.032  26.018  37.4160  0.00  0.00     0.000 HD
ATOM     42   O  GCU B   3       8.174  27.250  35.7670  0.00  0.00     0.000 O
ATOM     44  HD  GCU B   3       8.168  27.732  36.4860  0.00  0.00     0.000 HD
BRANCH 38 44
ATOM     44   C  GCU B   3       6.481  26.497  31.1710  0.00  0.00     0.000 C
ATOM     45   O  GCU B   3       6.047  27.414  30.4580  0.00  0.00     0.000 OA
ATOM     46   O  GCU B   3       7.154  25.562  30.6970  0.00  0.00     0.000 OA
ENDBRANCH 38 44
BRANCH 34 47
ATOM     47  O3  NAG B   4       5.026  23.885  34.6270  0.00  0.00     0.000 O
BRANCH 47 50
ATOM     48  C1  NAG B   4       2.490  22.340  36.8490  0.00  0.00     0.000 C
ATOM     49  C2  NAG B   4       3.430  23.414  36.3100  0.00  0.00     0.000 C
ATOM     50  C3  NAG B   4       3.848  23.121  34.8780  0.00  0.00     0.000 C
ATOM     51  C4  NAG B   4       4.134  21.639  34.6090  0.00  0.00     0.000 C
ATOM     52  C5  NAG B   4       2.911  20.782  34.8880  0.00  0.00     0.000 C
ATOM     53  O5  NAG B   4       2.194  21.151  36.0870  0.00  0.00     0.000 O
BRANCH 49 56
ATOM     54   N  NAG B   4       2.398  24.425  36.0210  0.00  0.00     0.000 N
ATOM     56  HD  NAG B   4       1.746  24.336  35.4570  0.00  0.00     0.000 HD
ATOM     56   C  NAG B   4       1.208  26.539  36.0990  0.00  0.00     0.000 C
ATOM     57   O  NAG B   4       3.325  26.223  37.0560  0.00  0.00     0.000 OA
ATOM     58   C  NAG B   4       2.411  25.710  36.4280  0.00  0.00     0.000 C
ENDBRANCH 49 56
ATOM     59   O  NAG B   4       2.208  18.416  34.8450  0.00  0.00     0.000 O
ATOM     61  HD  NAG B   4       2.529  19.086  35.2910  0.00  0.00     0.000 HD
ATOM     61   O  NAG B   4       2.208  18.416  34.8450  0.00  0.00     0.000 O
ATOM     63  HD  NAG B   4       2.529  19.086  35.2910  0.00  0.00     0.000 HD
ENDBRANCH 47 50
ENDBRANCH 34 47
ENDBRANCH 33 37
ENDBRANCH 17 33
ENDBRANCH 16 19
ENDBRANCH 1 16
TORSDOF 10
ENDMDL
MODEL 28
REMARK VINA RESULT:      -6.2     21.322     24.810
ROOT
ATOM      1  C1  GCU B   1      14.284  26.357  34.2420  0.00  0.00     0.000 C
ATOM      2  C2  GCU B   1      15.787  26.517  34.0770  0.00  0.00     0.000 C
ATOM      3  C3  GCU B   1      16.433  25.178  33.7590  0.00  0.00     0.000 C
ATOM      4  C4  GCU B   1      16.002  24.132  34.7740  0.00  0.00     0.000 C
ATOM      5  C5  GCU B   1      14.478  24.093  34.9100  0.00  0.00     0.000 C
ATOM      6  O5  GCU B   1      14.006  25.397  35.2740  0.00  0.00     0.000 O
ATOM      7   O  GCU B   1      16.009  27.448  33.0220  0.00  0.00     0.000 O
ATOM      9  HD  GCU B   1      16.507  28.155  33.0610  0.00  0.00     0.000 HD
ATOM      9   O  GCU B   1      17.859  25.293  33.7590  0.00  0.00     0.000 O
ATOM     11  HD  GCU B   1      18.357  26.000  33.7980  0.00  0.00     0.000 HD
ATOM     11   O  GCU B   1      16.482  22.854  34.3540  0.00  0.00     0.000 O
ATOM     13  HD  GCU B   1      16.980  23.561  34.3930  0.00  0.00     0.000 HD
ENDROOT
BRANCH 5 13
ATOM     13   C  GCU B   1      14.079  23.037  35.9130  0.00  0.00     0.000 C
ATOM     14   O  GCU B   1      14.922  22.565  36.7030  0.00  0.00     0.000 OA
ATOM     15   O  GCU B   1      12.883  22.689  35.9340  0.00  0.00     0.000 OA
ENDBRANCH 5 13
BRANCH 1 16
ATOM     16  O3  NAG B   2      13.457  27.127  34.9530  0.00  0.00     0.000 O
BRANCH 16 19
ATOM     17  C1  NAG B   2      10.099  28.499  33.9210  0.00  0.00     0.000 C
ATOM     18  C2  NAG B   2      11.580  28.166  33.7920  0.00  0.00     0.000 C
ATOM     19  C3  NAG B   2      12.031  27.297  34.9640  0.00  0.00     0.000 C
ATOM     20  C4  NAG B   2      11.640  27.947  36.2910  0.00  0.00     0.000 C
ATOM     21  C5  NAG B   2      10.145  28.229  36.3060  0.00  0.00     0.000 C
ATOM     22  O5  NAG B   2       9.822  29.091  35.2000  0.00  0.00     0.000 O
ATOM     23   O  NAG B   2      12.013  27.063  37.3540  0.00  0.00     0.000 O
ATOM     25  HD  NAG B   2      12.450  27.807  37.2880  0.00  0.00     0.000 HD
ATOM     25   C  NAG B   2       9.677  28.867  37.6120  0.00  0.00     0.000 C
ATOM     26   O  NAG B   2      10.091  30.238  37.7110  0.00  0.00     0.000 O
ATOM     28  HD  NAG B   2      10.529  30.982  37.6450  0.00  0.00     0.000 HD
BRANCH 18 30
ATOM     28   N  NAG B   2      11.524  27.791  32.3920  0.00  0.00     0.000 N
ATOM     30  HD  NAG B   2      12.308  28.152  32.4680  0.00  0.00     0.000 HD
ATOM     30   C  NAG B   2      12.466  28.111  31.4950  0.00  0.00     0.000 C
ATOM     31   C  NAG B   2      12.243  27.689  30.0700  0.00  0.00     0.000 C
ATOM     32   O  NAG B   2      13.467  28.723  31.8090  0.00  0.00     0.000 OA
ENDBRANCH 18 30
BRANCH 17 33
ATOM     33  O4  GCU B   3       9.745  29.347  32.8100  0.00  0.00     0.000 O
BRANCH 33 37
ATOM     34  C1  GCU B   3       6.068  29.920  30.9430  0.00  0.00     0.000 C
ATOM     35  C2  GCU B   3       6.459  30.895  32.0540  0.00  0.00     0.000 C
ATOM     36  C3  GCU B   3       7.950  30.805  32.3060  0.00  0.00     0.000 C
ATOM     37  C4  GCU B   3       8.331  29.362  32.6050  0.00  0.00     0.000 C
ATOM     38  C5  GCU B   3       7.904  28.465  31.4420  0.00  0.00     0.000 C
ATOM     39  O5  GCU B   3       6.490  28.591  31.2640  0.00  0.00     0.000 O
ATOM     40   O  GCU B   3       6.105  32.220  31.6530  0.00  0.00     0.000 O
ATOM     42  HD  GCU B   3       6.422  33.024  31.5880  0.00  0.00     0.000 HD
ATOM     42   O  GCU B   3       8.343  31.657  33.3960  0.00  0.00     0.000 O
ATOM     44  HD  GCU B   3       8.660  32.461  33.3310  0.00  0.00     0.000 HD
BRANCH 38 44
ATOM     44   C  GCU B   3       8.228  27.011  31.6790  0.00  0.00     0.000 C
ATOM     45   O  GCU B   3       7.560  26.382  32.5140  0.00  0.00     0.000 OA
ATOM     46   O  GCU B   3       9.150  26.471  31.0380  0.00  0.00     0.000 OA
ENDBRANCH 38 44
BRANCH 34 47
ATOM     47  O3  NAG B   4       4.746  29.858  30.8750  0.00  0.00     0.000 O
BRANCH 47 50
ATOM     48  C1  NAG B   4       1.223  29.953  29.7200  0.00  0.00     0.000 C
ATOM     49  C2  NAG B   4       2.414  30.193  30.6410  0.00  0.00     0.000 C
ATOM     50  C3  NAG B   4       3.732  30.066  29.8940  0.00  0.00     0.000 C
ATOM     51  C4  NAG B   4       3.759  28.914  28.8820  0.00  0.00     0.000 C
ATOM     52  C5  NAG B   4       2.676  29.081  27.8290  0.00  0.00     0.000 C
ATOM     53  O5  NAG B   4       1.405  29.522  28.3550  0.00  0.00     0.000 O
BRANCH 49 56
ATOM     54   N  NAG B   4       2.177  31.647  30.6830  0.00  0.00     0.000 N
ATOM     56  HD  NAG B   4       1.890  32.131  30.0250  0.00  0.00     0.000 HD
ATOM     56   C  NAG B   4       2.120  33.912  31.5520  0.00  0.00     0.000 C
ATOM     57   O  NAG B   4       3.193  32.142  32.6550  0.00  0.00     0.000 OA
ATOM     58   C  NAG B   4       2.551  32.482  31.6720  0.00  0.00     0.000 C
ENDBRANCH 49 56
ATOM     59   O  NAG B   4       1.783  27.933  25.8340  0.00  0.00     0.000 O
ATOM     61  HD  NAG B   4       1.750  28.067  26.6890  0.00  0.00     0.000 HD
ATOM     61   O  NAG B   4       1.783  27.933  25.8340  0.00  0.00     0.000 O
ATOM     63  HD  NAG B   4       1.750  28.067  26.6890  0.00  0.00     0.000 HD
ENDBRANCH 47 50
ENDBRANCH 34 47
ENDBRANCH 33 37
ENDBRANCH 17 33
ENDBRANCH 16 19
ENDBRANCH 1 16
TORSDOF 10
ENDMDL
MODEL 29
REMARK VINA RESULT:      -6.2     31.103     34.940
ROOT
ATOM      1  C1  GCU B   1       9.072  56.667   4.4500  0.00  0.00     0.000 C
ATOM      2  C2  GCU B   1       8.892  57.940   3.6370  0.00  0.00     0.000 C
ATOM      3  C3  GCU B   1       9.088  57.657   2.1560  0.00  0.00     0.000 C
ATOM      4  C4  GCU B   1      10.402  56.926   1.9300  0.00  0.00     0.000 C
ATOM      5  C5  GCU B   1      10.511  55.698   2.8360  0.00  0.00     0.000 C
ATOM      6  O5  GCU B   1      10.374  56.110   4.2030  0.00  0.00     0.000 O
ATOM      7   O  GCU B   1       7.578  58.430   3.8880  0.00  0.00     0.000 O
ATOM      9  HD  GCU B   1       7.372  59.233   4.1380  0.00  0.00     0.000 HD
ATOM      9   O  GCU B   1       9.077  58.875   1.4050  0.00  0.00     0.000 O
ATOM     11  HD  GCU B   1       8.870  59.677   1.6560  0.00  0.00     0.000 HD
ATOM     11   O  GCU B   1      10.477  56.524   0.5620  0.00  0.00     0.000 O
ATOM     13  HD  GCU B   1      10.271  57.327   0.8120  0.00  0.00     0.000 HD
ENDROOT
BRANCH 5 13
ATOM     13   C  GCU B   1      11.817  54.985   2.5810  0.00  0.00     0.000 C
ATOM     14   O  GCU B   1      12.022  54.416   1.4890  0.00  0.00     0.000 OA
ATOM     15   O  GCU B   1      12.674  55.016   3.4840  0.00  0.00     0.000 OA
ENDBRANCH 5 13
BRANCH 1 16
ATOM     16  O3  NAG B   2       9.443  56.563   5.7280  0.00  0.00     0.000 O
BRANCH 16 19
ATOM     17  C1  NAG B   2       7.868  54.858   8.7010  0.00  0.00     0.000 C
ATOM     18  C2  NAG B   2       7.964  55.813   7.5180  0.00  0.00     0.000 C
ATOM     19  C3  NAG B   2       9.249  55.556   6.7330  0.00  0.00     0.000 C
ATOM     20  C4  NAG B   2      10.458  55.580   7.6690  0.00  0.00     0.000 C
ATOM     21  C5  NAG B   2      10.251  54.587   8.8040  0.00  0.00     0.000 C
ATOM     22  O5  NAG B   2       9.049  54.936   9.5140  0.00  0.00     0.000 O
ATOM     23   O  NAG B   2      11.626  55.258   6.9050  0.00  0.00     0.000 O
ATOM     25  HD  NAG B   2      11.562  56.067   7.2080  0.00  0.00     0.000 HD
ATOM     25   C  NAG B   2      11.430  54.545   9.7730  0.00  0.00     0.000 C
ATOM     26   O  NAG B   2      11.478  55.716  10.6020  0.00  0.00     0.000 O
ATOM     28  HD  NAG B   2      11.415  56.525  10.9050  0.00  0.00     0.000 HD
BRANCH 18 30
ATOM     28   N  NAG B   2       6.568  55.643   7.1620  0.00  0.00     0.000 N
ATOM     30  HD  NAG B   2       6.759  56.427   6.8460  0.00  0.00     0.000 HD
ATOM     30   C  NAG B   2       5.818  56.602   6.6050  0.00  0.00     0.000 C
ATOM     31   C  NAG B   2       4.373  56.287   6.3350  0.00  0.00     0.000 C
ATOM     32   O  NAG B   2       6.275  57.692   6.3260  0.00  0.00     0.000 OA
ENDBRANCH 18 30
BRANCH 17 33
ATOM     33  O4  GCU B   3       6.658  55.174   9.4180  0.00  0.00     0.000 O
BRANCH 33 37
ATOM     34  C1  GCU B   3       4.427  52.851  12.0570  0.00  0.00     0.000 C
ATOM     35  C2  GCU B   3       5.471  53.797  12.6520  0.00  0.00     0.000 C
ATOM     36  C3  GCU B   3       5.861  54.835  11.6210  0.00  0.00     0.000 C
ATOM     37  C4  GCU B   3       6.328  54.141  10.3490  0.00  0.00     0.000 C
ATOM     38  C5  GCU B   3       5.222  53.222   9.8280  0.00  0.00     0.000 C
ATOM     39  O5  GCU B   3       4.909  52.264  10.8450  0.00  0.00     0.000 O
ATOM     40   O  GCU B   3       4.916  54.432  13.8060  0.00  0.00     0.000 O
ATOM     42  HD  GCU B   3       4.803  55.208  14.1730  0.00  0.00     0.000 HD
ATOM     42   O  GCU B   3       6.896  55.700  12.1230  0.00  0.00     0.000 O
ATOM     44  HD  GCU B   3       6.783  56.476  12.4890  0.00  0.00     0.000 HD
BRANCH 38 44
ATOM     44   C  GCU B   3       5.624  52.478   8.5790  0.00  0.00     0.000 C
ATOM     45   O  GCU B   3       5.176  52.864   7.4890  0.00  0.00     0.000 OA
ATOM     46   O  GCU B   3       6.394  51.502   8.6620  0.00  0.00     0.000 OA
ENDBRANCH 38 44
BRANCH 34 47
ATOM     47  O3  NAG B   4       4.249  51.834  12.8890  0.00  0.00     0.000 O
BRANCH 47 50
ATOM     48  C1  NAG B   4       1.703  50.792  15.3760  0.00  0.00     0.000 C
ATOM     49  C2  NAG B   4       2.542  51.740  14.5260  0.00  0.00     0.000 C
ATOM     50  C3  NAG B   4       3.167  51.022  13.3410  0.00  0.00     0.000 C
ATOM     51  C4  NAG B   4       3.687  49.619  13.6720  0.00  0.00     0.000 C
ATOM     52  C5  NAG B   4       2.570  48.724  14.1830  0.00  0.00     0.000 C
ATOM     53  O5  NAG B   4       1.669  49.374  15.1070  0.00  0.00     0.000 O
BRANCH 49 56
ATOM     54   N  NAG B   4       1.409  52.378  13.8330  0.00  0.00     0.000 N
ATOM     56  HD  NAG B   4       0.816  51.969  13.3530  0.00  0.00     0.000 HD
ATOM     56   C  NAG B   4      -0.050  54.135  13.0130  0.00  0.00     0.000 C
ATOM     57   O  NAG B   4       2.019  54.558  14.0320  0.00  0.00     0.000 OA
ATOM     58   C  NAG B   4       1.226  53.703  13.6670  0.00  0.00     0.000 C
ENDBRANCH 49 56
ATOM     59   O  NAG B   4       2.213  46.422  15.0000  0.00  0.00     0.000 O
ATOM     61  HD  NAG B   4       2.381  47.253  15.1760  0.00  0.00     0.000 HD
ATOM     61   O  NAG B   4       2.213  46.422  15.0000  0.00  0.00     0.000 O
ATOM     63  HD  NAG B   4       2.381  47.253  15.1760  0.00  0.00     0.000 HD
ENDBRANCH 47 50
ENDBRANCH 34 47
ENDBRANCH 33 37
ENDBRANCH 17 33
ENDBRANCH 16 19
ENDBRANCH 1 16
TORSDOF 10
ENDMDL
MODEL 30
REMARK VINA RESULT:      -6.2     17.224     22.872
ROOT
ATOM      1  C1  GCU B   1      19.178  47.014   8.1020  0.00  0.00     0.000 C
ATOM      2  C2  GCU B   1      18.869  48.470   7.7890  0.00  0.00     0.000 C
ATOM      3  C3  GCU B   1      18.370  48.612   6.3590  0.00  0.00     0.000 C
ATOM      4  C4  GCU B   1      19.332  47.932   5.3970  0.00  0.00     0.000 C
ATOM      5  C5  GCU B   1      19.624  46.495   5.8350  0.00  0.00     0.000 C
ATOM      6  O5  GCU B   1      20.147  46.508   7.1700  0.00  0.00     0.000 O
ATOM      7   O  GCU B   1      17.881  48.912   8.7140  0.00  0.00     0.000 O
ATOM      9  HD  GCU B   1      17.928  49.617   9.2140  0.00  0.00     0.000 HD
ATOM      9   O  GCU B   1      18.230  49.991   6.0090  0.00  0.00     0.000 O
ATOM     11  HD  GCU B   1      18.277  50.697   6.5090  0.00  0.00     0.000 HD
ATOM     11   O  GCU B   1      18.754  47.931   4.0910  0.00  0.00     0.000 O
ATOM     13  HD  GCU B   1      18.802  48.637   4.5910  0.00  0.00     0.000 HD
ENDROOT
BRANCH 5 13
ATOM     13   C  GCU B   1      20.568  45.842   4.8550  0.00  0.00     0.000 C
ATOM     14   O  GCU B   1      20.193  45.582   3.6930  0.00  0.00     0.000 OA
ATOM     15   O  GCU B   1      21.728  45.605   5.2460  0.00  0.00     0.000 OA
ENDBRANCH 5 13
BRANCH 1 16
ATOM     16  O3  NAG B   2      20.036  46.542   9.0090  0.00  0.00     0.000 O
BRANCH 16 19
ATOM     17  C1  NAG B   2      19.696  44.565  12.2030  0.00  0.00     0.000 C
ATOM     18  C2  NAG B   2      19.514  45.743  11.2550  0.00  0.00     0.000 C
ATOM     19  C3  NAG B   2      20.034  45.387   9.8630  0.00  0.00     0.000 C
ATOM     20  C4  NAG B   2      21.465  44.857   9.9490  0.00  0.00     0.000 C
ATOM     21  C5  NAG B   2      21.523  43.685  10.9180  0.00  0.00     0.000 C
ATOM     22  O5  NAG B   2      21.064  44.124  12.2080  0.00  0.00     0.000 O
ATOM     23   O  NAG B   2      21.880  44.465   8.6350  0.00  0.00     0.000 O
ATOM     25  HD  NAG B   2      22.272  45.154   8.9850  0.00  0.00     0.000 HD
ATOM     25   C  NAG B   2      22.924  43.090  11.0420  0.00  0.00     0.000 C
ATOM     26   O  NAG B   2      23.800  43.949  11.7900  0.00  0.00     0.000 O
ATOM     28  HD  NAG B   2      24.192  44.638  12.1390  0.00  0.00     0.000 HD
BRANCH 18 30
ATOM     28   N  NAG B   2      18.857  46.754  12.0600  0.00  0.00     0.000 N
ATOM     30  HD  NAG B   2      18.252  46.541  11.4790  0.00  0.00     0.000 HD
ATOM     30   C  NAG B   2      17.649  47.260  11.7830  0.00  0.00     0.000 C
ATOM     31   C  NAG B   2      17.120  48.337  12.6890  0.00  0.00     0.000 C
ATOM     32   O  NAG B   2      16.995  46.874  10.8350  0.00  0.00     0.000 OA
ENDBRANCH 18 30
BRANCH 17 33
ATOM     33  O4  GCU B   3      19.223  44.974  13.5020  0.00  0.00     0.000 O
BRANCH 33 37
ATOM     34  C1  GCU B   3      17.658  42.760  16.6610  0.00  0.00     0.000 C
ATOM     35  C2  GCU B   3      19.177  42.767  16.4840  0.00  0.00     0.000 C
ATOM     36  C3  GCU B   3      19.577  43.925  15.5940  0.00  0.00     0.000 C
ATOM     37  C4  GCU B   3      18.815  43.847  14.2790  0.00  0.00     0.000 C
ATOM     38  C5  GCU B   3      17.310  43.847  14.5550  0.00  0.00     0.000 C
ATOM     39  O5  GCU B   3      17.000  42.727  15.3920  0.00  0.00     0.000 O
ATOM     40   O  GCU B   3      19.793  42.894  17.7670  0.00  0.00     0.000 O
ATOM     42  HD  GCU B   3      20.391  43.350  18.1970  0.00  0.00     0.000 HD
ATOM     42   O  GCU B   3      20.995  43.921  15.3450  0.00  0.00     0.000 O
ATOM     44  HD  GCU B   3      21.592  44.376  15.7760  0.00  0.00     0.000 HD
BRANCH 38 44
ATOM     44   C  GCU B   3      16.487  43.745  13.2960  0.00  0.00     0.000 C
ATOM     45   O  GCU B   3      15.726  44.681  13.0070  0.00  0.00     0.000 OA
ATOM     46   O  GCU B   3      16.586  42.735  12.5730  0.00  0.00     0.000 OA
ENDBRANCH 38 44
BRANCH 34 47
ATOM     47  O3  NAG B   4      17.305  41.633  17.2650  0.00  0.00     0.000 O
BRANCH 47 50
ATOM     48  C1  NAG B   4      14.983  38.859  18.0810  0.00  0.00     0.000 C
ATOM     49  C2  NAG B   4      15.519  40.286  18.0390  0.00  0.00     0.000 C
ATOM     50  C3  NAG B   4      16.562  40.458  16.9460  0.00  0.00     0.000 C
ATOM     51  C4  NAG B   4      17.521  39.269  16.8150  0.00  0.00     0.000 C
ATOM     52  C5  NAG B   4      16.769  37.987  16.5000  0.00  0.00     0.000 C
ATOM     53  O5  NAG B   4      15.546  37.821  17.2510  0.00  0.00     0.000 O
BRANCH 49 56
ATOM     54   N  NAG B   4      14.535  41.112  17.3180  0.00  0.00     0.000 N
ATOM     56  HD  NAG B   4      14.645  41.458  16.5310  0.00  0.00     0.000 HD
ATOM     56   C  NAG B   4      12.496  42.357  16.8910  0.00  0.00     0.000 C
ATOM     57   O  NAG B   4      13.064  41.512  19.0040  0.00  0.00     0.000 OA
ATOM     58   C  NAG B   4      13.401  41.625  17.8340  0.00  0.00     0.000 C
ENDBRANCH 49 56
ATOM     59   O  NAG B   4      17.199  35.587  16.1120  0.00  0.00     0.000 O
ATOM     61  HD  NAG B   4      17.000  36.224  16.6630  0.00  0.00     0.000 HD
ATOM     61   O  NAG B   4      17.199  35.587  16.1120  0.00  0.00     0.000 O
ATOM     63  HD  NAG B   4      17.000  36.224  16.6630  0.00  0.00     0.000 HD
ENDBRANCH 47 50
ENDBRANCH 34 47
ENDBRANCH 33 37
ENDBRANCH 17 33
ENDBRANCH 16 19
ENDBRANCH 1 16
TORSDOF 10
ENDMDL
MODEL 31
REMARK VINA RESULT:      -6.2     10.986     17.413
ROOT
ATOM      1  C1  GCU B   1      15.510  42.235  16.4360  0.00  0.00     0.000 C
ATOM      2  C2  GCU B   1      14.337  43.068  16.9300  0.00  0.00     0.000 C
ATOM      3  C3  GCU B   1      13.416  43.427  15.7750  0.00  0.00     0.000 C
ATOM      4  C4  GCU B   1      14.215  44.043  14.6370  0.00  0.00     0.000 C
ATOM      5  C5  GCU B   1      15.404  43.159  14.2580  0.00  0.00     0.000 C
ATOM      6  O5  GCU B   1      16.224  42.952  15.4160  0.00  0.00     0.000 O
ATOM      7   O  GCU B   1      13.644  42.301  17.9090  0.00  0.00     0.000 O
ATOM      9  HD  GCU B   1      13.435  42.561  18.7090  0.00  0.00     0.000 HD
ATOM      9   O  GCU B   1      12.402  44.339  16.2040  0.00  0.00     0.000 O
ATOM     11  HD  GCU B   1      12.193  44.599  17.0030  0.00  0.00     0.000 HD
ATOM     11   O  GCU B   1      13.357  44.210  13.5080  0.00  0.00     0.000 O
ATOM     13  HD  GCU B   1      13.149  44.470  14.3070  0.00  0.00     0.000 HD
ENDROOT
BRANCH 5 13
ATOM     13   C  GCU B   1      16.170  43.788  13.1190  0.00  0.00     0.000 C
ATOM     14   O  GCU B   1      16.732  43.072  12.2650  0.00  0.00     0.000 OA
ATOM     15   O  GCU B   1      16.189  45.032  13.0580  0.00  0.00     0.000 OA
ENDBRANCH 5 13
BRANCH 1 16
ATOM     16  O3  NAG B   2      16.721  42.127  16.9880  0.00  0.00     0.000 O
BRANCH 16 19
ATOM     17  C1  NAG B   2      18.909  39.105  17.5420  0.00  0.00     0.000 C
ATOM     18  C2  NAG B   2      17.651  39.960  17.6160  0.00  0.00     0.000 C
ATOM     19  C3  NAG B   2      17.822  41.229  16.7830  0.00  0.00     0.000 C
ATOM     20  C4  NAG B   2      19.108  41.956  17.1780  0.00  0.00     0.000 C
ATOM     21  C5  NAG B   2      20.293  41.008  17.0610  0.00  0.00     0.000 C
ATOM     22  O5  NAG B   2      20.066  39.872  17.9140  0.00  0.00     0.000 O
ATOM     23   O  NAG B   2      19.266  43.092  16.3210  0.00  0.00     0.000 O
ATOM     25  HD  NAG B   2      19.096  43.248  17.1560  0.00  0.00     0.000 HD
ATOM     25   C  NAG B   2      21.618  41.673  17.4270  0.00  0.00     0.000 C
ATOM     26   O  NAG B   2      21.733  41.885  18.8420  0.00  0.00     0.000 O
ATOM     28  HD  NAG B   2      21.563  42.041  19.6770  0.00  0.00     0.000 HD
BRANCH 18 30
ATOM     28   N  NAG B   2      16.743  39.180  18.4350  0.00  0.00     0.000 N
ATOM     30  HD  NAG B   2      16.359  39.179  17.6590  0.00  0.00     0.000 HD
ATOM     30   C  NAG B   2      15.552  38.737  18.0140  0.00  0.00     0.000 C
ATOM     31   C  NAG B   2      14.704  37.978  18.9960  0.00  0.00     0.000 C
ATOM     32   O  NAG B   2      15.157  38.937  16.8830  0.00  0.00     0.000 OA
ENDBRANCH 18 30
BRANCH 17 33
ATOM     33  O4  GCU B   3      18.699  37.947  18.3730  0.00  0.00     0.000 O
BRANCH 33 37
ATOM     34  C1  GCU B   3      19.791  33.967  17.8210  0.00  0.00     0.000 C
ATOM     35  C2  GCU B   3      20.832  34.912  18.4210  0.00  0.00     0.000 C
ATOM     36  C3  GCU B   3      20.148  36.161  18.9340  0.00  0.00     0.000 C
ATOM     37  C4  GCU B   3      19.331  36.793  17.8160  0.00  0.00     0.000 C
ATOM     38  C5  GCU B   3      18.318  35.778  17.2820  0.00  0.00     0.000 C
ATOM     39  O5  GCU B   3      19.030  34.631  16.8070  0.00  0.00     0.000 O
ATOM     40   O  GCU B   3      21.504  34.242  19.4900  0.00  0.00     0.000 O
ATOM     42  HD  GCU B   3      21.741  34.339  20.3170  0.00  0.00     0.000 HD
ATOM     42   O  GCU B   3      21.107  37.106  19.4410  0.00  0.00     0.000 O
ATOM     44  HD  GCU B   3      21.344  37.203  20.2690  0.00  0.00     0.000 HD
BRANCH 38 44
ATOM     44   C  GCU B   3      17.487  36.327  16.1500  0.00  0.00     0.000 C
ATOM     45   O  GCU B   3      16.284  36.028  16.0980  0.00  0.00     0.000 OA
ATOM     46   O  GCU B   3      18.015  37.065  15.2970  0.00  0.00     0.000 OA
ENDBRANCH 38 44
BRANCH 34 47
ATOM     47  O3  NAG B   4      20.418  32.982  17.1950  0.00  0.00     0.000 O
BRANCH 47 50
ATOM     48  C1  NAG B   4      21.013  29.658  15.6600  0.00  0.00     0.000 C
ATOM     49  C2  NAG B   4      20.933  30.713  16.7590  0.00  0.00     0.000 C
ATOM     50  C3  NAG B   4      20.077  31.896  16.3350  0.00  0.00     0.000 C
ATOM     51  C4  NAG B   4      20.285  32.317  14.8760  0.00  0.00     0.000 C
ATOM     52  C5  NAG B   4      19.957  31.180  13.9220  0.00  0.00     0.000 C
ATOM     53  O5  NAG B   4      20.441  29.889  14.3550  0.00  0.00     0.000 O
BRANCH 49 56
ATOM     54   N  NAG B   4      19.907  30.147  17.6520  0.00  0.00     0.000 N
ATOM     56  HD  NAG B   4      19.051  30.246  17.5650  0.00  0.00     0.000 HD
ATOM     56   C  NAG B   4      18.945  28.969  19.5440  0.00  0.00     0.000 C
ATOM     57   O  NAG B   4      21.229  29.471  19.3730  0.00  0.00     0.000 OA
ATOM     58   C  NAG B   4      20.130  29.562  18.8460  0.00  0.00     0.000 C
ENDBRANCH 49 56
ATOM     59   O  NAG B   4      19.932  30.685  11.5040  0.00  0.00     0.000 O
ATOM     61  HD  NAG B   4      20.355  30.670  12.2590  0.00  0.00     0.000 HD
ATOM     61   O  NAG B   4      19.932  30.685  11.5040  0.00  0.00     0.000 O
ATOM     63  HD  NAG B   4      20.355  30.670  12.2590  0.00  0.00     0.000 HD
ENDBRANCH 47 50
ENDBRANCH 34 47
ENDBRANCH 33 37
ENDBRANCH 17 33
ENDBRANCH 16 19
ENDBRANCH 1 16
TORSDOF 10
ENDMDL
MODEL 32
REMARK VINA RESULT:      -6.1     13.646     21.316
ROOT
ATOM      1  C1  GCU B   1      18.102  33.944  18.0960  0.00  0.00     0.000 C
ATOM      2  C2  GCU B   1      18.635  32.636  17.5330  0.00  0.00     0.000 C
ATOM      3  C3  GCU B   1      17.749  31.474  17.9570  0.00  0.00     0.000 C
ATOM      4  C4  GCU B   1      17.540  31.495  19.4630  0.00  0.00     0.000 C
ATOM      5  C5  GCU B   1      17.062  32.870  19.9330  0.00  0.00     0.000 C
ATOM      6  O5  GCU B   1      18.015  33.862  19.5270  0.00  0.00     0.000 O
ATOM      7   O  GCU B   1      18.667  32.755  16.1150  0.00  0.00     0.000 O
ATOM      9  HD  GCU B   1      19.349  32.599  15.6040  0.00  0.00     0.000 HD
ATOM      9   O  GCU B   1      18.331  30.228  17.5660  0.00  0.00     0.000 O
ATOM     11  HD  GCU B   1      19.013  30.071  17.0560  0.00  0.00     0.000 HD
ATOM     11   O  GCU B   1      16.572  30.503  19.8080  0.00  0.00     0.000 O
ATOM     13  HD  GCU B   1      17.253  30.347  19.2970  0.00  0.00     0.000 HD
ENDROOT
BRANCH 5 13
ATOM     13   C  GCU B   1      16.849  32.857  21.4270  0.00  0.00     0.000 C
ATOM     14   O  GCU B   1      15.848  33.410  21.9270  0.00  0.00     0.000 OA
ATOM     15   O  GCU B   1      17.691  32.255  22.1220  0.00  0.00     0.000 OA
ENDBRANCH 5 13
BRANCH 1 16
ATOM     16  O3  NAG B   2      18.790  35.058  18.3580  0.00  0.00     0.000 O
BRANCH 16 19
ATOM     17  C1  NAG B   2      17.368  38.546  18.5540  0.00  0.00     0.000 C
ATOM     18  C2  NAG B   2      17.572  37.142  18.0000  0.00  0.00     0.000 C
ATOM     19  C3  NAG B   2      18.439  36.318  18.9500  0.00  0.00     0.000 C
ATOM     20  C4  NAG B   2      19.732  37.067  19.2750  0.00  0.00     0.000 C
ATOM     21  C5  NAG B   2      19.404  38.448  19.8220  0.00  0.00     0.000 C
ATOM     22  O5  NAG B   2      18.631  39.166  18.8430  0.00  0.00     0.000 O
ATOM     23   O  NAG B   2      20.473  36.294  20.2250  0.00  0.00     0.000 O
ATOM     25  HD  NAG B   2      20.806  36.366  19.4290  0.00  0.00     0.000 HD
ATOM     25   C  NAG B   2      20.652  39.251  20.1850  0.00  0.00     0.000 C
ATOM     26   O  NAG B   2      21.345  39.711  19.0150  0.00  0.00     0.000 O
ATOM     28  HD  NAG B   2      21.678  39.783  18.2190  0.00  0.00     0.000 HD
BRANCH 18 30
ATOM     28   N  NAG B   2      16.184  36.851  17.6930  0.00  0.00     0.000 N
ATOM     30  HD  NAG B   2      16.611  36.502  17.0250  0.00  0.00     0.000 HD
ATOM     30   C  NAG B   2      15.774  36.296  16.5460  0.00  0.00     0.000 C
ATOM     31   C  NAG B   2      14.296  36.098  16.3580  0.00  0.00     0.000 C
ATOM     32   O  NAG B   2      16.557  35.963  15.6790  0.00  0.00     0.000 OA
ENDBRANCH 18 30
BRANCH 17 33
ATOM     33  O4  GCU B   3      16.576  39.281  17.5980  0.00  0.00     0.000 O
BRANCH 33 37
ATOM     34  C1  GCU B   3      14.353  42.769  18.0650  0.00  0.00     0.000 C
ATOM     35  C2  GCU B   3      15.803  42.909  17.6000  0.00  0.00     0.000 C
ATOM     36  C3  GCU B   3      16.301  41.575  17.0860  0.00  0.00     0.000 C
ATOM     37  C4  GCU B   3      16.108  40.510  18.1560  0.00  0.00     0.000 C
ATOM     38  C5  GCU B   3      14.633  40.441  18.5550  0.00  0.00     0.000 C
ATOM     39  O5  GCU B   3      14.231  41.727  19.0380  0.00  0.00     0.000 O
ATOM     40   O  GCU B   3      15.865  43.892  16.5650  0.00  0.00     0.000 O
ATOM     42  HD  GCU B   3      16.172  44.027  15.7670  0.00  0.00     0.000 HD
ATOM     42   O  GCU B   3      17.687  41.651  16.7070  0.00  0.00     0.000 O
ATOM     44  HD  GCU B   3      17.993  41.786  15.9080  0.00  0.00     0.000 HD
BRANCH 38 44
ATOM     44   C  GCU B   3      14.368  39.421  19.6340  0.00  0.00     0.000 C
ATOM     45   O  GCU B   3      14.161  38.245  19.3010  0.00  0.00     0.000 OA
ATOM     46   O  GCU B   3      14.366  39.773  20.8290  0.00  0.00     0.000 OA
ENDBRANCH 38 44
BRANCH 34 47
ATOM     47  O3  NAG B   4      13.999  43.879  18.6980  0.00  0.00     0.000 O
BRANCH 47 50
ATOM     48  C1  NAG B   4      10.587  45.125  19.4480  0.00  0.00     0.000 C
ATOM     49  C2  NAG B   4      11.946  44.484  19.7090  0.00  0.00     0.000 C
ATOM     50  C3  NAG B   4      12.949  44.842  18.6250  0.00  0.00     0.000 C
ATOM     51  C4  NAG B   4      12.357  44.844  17.2120  0.00  0.00     0.000 C
ATOM     52  C5  NAG B   4      11.215  45.841  17.0940  0.00  0.00     0.000 C
ATOM     53  O5  NAG B   4      10.321  45.850  18.2290  0.00  0.00     0.000 O
BRANCH 49 56
ATOM     54   N  NAG B   4      12.546  45.387  20.7060  0.00  0.00     0.000 N
ATOM     56  HD  NAG B   4      13.021  46.090  20.5310  0.00  0.00     0.000 HD
ATOM     56   C  NAG B   4      13.193  46.264  22.8750  0.00  0.00     0.000 C
ATOM     57   O  NAG B   4      12.249  44.138  22.5820  0.00  0.00     0.000 OA
ATOM     58   C  NAG B   4      12.625  45.163  22.0330  0.00  0.00     0.000 C
ENDBRANCH 49 56
ATOM     59   O  NAG B   4       9.585  46.665  15.4330  0.00  0.00     0.000 O
ATOM     61  HD  NAG B   4       9.777  46.114  16.0740  0.00  0.00     0.000 HD
ATOM     61   O  NAG B   4       9.585  46.665  15.4330  0.00  0.00     0.000 O
ATOM     63  HD  NAG B   4       9.777  46.114  16.0740  0.00  0.00     0.000 HD
ENDBRANCH 47 50
ENDBRANCH 34 47
ENDBRANCH 33 37
ENDBRANCH 17 33
ENDBRANCH 16 19
ENDBRANCH 1 16
TORSDOF 10
ENDMDL
MODEL 33
REMARK VINA RESULT:      -6.1     24.610     30.019
ROOT
ATOM      1  C1  GCU B   1      13.045  46.975  15.1220  0.00  0.00     0.000 C
ATOM      2  C2  GCU B   1      13.781  46.007  16.0350  0.00  0.00     0.000 C
ATOM      3  C3  GCU B   1      12.816  44.988  16.6200  0.00  0.00     0.000 C
ATOM      4  C4  GCU B   1      11.624  45.693  17.2490  0.00  0.00     0.000 C
ATOM      5  C5  GCU B   1      10.994  46.686  16.2710  0.00  0.00     0.000 C
ATOM      6  O5  GCU B   1      11.990  47.626  15.8490  0.00  0.00     0.000 O
ATOM      7   O  GCU B   1      14.788  45.363  15.2610  0.00  0.00     0.000 O
ATOM      9  HD  GCU B   1      15.629  45.307  15.4610  0.00  0.00     0.000 HD
ATOM      9   O  GCU B   1      13.471  44.177  17.5990  0.00  0.00     0.000 O
ATOM     11  HD  GCU B   1      14.312  44.122  17.7990  0.00  0.00     0.000 HD
ATOM     11   O  GCU B   1      10.659  44.714  17.6340  0.00  0.00     0.000 O
ATOM     13  HD  GCU B   1      11.499  44.658  17.8340  0.00  0.00     0.000 HD
ENDROOT
BRANCH 5 13
ATOM     13   C  GCU B   1       9.807  47.360  16.9170  0.00  0.00     0.000 C
ATOM     14   O  GCU B   1       9.945  48.450  17.5090  0.00  0.00     0.000 OA
ATOM     15   O  GCU B   1       8.699  46.800  16.8080  0.00  0.00     0.000 OA
ENDBRANCH 5 13
BRANCH 1 16
ATOM     16  O3  NAG B   2      13.392  48.226  14.8120  0.00  0.00     0.000 O
BRANCH 16 19
ATOM     17  C1  NAG B   2      14.188  49.824  11.4900  0.00  0.00     0.000 C
ATOM     18  C2  NAG B   2      14.300  48.815  12.6260  0.00  0.00     0.000 C
ATOM     19  C3  NAG B   2      13.192  49.047  13.6520  0.00  0.00     0.000 C
ATOM     20  C4  NAG B   2      13.179  50.508  14.1000  0.00  0.00     0.000 C
ATOM     21  C5  NAG B   2      13.060  51.419  12.8860  0.00  0.00     0.000 C
ATOM     22  O5  NAG B   2      14.168  51.166  12.0040  0.00  0.00     0.000 O
ATOM     23   O  NAG B   2      12.079  50.695  14.9980  0.00  0.00     0.000 O
ATOM     25  HD  NAG B   2      12.876  50.754  15.3320  0.00  0.00     0.000 HD
ATOM     25   C  NAG B   2      13.024  52.899  13.2600  0.00  0.00     0.000 C
ATOM     26   O  NAG B   2      14.314  53.372  13.6790  0.00  0.00     0.000 O
ATOM     28  HD  NAG B   2      15.111  53.431  14.0120  0.00  0.00     0.000 HD
BRANCH 18 30
ATOM     28   N  NAG B   2      15.431  47.918  12.4790  0.00  0.00     0.000 N
ATOM     30  HD  NAG B   2      14.775  47.467  12.1390  0.00  0.00     0.000 HD
ATOM     30   C  NAG B   2      15.331  46.658  12.0390  0.00  0.00     0.000 C
ATOM     31   C  NAG B   2      16.589  45.837  11.9850  0.00  0.00     0.000 C
ATOM     32   O  NAG B   2      14.268  46.182  11.6950  0.00  0.00     0.000 OA
ENDBRANCH 18 30
BRANCH 17 33
ATOM     33  O4  GCU B   3      15.278  49.578  10.5790  0.00  0.00     0.000 O
BRANCH 33 37
ATOM     34  C1  GCU B   3      16.087  51.128   6.8010  0.00  0.00     0.000 C
ATOM     35  C2  GCU B   3      16.366  52.022   8.0090  0.00  0.00     0.000 C
ATOM     36  C3  GCU B   3      16.425  51.175   9.2630  0.00  0.00     0.000 C
ATOM     37  C4  GCU B   3      15.144  50.364   9.3940  0.00  0.00     0.000 C
ATOM     38  C5  GCU B   3      14.951  49.502   8.1440  0.00  0.00     0.000 C
ATOM     39  O5  GCU B   3      14.895  50.362   7.0020  0.00  0.00     0.000 O
ATOM     40   O  GCU B   3      17.610  52.697   7.8090  0.00  0.00     0.000 O
ATOM     42  HD  GCU B   3      18.364  52.871   8.1970  0.00  0.00     0.000 HD
ATOM     42   O  GCU B   3      16.614  51.994  10.4320  0.00  0.00     0.000 O
ATOM     44  HD  GCU B   3      17.369  52.168  10.8190  0.00  0.00     0.000 HD
BRANCH 38 44
ATOM     44   C  GCU B   3      13.684  48.686   8.1910  0.00  0.00     0.000 C
ATOM     45   O  GCU B   3      12.870  48.800   7.2620  0.00  0.00     0.000 OA
ATOM     46   O  GCU B   3      13.479  47.917   9.1490  0.00  0.00     0.000 OA
ENDBRANCH 38 44
BRANCH 34 47
ATOM     47  O3  NAG B   4      15.833  51.896   5.7500  0.00  0.00     0.000 O
BRANCH 47 50
ATOM     48  C1  NAG B   4      15.167  52.411   2.1390  0.00  0.00     0.000 C
ATOM     49  C2  NAG B   4      15.932  51.984   3.3870  0.00  0.00     0.000 C
ATOM     50  C3  NAG B   4      15.009  51.849   4.5870  0.00  0.00     0.000 C
ATOM     51  C4  NAG B   4      13.943  52.947   4.6740  0.00  0.00     0.000 C
ATOM     52  C5  NAG B   4      13.055  52.951   3.4410  0.00  0.00     0.000 C
ATOM     53  O5  NAG B   4      13.769  52.763   2.1990  0.00  0.00     0.000 O
BRANCH 49 56
ATOM     54   N  NAG B   4      16.101  50.526   3.2560  0.00  0.00     0.000 N
ATOM     56  HD  NAG B   4      15.614  49.924   3.6420  0.00  0.00     0.000 HD
ATOM     56   C  NAG B   4      17.068  48.407   2.5740  0.00  0.00     0.000 C
ATOM     57   O  NAG B   4      18.134  50.469   2.2410  0.00  0.00     0.000 OA
ATOM     58   C  NAG B   4      17.149  49.899   2.6840  0.00  0.00     0.000 C
ENDBRANCH 49 56
ATOM     59   O  NAG B   4      11.140  54.187   2.4910  0.00  0.00     0.000 O
ATOM     61  HD  NAG B   4      11.997  54.085   2.5560  0.00  0.00     0.000 HD
ATOM     61   O  NAG B   4      11.140  54.187   2.4910  0.00  0.00     0.000 O
ATOM     63  HD  NAG B   4      11.997  54.085   2.5560  0.00  0.00     0.000 HD
ENDBRANCH 47 50
ENDBRANCH 34 47
ENDBRANCH 33 37
ENDBRANCH 17 33
ENDBRANCH 16 19
ENDBRANCH 1 16
TORSDOF 10
ENDMDL
MODEL 34
REMARK VINA RESULT:      -6.1     14.663     21.423
ROOT
ATOM      1  C1  GCU B   1      11.656  11.527  22.1890  0.00  0.00     0.000 C
ATOM      2  C2  GCU B   1      12.316  11.407  20.8240  0.00  0.00     0.000 C
ATOM      3  C3  GCU B   1      11.687  12.382  19.8410  0.00  0.00     0.000 C
ATOM      4  C4  GCU B   1      10.174  12.229  19.8450  0.00  0.00     0.000 C
ATOM      5  C5  GCU B   1       9.617  12.303  21.2680  0.00  0.00     0.000 C
ATOM      6  O5  GCU B   1      10.243  11.294  22.0710  0.00  0.00     0.000 O
ATOM      7   O  GCU B   1      13.704  11.682  20.9890  0.00  0.00     0.000 O
ATOM      9  HD  GCU B   1      14.359  11.182  20.7230  0.00  0.00     0.000 HD
ATOM      9   O  GCU B   1      12.192  12.163  18.5220  0.00  0.00     0.000 O
ATOM     11  HD  GCU B   1      12.847  11.663  18.2550  0.00  0.00     0.000 HD
ATOM     11   O  GCU B   1       9.603  13.266  19.0470  0.00  0.00     0.000 O
ATOM     13  HD  GCU B   1      10.258  12.766  18.7810  0.00  0.00     0.000 HD
ENDROOT
BRANCH 5 13
ATOM     13   C  GCU B   1       8.114  12.162  21.2390  0.00  0.00     0.000 C
ATOM     14   O  GCU B   1       7.561  11.472  20.3580  0.00  0.00     0.000 OA
ATOM     15   O  GCU B   1       7.467  12.734  22.1380  0.00  0.00     0.000 OA
ENDBRANCH 5 13
BRANCH 1 16
ATOM     16  O3  NAG B   2      11.572  10.591  23.1380  0.00  0.00     0.000 O
BRANCH 16 19
ATOM     17  C1  NAG B   2      10.931  10.602  26.8550  0.00  0.00     0.000 C
ATOM     18  C2  NAG B   2      11.670  10.900  25.5560  0.00  0.00     0.000 C
ATOM     19  C3  NAG B   2      10.820  10.486  24.3560  0.00  0.00     0.000 C
ATOM     20  C4  NAG B   2      10.358   9.036  24.5060  0.00  0.00     0.000 C
ATOM     21  C5  NAG B   2       9.633   8.860  25.8320  0.00  0.00     0.000 C
ATOM     22  O5  NAG B   2      10.523   9.225  26.9020  0.00  0.00     0.000 O
ATOM     23   O  NAG B   2       9.504   8.719  23.4010  0.00  0.00     0.000 O
ATOM     25  HD  NAG B   2      10.273   8.322  23.4330  0.00  0.00     0.000 HD
ATOM     25   C  NAG B   2       9.127   7.435  26.0440  0.00  0.00     0.000 C
ATOM     26   O  NAG B   2      10.202   6.529  26.3370  0.00  0.00     0.000 O
ATOM     28  HD  NAG B   2      10.971   6.131  26.3680  0.00  0.00     0.000 HD
BRANCH 18 30
ATOM     28   N  NAG B   2      12.487  11.872  26.2570  0.00  0.00     0.000 N
ATOM     30  HD  NAG B   2      12.586  12.094  25.4260  0.00  0.00     0.000 HD
ATOM     30   C  NAG B   2      13.276  12.763  25.6450  0.00  0.00     0.000 C
ATOM     31   C  NAG B   2      14.098  13.676  26.5120  0.00  0.00     0.000 C
ATOM     32   O  NAG B   2      13.338  12.839  24.4350  0.00  0.00     0.000 OA
ENDBRANCH 18 30
BRANCH 17 33
ATOM     33  O4  GCU B   3      11.796  10.979  27.9450  0.00  0.00     0.000 O
BRANCH 33 37
ATOM     34  C1  GCU B   3      10.920  11.955  31.8960  0.00  0.00     0.000 C
ATOM     35  C2  GCU B   3      11.097  10.476  31.5520  0.00  0.00     0.000 C
ATOM     36  C3  GCU B   3      11.812  10.345  30.2250  0.00  0.00     0.000 C
ATOM     37  C4  GCU B   3      11.058  11.127  29.1590  0.00  0.00     0.000 C
ATOM     38  C5  GCU B   3      10.933  12.591  29.5860  0.00  0.00     0.000 C
ATOM     39  O5  GCU B   3      10.243  12.642  30.8390  0.00  0.00     0.000 O
ATOM     40   O  GCU B   3      11.857   9.848  32.5870  0.00  0.00     0.000 O
ATOM     42  HD  GCU B   3      12.542   9.335  32.7180  0.00  0.00     0.000 HD
ATOM     42   O  GCU B   3      11.932   8.965  29.8340  0.00  0.00     0.000 O
ATOM     44  HD  GCU B   3      12.617   8.453  29.9650  0.00  0.00     0.000 HD
BRANCH 38 44
ATOM     44   C  GCU B   3      10.172  13.426  28.5870  0.00  0.00     0.000 C
ATOM     45   O  GCU B   3       8.932  13.423  28.6330  0.00  0.00     0.000 OA
ATOM     46   O  GCU B   3      10.794  14.099  27.7430  0.00  0.00     0.000 OA
ENDBRANCH 38 44
BRANCH 34 47
ATOM     47  O3  NAG B   4      10.117  12.057  32.9460  0.00  0.00     0.000 O
BRANCH 47 50
ATOM     48  C1  NAG B   4       9.471  12.604  36.5570  0.00  0.00     0.000 C
ATOM     49  C2  NAG B   4      10.034  11.933  35.3080  0.00  0.00     0.000 C
ATOM     50  C3  NAG B   4      10.010  12.871  34.1120  0.00  0.00     0.000 C
ATOM     51  C4  NAG B   4       8.739  13.724  34.0230  0.00  0.00     0.000 C
ATOM     52  C5  NAG B   4       8.570  14.592  35.2590  0.00  0.00     0.000 C
ATOM     53  O5  NAG B   4       8.875  13.917  36.4990  0.00  0.00     0.000 O
BRANCH 49 56
ATOM     54   N  NAG B   4      11.470  12.080  35.6080  0.00  0.00     0.000 N
ATOM     56  HD  NAG B   4      11.914  12.823  35.6050  0.00  0.00     0.000 HD
ATOM     56   C  NAG B   4      13.752  11.449  36.1410  0.00  0.00     0.000 C
ATOM     57   O  NAG B   4      12.092   9.894  35.5690  0.00  0.00     0.000 OA
ATOM     58   C  NAG B   4      12.358  11.075  35.7380  0.00  0.00     0.000 C
ENDBRANCH 49 56
ATOM     59   O  NAG B   4       7.007  16.251  36.2070  0.00  0.00     0.000 O
ATOM     61  HD  NAG B   4       7.261  15.426  36.1400  0.00  0.00     0.000 HD
ATOM     61   O  NAG B   4       7.007  16.251  36.2070  0.00  0.00     0.000 O
ATOM     63  HD  NAG B   4       7.261  15.426  36.1400  0.00  0.00     0.000 HD
ENDBRANCH 47 50
ENDBRANCH 34 47
ENDBRANCH 33 37
ENDBRANCH 17 33
ENDBRANCH 16 19
ENDBRANCH 1 16
TORSDOF 10
ENDMDL
MODEL 35
REMARK VINA RESULT:      -6.1     15.186     21.428
ROOT
ATOM      1  C1  GCU B   1       8.976  11.954  21.9130  0.00  0.00     0.000 C
ATOM      2  C2  GCU B   1       9.669  11.551  20.6210  0.00  0.00     0.000 C
ATOM      3  C3  GCU B   1       9.652  12.701  19.6270  0.00  0.00     0.000 C
ATOM      4  C4  GCU B   1       8.236  13.234  19.4640  0.00  0.00     0.000 C
ATOM      5  C5  GCU B   1       7.609  13.551  20.8230  0.00  0.00     0.000 C
ATOM      6  O5  GCU B   1       7.629  12.370  21.6370  0.00  0.00     0.000 O
ATOM      7   O  GCU B   1      11.007  11.183  20.9440  0.00  0.00     0.000 O
ATOM      9  HD  GCU B   1      11.401  10.444  20.7230  0.00  0.00     0.000 HD
ATOM      9   O  GCU B   1      10.158  12.279  18.3580  0.00  0.00     0.000 O
ATOM     11  HD  GCU B   1      10.552  11.540  18.1380  0.00  0.00     0.000 HD
ATOM     11   O  GCU B   1       8.277  14.415  18.6640  0.00  0.00     0.000 O
ATOM     13  HD  GCU B   1       8.671  13.677  18.4430  0.00  0.00     0.000 HD
ENDROOT
BRANCH 5 13
ATOM     13   C  GCU B   1       6.211  14.090  20.6300  0.00  0.00     0.000 C
ATOM     14   O  GCU B   1       5.636  13.973  19.5290  0.00  0.00     0.000 OA
ATOM     15   O  GCU B   1       5.661  14.621  21.6140  0.00  0.00     0.000 OA
ENDBRANCH 5 13
BRANCH 1 16
ATOM     16  O3  NAG B   2       8.380  11.154  22.8000  0.00  0.00     0.000 O
BRANCH 16 19
ATOM     17  C1  NAG B   2       9.162  10.644  26.4550  0.00  0.00     0.000 C
ATOM     18  C2  NAG B   2       9.439  10.748  24.9610  0.00  0.00     0.000 C
ATOM     19  C3  NAG B   2       8.190  11.224  24.2220  0.00  0.00     0.000 C
ATOM     20  C4  NAG B   2       6.990  10.349  24.5850  0.00  0.00     0.000 C
ATOM     21  C5  NAG B   2       6.809  10.324  26.0960  0.00  0.00     0.000 C
ATOM     22  O5  NAG B   2       8.012   9.818  26.7010  0.00  0.00     0.000 O
ATOM     23   O  NAG B   2       5.831  10.879  23.9330  0.00  0.00     0.000 O
ATOM     25  HD  NAG B   2       6.121  10.110  23.6590  0.00  0.00     0.000 HD
ATOM     25   C  NAG B   2       5.615   9.479  26.5340  0.00  0.00     0.000 C
ATOM     26   O  NAG B   2       5.878   8.075  26.3890  0.00  0.00     0.000 O
ATOM     28  HD  NAG B   2       6.168   7.306  26.1160  0.00  0.00     0.000 HD
BRANCH 18 30
ATOM     28   N  NAG B   2      10.682  11.490  25.0530  0.00  0.00     0.000 N
ATOM     30  HD  NAG B   2      10.828  10.941  24.4000  0.00  0.00     0.000 HD
ATOM     30   C  NAG B   2      11.777  11.204  24.3390  0.00  0.00     0.000 C
ATOM     31   C  NAG B   2      13.004  12.038  24.5790  0.00  0.00     0.000 C
ATOM     32   O  NAG B   2      11.793  10.303  23.5240  0.00  0.00     0.000 OA
ENDBRANCH 18 30
BRANCH 17 33
ATOM     33  O4  GCU B   3      10.362  10.157  27.0880  0.00  0.00     0.000 O
BRANCH 33 37
ATOM     34  C1  GCU B   3      11.706  10.598  31.0040  0.00  0.00     0.000 C
ATOM     35  C2  GCU B   3      10.873   9.358  30.6740  0.00  0.00     0.000 C
ATOM     36  C3  GCU B   3      10.845   9.151  29.1750  0.00  0.00     0.000 C
ATOM     37  C4  GCU B   3      10.342  10.415  28.4930  0.00  0.00     0.000 C
ATOM     38  C5  GCU B   3      11.234  11.597  28.8780  0.00  0.00     0.000 C
ATOM     39  O5  GCU B   3      11.209  11.742  30.3020  0.00  0.00     0.000 O
ATOM     40   O  GCU B   3      11.457   8.224  31.3200  0.00  0.00     0.000 O
ATOM     42  HD  GCU B   3      11.721   7.413  31.1710  0.00  0.00     0.000 HD
ATOM     42   O  GCU B   3      10.010   8.033  28.8230  0.00  0.00     0.000 O
ATOM     44  HD  GCU B   3      10.274   7.222  28.6750  0.00  0.00     0.000 HD
BRANCH 38 44
ATOM     44   C  GCU B   3      10.781  12.895  28.2580  0.00  0.00     0.000 C
ATOM     45   O  GCU B   3      11.503  13.429  27.4030  0.00  0.00     0.000 OA
ATOM     46   O  GCU B   3       9.698  13.402  28.6080  0.00  0.00     0.000 OA
ENDBRANCH 38 44
BRANCH 34 47
ATOM     47  O3  NAG B   4      11.553  10.886  32.2890  0.00  0.00     0.000 O
BRANCH 47 50
ATOM     48  C1  NAG B   4      13.338  10.938  35.5390  0.00  0.00     0.000 C
ATOM     49  C2  NAG B   4      12.913  10.420  34.1690  0.00  0.00     0.000 C
ATOM     50  C3  NAG B   4      12.304  11.524  33.3200  0.00  0.00     0.000 C
ATOM     51  C4  NAG B   4      11.389  12.472  34.1040  0.00  0.00     0.000 C
ATOM     52  C5  NAG B   4      12.142  13.157  35.2320  0.00  0.00     0.000 C
ATOM     53  O5  NAG B   4      13.036  12.285  35.9590  0.00  0.00     0.000 O
BRANCH 49 56
ATOM     54   N  NAG B   4      14.277  10.389  33.6140  0.00  0.00     0.000 N
ATOM     56  HD  NAG B   4      14.842  11.045  33.6240  0.00  0.00     0.000 HD
ATOM     56   C  NAG B   4      16.239   9.545  32.4610  0.00  0.00     0.000 C
ATOM     57   O  NAG B   4      14.166   8.448  32.4360  0.00  0.00     0.000 OA
ATOM     58   C  NAG B   4      14.794   9.419  32.8340  0.00  0.00     0.000 C
ENDBRANCH 49 56
ATOM     59   O  NAG B   4      11.756  14.768  37.0630  0.00  0.00     0.000 O
ATOM     61  HD  NAG B   4      11.788  13.946  36.7940  0.00  0.00     0.000 HD
ATOM     61   O  NAG B   4      11.756  14.768  37.0630  0.00  0.00     0.000 O
ATOM     63  HD  NAG B   4      11.788  13.946  36.7940  0.00  0.00     0.000 HD
ENDBRANCH 47 50
ENDBRANCH 34 47
ENDBRANCH 33 37
ENDBRANCH 17 33
ENDBRANCH 16 19
ENDBRANCH 1 16
TORSDOF 10
ENDMDL
MODEL 36
REMARK VINA RESULT:      -6.1      4.015      9.310
ROOT
ATOM      1  C1  GCU B   1      19.216  25.122  14.5620  0.00  0.00     0.000 C
ATOM      2  C2  GCU B   1      18.812  26.561  14.8430  0.00  0.00     0.000 C
ATOM      3  C3  GCU B   1      19.586  27.108  16.0330  0.00  0.00     0.000 C
ATOM      4  C4  GCU B   1      19.470  26.158  17.2160  0.00  0.00     0.000 C
ATOM      5  C5  GCU B   1      19.839  24.730  16.8130  0.00  0.00     0.000 C
ATOM      6  O5  GCU B   1      18.996  24.315  15.7290  0.00  0.00     0.000 O
ATOM      7   O  GCU B   1      19.083  27.324  13.6720  0.00  0.00     0.000 O
ATOM      9  HD  GCU B   1      18.526  27.843  13.2600  0.00  0.00     0.000 HD
ATOM      9   O  GCU B   1      19.098  28.400  16.4010  0.00  0.00     0.000 O
ATOM     11  HD  GCU B   1      18.540  28.919  15.9890  0.00  0.00     0.000 HD
ATOM     11   O  GCU B   1      20.341  26.608  18.2550  0.00  0.00     0.000 O
ATOM     13  HD  GCU B   1      19.783  27.127  17.8430  0.00  0.00     0.000 HD
ENDROOT
BRANCH 5 13
ATOM     13   C  GCU B   1      19.729  23.814  18.0080  0.00  0.00     0.000 C
ATOM     14   O  GCU B   1      20.514  22.853  18.1410  0.00  0.00     0.000 OA
ATOM     15   O  GCU B   1      18.851  24.076  18.8530  0.00  0.00     0.000 OA
ENDBRANCH 5 13
BRANCH 1 16
ATOM     16  O3  NAG B   2      18.490  24.176  13.9630  0.00  0.00     0.000 O
BRANCH 16 19
ATOM     17  C1  NAG B   2      19.138  21.978  10.9660  0.00  0.00     0.000 C
ATOM     18  C2  NAG B   2      18.972  23.276  11.7460  0.00  0.00     0.000 C
ATOM     19  C3  NAG B   2      18.828  22.983  13.2390  0.00  0.00     0.000 C
ATOM     20  C4  NAG B   2      17.722  21.954  13.4750  0.00  0.00     0.000 C
ATOM     21  C5  NAG B   2      17.996  20.704  12.6510  0.00  0.00     0.000 C
ATOM     22  O5  NAG B   2      18.066  21.069  11.2610  0.00  0.00     0.000 O
ATOM     23   O  NAG B   2      17.677  21.654  14.8740  0.00  0.00     0.000 O
ATOM     25  HD  NAG B   2      17.003  22.083  14.5400  0.00  0.00     0.000 HD
ATOM     25   C  NAG B   2      16.937  19.622  12.8490  0.00  0.00     0.000 C
ATOM     26   O  NAG B   2      15.702  19.964  12.2010  0.00  0.00     0.000 O
ATOM     28  HD  NAG B   2      15.028  20.393  11.8670  0.00  0.00     0.000 HD
BRANCH 18 30
ATOM     28   N  NAG B   2      19.026  24.355  10.7780  0.00  0.00     0.000 N
ATOM     30  HD  NAG B   2      19.781  24.426  11.1950  0.00  0.00     0.000 HD
ATOM     30   C  NAG B   2      20.003  25.269  10.7340  0.00  0.00     0.000 C
ATOM     31   C  NAG B   2      19.895  26.354   9.6990  0.00  0.00     0.000 C
ATOM     32   O  NAG B   2      20.946  25.236  11.4980  0.00  0.00     0.000 OA
ENDBRANCH 18 30
BRANCH 17 33
ATOM     33  O4  GCU B   3      19.232  22.319   9.5680  0.00  0.00     0.000 O
BRANCH 33 37
ATOM     34  C1  GCU B   3      21.251  20.460   6.4380  0.00  0.00     0.000 C
ATOM     35  C2  GCU B   3      20.097  19.697   7.0900  0.00  0.00     0.000 C
ATOM     36  C3  GCU B   3      19.236  20.660   7.8800  0.00  0.00     0.000 C
ATOM     37  C4  GCU B   3      20.100  21.419   8.8780  0.00  0.00     0.000 C
ATOM     38  C5  GCU B   3      21.221  22.149   8.1360  0.00  0.00     0.000 C
ATOM     39  O5  GCU B   3      21.998  21.184   7.4200  0.00  0.00     0.000 O
ATOM     40   O  GCU B   3      19.323  19.066   6.0680  0.00  0.00     0.000 O
ATOM     42  HD  GCU B   3      18.509  18.964   5.7900  0.00  0.00     0.000 HD
ATOM     42   O  GCU B   3      18.180  19.965   8.5680  0.00  0.00     0.000 O
ATOM     44  HD  GCU B   3      17.366  19.864   8.2900  0.00  0.00     0.000 HD
BRANCH 38 44
ATOM     44   C  GCU B   3      22.137  22.905   9.0660  0.00  0.00     0.000 C
ATOM     45   O  GCU B   3      22.457  22.379  10.1420  0.00  0.00     0.000 OA
ATOM     46   O  GCU B   3      22.555  24.033   8.7390  0.00  0.00     0.000 OA
ENDBRANCH 38 44
BRANCH 34 47
ATOM     47  O3  NAG B   4      22.106  19.585   5.9270  0.00  0.00     0.000 O
BRANCH 47 50
ATOM     48  C1  NAG B   4      22.855  20.284   2.3620  0.00  0.00     0.000 C
ATOM     49  C2  NAG B   4      22.775  20.535   3.8650  0.00  0.00     0.000 C
ATOM     50  C3  NAG B   4      22.611  19.237   4.6390  0.00  0.00     0.000 C
ATOM     51  C4  NAG B   4      21.659  18.237   3.9720  0.00  0.00     0.000 C
ATOM     52  C5  NAG B   4      22.145  17.856   2.5830  0.00  0.00     0.000 C
ATOM     53  O5  NAG B   4      22.648  18.967   1.8090  0.00  0.00     0.000 O
BRANCH 49 56
ATOM     54   N  NAG B   4      24.219  20.733   4.0800  0.00  0.00     0.000 N
ATOM     56  HD  NAG B   4      24.839  20.151   3.9170  0.00  0.00     0.000 HD
ATOM     56   C  NAG B   4      26.285  21.811   4.7580  0.00  0.00     0.000 C
ATOM     57   O  NAG B   4      24.163  22.646   5.3060  0.00  0.00     0.000 OA
ATOM     58   C  NAG B   4      24.788  21.759   4.7430  0.00  0.00     0.000 C
ENDBRANCH 49 56
ATOM     59   O  NAG B   4      21.487  16.443   0.6690  0.00  0.00     0.000 O
ATOM     61  HD  NAG B   4      21.474  17.216   1.0580  0.00  0.00     0.000 HD
ATOM     61   O  NAG B   4      21.487  16.443   0.6690  0.00  0.00     0.000 O
ATOM     63  HD  NAG B   4      21.474  17.216   1.0580  0.00  0.00     0.000 HD
ENDBRANCH 47 50
ENDBRANCH 34 47
ENDBRANCH 33 37
ENDBRANCH 17 33
ENDBRANCH 16 19
ENDBRANCH 1 16
TORSDOF 10
ENDMDL
MODEL 37
REMARK VINA RESULT:      -6.0     19.420     22.312
ROOT
ATOM      1  C1  GCU B   1      20.572  22.307  29.6990  0.00  0.00     0.000 C
ATOM      2  C2  GCU B   1      21.341  23.615  29.5920  0.00  0.00     0.000 C
ATOM      3  C3  GCU B   1      21.076  24.279  28.2500  0.00  0.00     0.000 C
ATOM      4  C4  GCU B   1      21.317  23.291  27.1190  0.00  0.00     0.000 C
ATOM      5  C5  GCU B   1      20.549  21.989  27.3530  0.00  0.00     0.000 C
ATOM      6  O5  GCU B   1      20.937  21.436  28.6170  0.00  0.00     0.000 O
ATOM      7   O  GCU B   1      20.918  24.454  30.6620  0.00  0.00     0.000 O
ATOM      9  HD  GCU B   1      21.433  24.853  31.2330  0.00  0.00     0.000 HD
ATOM      9   O  GCU B   1      21.916  25.423  28.0790  0.00  0.00     0.000 O
ATOM     11  HD  GCU B   1      22.431  25.822  28.6500  0.00  0.00     0.000 HD
ATOM     11   O  GCU B   1      20.898  23.886  25.8900  0.00  0.00     0.000 O
ATOM     13  HD  GCU B   1      21.413  24.284  26.4610  0.00  0.00     0.000 HD
ENDROOT
BRANCH 5 13
ATOM     13   C  GCU B   1      20.795  21.035  26.2090  0.00  0.00     0.000 C
ATOM     14   O  GCU B   1      20.321  21.268  25.0780  0.00  0.00     0.000 OA
ATOM     15   O  GCU B   1      21.505  20.037  26.4370  0.00  0.00     0.000 OA
ENDBRANCH 5 13
BRANCH 1 16
ATOM     16  O3  NAG B   2      20.874  21.245  30.4490  0.00  0.00     0.000 O
BRANCH 16 19
ATOM     17  C1  NAG B   2      18.901  19.496  33.1470  0.00  0.00     0.000 C
ATOM     18  C2  NAG B   2      19.569  20.660  32.4260  0.00  0.00     0.000 C
ATOM     19  C3  NAG B   2      20.086  20.212  31.0610  0.00  0.00     0.000 C
ATOM     20  C4  NAG B   2      20.963  18.968  31.2060  0.00  0.00     0.000 C
ATOM     21  C5  NAG B   2      20.192  17.876  31.9330  0.00  0.00     0.000 C
ATOM     22  O5  NAG B   2      19.790  18.370  33.2230  0.00  0.00     0.000 O
ATOM     23   O  NAG B   2      21.359  18.541  29.8980  0.00  0.00     0.000 O
ATOM     25  HD  NAG B   2      21.978  18.856  30.4150  0.00  0.00     0.000 HD
ATOM     25   C  NAG B   2      21.003  16.593  32.1010  0.00  0.00     0.000 C
ATOM     26   O  NAG B   2      22.031  16.741  33.0930  0.00  0.00     0.000 O
ATOM     28  HD  NAG B   2      22.650  17.056  33.6100  0.00  0.00     0.000 HD
BRANCH 18 30
ATOM     28   N  NAG B   2      18.515  21.626  32.6750  0.00  0.00     0.000 N
ATOM     30  HD  NAG B   2      19.236  22.105  32.7160  0.00  0.00     0.000 HD
ATOM     30   C  NAG B   2      18.737  22.901  33.0190  0.00  0.00     0.000 C
ATOM     31   C  NAG B   2      17.540  23.768  33.2880  0.00  0.00     0.000 C
ATOM     32   O  NAG B   2      19.861  23.352  33.1160  0.00  0.00     0.000 OA
ENDBRANCH 18 30
BRANCH 17 33
ATOM     33  O4  GCU B   3      18.469  19.973  34.4370  0.00  0.00     0.000 O
BRANCH 33 37
ATOM     34  C1  GCU B   3      15.619  18.460  37.0680  0.00  0.00     0.000 C
ATOM     35  C2  GCU B   3      17.046  17.924  37.1830  0.00  0.00     0.000 C
ATOM     36  C3  GCU B   3      17.999  18.863  36.4740  0.00  0.00     0.000 C
ATOM     37  C4  GCU B   3      17.543  19.064  35.0360  0.00  0.00     0.000 C
ATOM     38  C5  GCU B   3      16.111  19.603  35.0210  0.00  0.00     0.000 C
ATOM     39  O5  GCU B   3      15.265  18.667  35.6970  0.00  0.00     0.000 O
ATOM     40   O  GCU B   3      17.392  17.820  38.5660  0.00  0.00     0.000 O
ATOM     42  HD  GCU B   3      18.010  18.031  39.1350  0.00  0.00     0.000 HD
ATOM     42   O  GCU B   3      19.344  18.352  36.5000  0.00  0.00     0.000 O
ATOM     44  HD  GCU B   3      19.962  18.563  37.0690  0.00  0.00     0.000 HD
BRANCH 38 44
ATOM     44   C  GCU B   3      15.580  19.804  33.6240  0.00  0.00     0.000 C
ATOM     45   O  GCU B   3      15.420  20.963  33.2110  0.00  0.00     0.000 OA
ATOM     46   O  GCU B   3      15.317  18.815  32.9140  0.00  0.00     0.000 OA
ENDBRANCH 38 44
BRANCH 34 47
ATOM     47  O3  NAG B   4      14.778  17.534  37.5070  0.00  0.00     0.000 O
BRANCH 47 50
ATOM     48  C1  NAG B   4      12.330  18.964  39.8980  0.00  0.00     0.000 C
ATOM     49  C2  NAG B   4      13.116  18.817  38.6000  0.00  0.00     0.000 C
ATOM     50  C3  NAG B   4      13.735  17.435  38.4750  0.00  0.00     0.000 C
ATOM     51  C4  NAG B   4      14.310  16.895  39.7900  0.00  0.00     0.000 C
ATOM     52  C5  NAG B   4      13.236  16.795  40.8610  0.00  0.00     0.000 C
ATOM     53  O5  NAG B   4      12.337  17.926  40.9010  0.00  0.00     0.000 O
BRANCH 49 56
ATOM     54   N  NAG B   4      12.000  18.571  37.6700  0.00  0.00     0.000 N
ATOM     56  HD  NAG B   4      11.546  17.836  37.6080  0.00  0.00     0.000 HD
ATOM     56   C  NAG B   4      10.409  18.966  35.8800  0.00  0.00     0.000 C
ATOM     57   O  NAG B   4      12.233  20.376  36.3080  0.00  0.00     0.000 OA
ATOM     58   C  NAG B   4      11.638  19.361  36.6400  0.00  0.00     0.000 C
ENDBRANCH 49 56
ATOM     59   O  NAG B   4      12.976  16.133  43.2250  0.00  0.00     0.000 O
ATOM     61  HD  NAG B   4      13.121  16.757  42.6410  0.00  0.00     0.000 HD
ATOM     61   O  NAG B   4      12.976  16.133  43.2250  0.00  0.00     0.000 O
ATOM     63  HD  NAG B   4      13.121  16.757  42.6410  0.00  0.00     0.000 HD
ENDBRANCH 47 50
ENDBRANCH 34 47
ENDBRANCH 33 37
ENDBRANCH 17 33
ENDBRANCH 16 19
ENDBRANCH 1 16
TORSDOF 10
ENDMDL
MODEL 38
REMARK VINA RESULT:      -6.0     11.102     17.429
ROOT
ATOM      1  C1  GCU B   1      15.561  41.978  16.3080  0.00  0.00     0.000 C
ATOM      2  C2  GCU B   1      14.334  42.679  16.8690  0.00  0.00     0.000 C
ATOM      3  C3  GCU B   1      13.400  43.098  15.7450  0.00  0.00     0.000 C
ATOM      4  C4  GCU B   1      14.166  43.879  14.6880  0.00  0.00     0.000 C
ATOM      5  C5  GCU B   1      15.411  43.115  14.2360  0.00  0.00     0.000 C
ATOM      6  O5  GCU B   1      16.235  42.841  15.3770  0.00  0.00     0.000 O
ATOM      7   O  GCU B   1      13.684  41.772  17.7540  0.00  0.00     0.000 O
ATOM      9  HD  GCU B   1      13.454  41.934  18.5730  0.00  0.00     0.000 HD
ATOM      9   O  GCU B   1      12.326  43.896  16.2520  0.00  0.00     0.000 O
ATOM     11  HD  GCU B   1      12.096  44.057  17.0710  0.00  0.00     0.000 HD
ATOM     11   O  GCU B   1      13.307  44.109  13.5710  0.00  0.00     0.000 O
ATOM     13  HD  GCU B   1      13.077  44.270  14.3900  0.00  0.00     0.000 HD
ENDROOT
BRANCH 5 13
ATOM     13   C  GCU B   1      16.143  43.907  13.1790  0.00  0.00     0.000 C
ATOM     14   O  GCU B   1      16.836  43.323  12.3200  0.00  0.00     0.000 OA
ATOM     15   O  GCU B   1      16.001  45.145  13.1870  0.00  0.00     0.000 OA
ENDBRANCH 5 13
BRANCH 1 16
ATOM     16  O3  NAG B   2      16.772  41.889  16.8620  0.00  0.00     0.000 O
BRANCH 16 19
ATOM     17  C1  NAG B   2      18.747  38.825  17.8290  0.00  0.00     0.000 C
ATOM     18  C2  NAG B   2      17.545  39.758  17.7650  0.00  0.00     0.000 C
ATOM     19  C3  NAG B   2      17.818  40.907  16.7960  0.00  0.00     0.000 C
ATOM     20  C4  NAG B   2      19.138  41.595  17.1450  0.00  0.00     0.000 C
ATOM     21  C5  NAG B   2      20.262  40.569  17.1750  0.00  0.00     0.000 C
ATOM     22  O5  NAG B   2      19.942  39.557  18.1460  0.00  0.00     0.000 O
ATOM     23   O  NAG B   2      19.390  42.611  16.1670  0.00  0.00     0.000 O
ATOM     25  HD  NAG B   2      19.211  42.873  16.9730  0.00  0.00     0.000 HD
ATOM     25   C  NAG B   2      21.618  41.189  17.5030  0.00  0.00     0.000 C
ATOM     26   O  NAG B   2      21.713  41.559  18.8870  0.00  0.00     0.000 O
ATOM     28  HD  NAG B   2      21.534  41.822  19.6930  0.00  0.00     0.000 HD
BRANCH 18 30
ATOM     28   N  NAG B   2      16.589  39.089  18.6260  0.00  0.00     0.000 N
ATOM     30  HD  NAG B   2      16.197  39.082  17.8540  0.00  0.00     0.000 HD
ATOM     30   C  NAG B   2      15.362  38.722  18.2360  0.00  0.00     0.000 C
ATOM     31   C  NAG B   2      14.470  38.077  19.2590  0.00  0.00     0.000 C
ATOM     32   O  NAG B   2      14.971  38.899  17.1000  0.00  0.00     0.000 OA
ENDBRANCH 18 30
BRANCH 17 33
ATOM     33  O4  GCU B   3      18.442  37.787  18.7820  0.00  0.00     0.000 O
BRANCH 33 37
ATOM     34  C1  GCU B   3      19.527  33.767  18.7750  0.00  0.00     0.000 C
ATOM     35  C2  GCU B   3      20.371  34.729  19.6120  0.00  0.00     0.000 C
ATOM     36  C3  GCU B   3      19.603  36.014  19.8360  0.00  0.00     0.000 C
ATOM     37  C4  GCU B   3      19.176  36.595  18.4960  0.00  0.00     0.000 C
ATOM     38  C5  GCU B   3      18.338  35.567  17.7330  0.00  0.00     0.000 C
ATOM     39  O5  GCU B   3      19.123  34.385  17.5490  0.00  0.00     0.000 O
ATOM     40   O  GCU B   3      20.674  34.109  20.8640  0.00  0.00     0.000 O
ATOM     42  HD  GCU B   3      20.657  34.248  21.7190  0.00  0.00     0.000 HD
ATOM     42   O  GCU B   3      20.396  36.972  20.5600  0.00  0.00     0.000 O
ATOM     44  HD  GCU B   3      20.379  37.111  21.4150  0.00  0.00     0.000 HD
BRANCH 38 44
ATOM     44   C  GCU B   3      17.898  36.064  16.3790  0.00  0.00     0.000 C
ATOM     45   O  GCU B   3      18.763  36.288  15.5190  0.00  0.00     0.000 OA
ATOM     46   O  GCU B   3      16.686  36.237  16.1480  0.00  0.00     0.000 OA
ENDBRANCH 38 44
BRANCH 34 47
ATOM     47  O3  NAG B   4      20.282  32.740  18.4130  0.00  0.00     0.000 O
BRANCH 47 50
ATOM     48  C1  NAG B   4      18.550  29.516  17.8090  0.00  0.00     0.000 C
ATOM     49  C2  NAG B   4      19.037  30.933  17.5250  0.00  0.00     0.000 C
ATOM     50  C3  NAG B   4      20.198  31.316  18.4280  0.00  0.00     0.000 C
ATOM     51  C4  NAG B   4      20.041  30.830  19.8740  0.00  0.00     0.000 C
ATOM     52  C5  NAG B   4      19.922  29.316  19.9370  0.00  0.00     0.000 C
ATOM     53  O5  NAG B   4      19.078  28.748  18.9110  0.00  0.00     0.000 O
BRANCH 49 56
ATOM     54   N  NAG B   4      19.743  30.554  16.2880  0.00  0.00     0.000 N
ATOM     56  HD  NAG B   4      20.263  29.868  16.1930  0.00  0.00     0.000 HD
ATOM     56   C  NAG B   4      20.537  30.683  13.9980  0.00  0.00     0.000 C
ATOM     57   O  NAG B   4      19.423  32.446  15.0710  0.00  0.00     0.000 OA
ATOM     58   C  NAG B   4      19.855  31.308  15.1770  0.00  0.00     0.000 C
ENDBRANCH 49 56
ATOM     59   O  NAG B   4      19.627  27.507  21.5910  0.00  0.00     0.000 O
ATOM     61  HD  NAG B   4      19.272  28.068  21.0350  0.00  0.00     0.000 HD
ATOM     61   O  NAG B   4      19.627  27.507  21.5910  0.00  0.00     0.000 O
ATOM     63  HD  NAG B   4      19.272  28.068  21.0350  0.00  0.00     0.000 HD
ENDBRANCH 47 50
ENDBRANCH 34 47
ENDBRANCH 33 37
ENDBRANCH 17 33
ENDBRANCH 16 19
ENDBRANCH 1 16
TORSDOF 10
ENDMDL
MODEL 39
REMARK VINA RESULT:      -6.0     13.081     19.050
ROOT
ATOM      1  C1  GCU B   1      14.658  31.133  27.1730  0.00  0.00     0.000 C
ATOM      2  C2  GCU B   1      13.393  31.577  27.8930  0.00  0.00     0.000 C
ATOM      3  C3  GCU B   1      13.558  31.428  29.3980  0.00  0.00     0.000 C
ATOM      4  C4  GCU B   1      14.039  30.026  29.7370  0.00  0.00     0.000 C
ATOM      5  C5  GCU B   1      15.276  29.655  28.9170  0.00  0.00     0.000 C
ATOM      6  O5  GCU B   1      14.968  29.775  27.5220  0.00  0.00     0.000 O
ATOM      7   O  GCU B   1      13.151  32.936  27.5440  0.00  0.00     0.000 O
ATOM      9  HD  GCU B   1      12.410  33.260  27.2330  0.00  0.00     0.000 HD
ATOM      9   O  GCU B   1      12.323  31.691  30.0680  0.00  0.00     0.000 O
ATOM     11  HD  GCU B   1      11.582  32.015  29.7570  0.00  0.00     0.000 HD
ATOM     11   O  GCU B   1      14.348  29.969  31.1310  0.00  0.00     0.000 O
ATOM     13  HD  GCU B   1      13.607  30.292  30.8200  0.00  0.00     0.000 HD
ENDROOT
BRANCH 5 13
ATOM     13   C  GCU B   1      15.739  28.266  29.2850  0.00  0.00     0.000 C
ATOM     14   O  GCU B   1      16.429  28.081  30.3080  0.00  0.00     0.000 OA
ATOM     15   O  GCU B   1      15.381  27.328  28.5470  0.00  0.00     0.000 OA
ENDBRANCH 5 13
BRANCH 1 16
ATOM     16  O3  NAG B   2      14.764  30.672  25.9250  0.00  0.00     0.000 O
BRANCH 16 19
ATOM     17  C1  NAG B   2      16.436  32.034  22.8310  0.00  0.00     0.000 C
ATOM     18  C2  NAG B   2      15.483  32.014  24.0180  0.00  0.00     0.000 C
ATOM     19  C3  NAG B   2      15.767  30.804  24.9060  0.00  0.00     0.000 C
ATOM     20  C4  NAG B   2      15.770  29.522  24.0740  0.00  0.00     0.000 C
ATOM     21  C5  NAG B   2      16.758  29.656  22.9240  0.00  0.00     0.000 C
ATOM     22  O5  NAG B   2      16.384  30.787  22.1180  0.00  0.00     0.000 O
ATOM     23   O  NAG B   2      16.116  28.429  24.9310  0.00  0.00     0.000 O
ATOM     25  HD  NAG B   2      15.306  28.450  24.6250  0.00  0.00     0.000 HD
ATOM     25   C  NAG B   2      16.827  28.402  22.0550  0.00  0.00     0.000 C
ATOM     26   O  NAG B   2      15.657  28.261  21.2340  0.00  0.00     0.000 O
ATOM     28  HD  NAG B   2      14.847  28.282  20.9280  0.00  0.00     0.000 HD
BRANCH 18 30
ATOM     28   N  NAG B   2      15.658  33.395  24.4290  0.00  0.00     0.000 N
ATOM     30  HD  NAG B   2      14.810  33.260  24.5440  0.00  0.00     0.000 HD
ATOM     30   C  NAG B   2      14.647  34.211  24.7520  0.00  0.00     0.000 C
ATOM     31   C  NAG B   2      14.986  35.630  25.1140  0.00  0.00     0.000 C
ATOM     32   O  NAG B   2      13.493  33.832  24.7540  0.00  0.00     0.000 OA
ENDBRANCH 18 30
BRANCH 17 33
ATOM     33  O4  GCU B   3      16.095  33.173  22.0160  0.00  0.00     0.000 O
BRANCH 33 37
ATOM     34  C1  GCU B   3      18.298  35.161  19.0960  0.00  0.00     0.000 C
ATOM     35  C2  GCU B   3      17.411  33.998  18.6480  0.00  0.00     0.000 C
ATOM     36  C3  GCU B   3      16.394  33.691  19.7260  0.00  0.00     0.000 C
ATOM     37  C4  GCU B   3      17.109  33.433  21.0450  0.00  0.00     0.000 C
ATOM     38  C5  GCU B   3      17.966  34.646  21.4120  0.00  0.00     0.000 C
ATOM     39  O5  GCU B   3      18.907  34.875  20.3580  0.00  0.00     0.000 O
ATOM     40   O  GCU B   3      16.750  34.361  17.4340  0.00  0.00     0.000 O
ATOM     42  HD  GCU B   3      15.969  34.383  17.0590  0.00  0.00     0.000 HD
ATOM     42   O  GCU B   3      15.588  32.554  19.3690  0.00  0.00     0.000 O
ATOM     44  HD  GCU B   3      14.808  32.575  18.9950  0.00  0.00     0.000 HD
BRANCH 38 44
ATOM     44   C  GCU B   3      18.728  34.453  22.6990  0.00  0.00     0.000 C
ATOM     45   O  GCU B   3      19.766  33.775  22.6780  0.00  0.00     0.000 OA
ATOM     46   O  GCU B   3      18.308  34.974  23.7500  0.00  0.00     0.000 OA
ENDBRANCH 38 44
BRANCH 34 47
ATOM     47  O3  NAG B   4      19.305  35.283  18.2430  0.00  0.00     0.000 O
BRANCH 47 50
ATOM     48  C1  NAG B   4      20.887  37.254  15.5290  0.00  0.00     0.000 C
ATOM     49  C2  NAG B   4      19.782  36.523  16.2840  0.00  0.00     0.000 C
ATOM     50  C3  NAG B   4      20.143  36.326  17.7470  0.00  0.00     0.000 C
ATOM     51  C4  NAG B   4      21.612  35.951  17.9760  0.00  0.00     0.000 C
ATOM     52  C5  NAG B   4      22.544  37.025  17.4400  0.00  0.00     0.000 C
ATOM     53  O5  NAG B   4      22.149  37.562  16.1580  0.00  0.00     0.000 O
BRANCH 49 56
ATOM     54   N  NAG B   4      18.891  37.688  16.4230  0.00  0.00     0.000 N
ATOM     56  HD  NAG B   4      19.096  38.439  16.8020  0.00  0.00     0.000 HD
ATOM     56   C  NAG B   4      16.873  39.030  16.2840  0.00  0.00     0.000 C
ATOM     57   O  NAG B   4      16.916  36.729  15.8320  0.00  0.00     0.000 OA
ATOM     58   C  NAG B   4      17.567  37.708  16.1670  0.00  0.00     0.000 C
ENDBRANCH 49 56
ATOM     59   O  NAG B   4      24.957  37.502  17.2240  0.00  0.00     0.000 O
ATOM     61  HD  NAG B   4      24.232  37.175  16.8800  0.00  0.00     0.000 HD
ATOM     61   O  NAG B   4      24.957  37.502  17.2240  0.00  0.00     0.000 O
ATOM     63  HD  NAG B   4      24.232  37.175  16.8800  0.00  0.00     0.000 HD
ENDBRANCH 47 50
ENDBRANCH 34 47
ENDBRANCH 33 37
ENDBRANCH 17 33
ENDBRANCH 16 19
ENDBRANCH 1 16
TORSDOF 10
ENDMDL
MODEL 40
REMARK VINA RESULT:      -6.0     10.399     15.463
ROOT
ATOM      1  C1  GCU B   1      20.615  29.808  16.6960  0.00  0.00     0.000 C
ATOM      2  C2  GCU B   1      21.013  28.446  16.1500  0.00  0.00     0.000 C
ATOM      3  C3  GCU B   1      22.319  28.544  15.3760  0.00  0.00     0.000 C
ATOM      4  C4  GCU B   1      22.235  29.657  14.3430  0.00  0.00     0.000 C
ATOM      5  C5  GCU B   1      21.769  30.966  14.9820  0.00  0.00     0.000 C
ATOM      6  O5  GCU B   1      20.502  30.753  15.6200  0.00  0.00     0.000 O
ATOM      7   O  GCU B   1      21.148  27.558  17.2550  0.00  0.00     0.000 O
ATOM      9  HD  GCU B   1      20.767  26.785  17.3390  0.00  0.00     0.000 HD
ATOM      9   O  GCU B   1      22.615  27.304  14.7280  0.00  0.00     0.000 O
ATOM     11  HD  GCU B   1      22.234  26.531  14.8110  0.00  0.00     0.000 HD
ATOM     11   O  GCU B   1      23.524  29.838  13.7540  0.00  0.00     0.000 O
ATOM     13  HD  GCU B   1      23.143  29.065  13.8380  0.00  0.00     0.000 HD
ENDROOT
BRANCH 5 13
ATOM     13   C  GCU B   1      21.709  32.055  13.9380  0.00  0.00     0.000 C
ATOM     14   O  GCU B   1      21.896  33.247  14.2570  0.00  0.00     0.000 OA
ATOM     15   O  GCU B   1      21.495  31.709  12.7600  0.00  0.00     0.000 OA
ENDBRANCH 5 13
BRANCH 1 16
ATOM     16  O3  NAG B   2      19.387  30.238  16.9940  0.00  0.00     0.000 O
BRANCH 16 19
ATOM     17  C1  NAG B   2      17.531  31.227  20.1250  0.00  0.00     0.000 C
ATOM     18  C2  NAG B   2      18.250  30.301  19.1520  0.00  0.00     0.000 C
ATOM     19  C3  NAG B   2      18.866  31.108  18.0100  0.00  0.00     0.000 C
ATOM     20  C4  NAG B   2      17.813  32.011  17.3680  0.00  0.00     0.000 C
ATOM     21  C5  NAG B   2      17.169  32.889  18.4310  0.00  0.00     0.000 C
ATOM     22  O5  NAG B   2      16.574  32.046  19.4340  0.00  0.00     0.000 O
ATOM     23   O  NAG B   2      18.451  32.802  16.3590  0.00  0.00     0.000 O
ATOM     25  HD  NAG B   2      17.886  32.202  16.0920  0.00  0.00     0.000 HD
ATOM     25   C  NAG B   2      16.114  33.833  17.8580  0.00  0.00     0.000 C
ATOM     26   O  NAG B   2      14.915  33.130  17.4940  0.00  0.00     0.000 O
ATOM     28  HD  NAG B   2      14.350  32.531  17.2270  0.00  0.00     0.000 HD
BRANCH 18 30
ATOM     28   N  NAG B   2      18.788  29.502  20.2360  0.00  0.00     0.000 N
ATOM     30  HD  NAG B   2      18.846  28.973  19.5530  0.00  0.00     0.000 HD
ATOM     30   C  NAG B   2      19.128  28.213  20.1150  0.00  0.00     0.000 C
ATOM     31   C  NAG B   2      19.631  27.507  21.3430  0.00  0.00     0.000 C
ATOM     32   O  NAG B   2      19.035  27.622  19.0580  0.00  0.00     0.000 OA
ENDBRANCH 18 30
BRANCH 17 33
ATOM     33  O4  GCU B   3      16.944  30.406  21.1540  0.00  0.00     0.000 O
BRANCH 33 37
ATOM     34  C1  GCU B   3      15.333  31.429  24.8540  0.00  0.00     0.000 C
ATOM     35  C2  GCU B   3      14.412  31.497  23.6360  0.00  0.00     0.000 C
ATOM     36  C3  GCU B   3      15.018  30.705  22.4970  0.00  0.00     0.000 C
ATOM     37  C4  GCU B   3      16.427  31.207  22.2180  0.00  0.00     0.000 C
ATOM     38  C5  GCU B   3      17.273  31.099  23.4890  0.00  0.00     0.000 C
ATOM     39  O5  GCU B   3      16.650  31.874  24.5180  0.00  0.00     0.000 O
ATOM     40   O  GCU B   3      13.136  30.958  23.9890  0.00  0.00     0.000 O
ATOM     42  HD  GCU B   3      12.535  30.392  23.7260  0.00  0.00     0.000 HD
ATOM     42   O  GCU B   3      14.212  30.807  21.3090  0.00  0.00     0.000 O
ATOM     44  HD  GCU B   3      13.612  30.241  21.0460  0.00  0.00     0.000 HD
BRANCH 38 44
ATOM     44   C  GCU B   3      18.681  31.604  23.2950  0.00  0.00     0.000 C
ATOM     45   O  GCU B   3      19.577  30.784  23.0450  0.00  0.00     0.000 OA
ATOM     46   O  GCU B   3      18.917  32.824  23.3860  0.00  0.00     0.000 OA
ENDBRANCH 38 44
BRANCH 34 47
ATOM     47  O3  NAG B   4      14.899  32.287  25.7670  0.00  0.00     0.000 O
BRANCH 47 50
ATOM     48  C1  NAG B   4      14.187  35.803  26.7080  0.00  0.00     0.000 C
ATOM     49  C2  NAG B   4      14.987  34.615  26.1830  0.00  0.00     0.000 C
ATOM     50  C3  NAG B   4      14.080  33.455  25.8070  0.00  0.00     0.000 C
ATOM     51  C4  NAG B   4      12.923  33.232  26.7880  0.00  0.00     0.000 C
ATOM     52  C5  NAG B   4      12.037  34.463  26.8830  0.00  0.00     0.000 C
ATOM     53  O5  NAG B   4      12.764  35.711  26.9280  0.00  0.00     0.000 O
BRANCH 49 56
ATOM     54   N  NAG B   4      15.236  35.035  24.7930  0.00  0.00     0.000 N
ATOM     56  HD  NAG B   4      14.679  34.959  24.1340  0.00  0.00     0.000 HD
ATOM     56   C  NAG B   4      16.429  35.893  22.8610  0.00  0.00     0.000 C
ATOM     57   O  NAG B   4      17.476  35.405  24.9020  0.00  0.00     0.000 OA
ATOM     58   C  NAG B   4      16.424  35.413  24.2800  0.00  0.00     0.000 C
ENDBRANCH 49 56
ATOM     59   O  NAG B   4      10.021  35.257  28.0670  0.00  0.00     0.000 O
ATOM     61  HD  NAG B   4      10.884  35.198  28.0310  0.00  0.00     0.000 HD
ATOM     61   O  NAG B   4      10.021  35.257  28.0670  0.00  0.00     0.000 O
ATOM     63  HD  NAG B   4      10.884  35.198  28.0310  0.00  0.00     0.000 HD
ENDBRANCH 47 50
ENDBRANCH 34 47
ENDBRANCH 33 37
ENDBRANCH 17 33
ENDBRANCH 16 19
ENDBRANCH 1 16
TORSDOF 10
ENDMDL
MODEL 41
REMARK VINA RESULT:      -6.0     19.253     21.987
ROOT
ATOM      1  C1  GCU B   1      20.479  22.483  29.8220  0.00  0.00     0.000 C
ATOM      2  C2  GCU B   1      21.269  23.782  29.7720  0.00  0.00     0.000 C
ATOM      3  C3  GCU B   1      21.061  24.479  28.4360  0.00  0.00     0.000 C
ATOM      4  C4  GCU B   1      21.327  23.514  27.2920  0.00  0.00     0.000 C
ATOM      5  C5  GCU B   1      20.533  22.218  27.4690  0.00  0.00     0.000 C
ATOM      6  O5  GCU B   1      20.869  21.631  28.7330  0.00  0.00     0.000 O
ATOM      7   O  GCU B   1      20.820  24.603  30.8450  0.00  0.00     0.000 O
ATOM      9  HD  GCU B   1      21.320  24.981  31.4430  0.00  0.00     0.000 HD
ATOM      9   O  GCU B   1      21.922  25.615  28.3220  0.00  0.00     0.000 O
ATOM     11  HD  GCU B   1      22.422  25.993  28.9190  0.00  0.00     0.000 HD
ATOM     11   O  GCU B   1      20.960  24.142  26.0630  0.00  0.00     0.000 O
ATOM     13  HD  GCU B   1      21.460  24.520  26.6610  0.00  0.00     0.000 HD
ENDROOT
BRANCH 5 13
ATOM     13   C  GCU B   1      20.807  21.286  26.3130  0.00  0.00     0.000 C
ATOM     14   O  GCU B   1      20.404  21.568  25.1660  0.00  0.00     0.000 OA
ATOM     15   O  GCU B   1      21.465  20.255  26.5510  0.00  0.00     0.000 OA
ENDBRANCH 5 13
BRANCH 1 16
ATOM     16  O3  NAG B   2      20.740  21.400  30.5570  0.00  0.00     0.000 O
BRANCH 16 19
ATOM     17  C1  NAG B   2      18.792  19.618  33.2510  0.00  0.00     0.000 C
ATOM     18  C2  NAG B   2      19.503  20.778  32.5670  0.00  0.00     0.000 C
ATOM     19  C3  NAG B   2      19.913  20.385  31.1490  0.00  0.00     0.000 C
ATOM     20  C4  NAG B   2      20.705  19.078  31.1660  0.00  0.00     0.000 C
ATOM     21  C5  NAG B   2      19.898  17.996  31.8680  0.00  0.00     0.000 C
ATOM     22  O5  NAG B   2      19.601  18.431  33.2070  0.00  0.00     0.000 O
ATOM     23   O  NAG B   2      21.000  18.711  29.8140  0.00  0.00     0.000 O
ATOM     25  HD  NAG B   2      21.666  18.949  30.3130  0.00  0.00     0.000 HD
ATOM     25   C  NAG B   2      20.622  16.652  31.9100  0.00  0.00     0.000 C
ATOM     26   O  NAG B   2      21.709  16.664  32.8490  0.00  0.00     0.000 O
ATOM     28  HD  NAG B   2      22.376  16.902  33.3480  0.00  0.00     0.000 HD
BRANCH 18 30
ATOM     28   N  NAG B   2      19.421  21.828  33.5640  0.00  0.00     0.000 N
ATOM     30  HD  NAG B   2      18.965  22.149  32.9010  0.00  0.00     0.000 HD
ATOM     30   C  NAG B   2      18.866  23.026  33.3420  0.00  0.00     0.000 C
ATOM     31   C  NAG B   2      18.898  24.027  34.4640  0.00  0.00     0.000 C
ATOM     32   O  NAG B   2      18.355  23.308  32.2770  0.00  0.00     0.000 OA
ENDBRANCH 18 30
BRANCH 17 33
ATOM     33  O4  GCU B   3      18.465  20.037  34.5910  0.00  0.00     0.000 O
BRANCH 33 37
ATOM     34  C1  GCU B   3      15.219  19.094  37.0230  0.00  0.00     0.000 C
ATOM     35  C2  GCU B   3      16.389  18.109  36.9860  0.00  0.00     0.000 C
ATOM     36  C3  GCU B   3      17.612  18.796  36.4180  0.00  0.00     0.000 C
ATOM     37  C4  GCU B   3      17.279  19.390  35.0560  0.00  0.00     0.000 C
ATOM     38  C5  GCU B   3      16.104  20.360  35.1910  0.00  0.00     0.000 C
ATOM     39  O5  GCU B   3      14.983  19.647  35.7250  0.00  0.00     0.000 O
ATOM     40   O  GCU B   3      16.651  17.653  38.3150  0.00  0.00     0.000 O
ATOM     42  HD  GCU B   3      17.292  17.544  38.8880  0.00  0.00     0.000 HD
ATOM     42   O  GCU B   3      18.714  17.878  36.3010  0.00  0.00     0.000 O
ATOM     44  HD  GCU B   3      19.355  17.770  36.8740  0.00  0.00     0.000 HD
BRANCH 38 44
ATOM     44   C  GCU B   3      15.699  20.971  33.8730  0.00  0.00     0.000 C
ATOM     45   O  GCU B   3      15.446  20.216  32.9220  0.00  0.00     0.000 OA
ATOM     46   O  GCU B   3      15.622  22.209  33.7640  0.00  0.00     0.000 OA
ENDBRANCH 38 44
BRANCH 34 47
ATOM     47  O3  NAG B   4      14.112  18.431  37.3240  0.00  0.00     0.000 O
BRANCH 47 50
ATOM     48  C1  NAG B   4      10.793  17.671  38.7960  0.00  0.00     0.000 C
ATOM     49  C2  NAG B   4      12.313  17.766  38.7120  0.00  0.00     0.000 C
ATOM     50  C3  NAG B   4      12.752  18.737  37.6280  0.00  0.00     0.000 C
ATOM     51  C4  NAG B   4      11.913  18.654  36.3480  0.00  0.00     0.000 C
ATOM     52  C5  NAG B   4      10.449  18.949  36.6290  0.00  0.00     0.000 C
ATOM     53  O5  NAG B   4       9.946  18.338  37.8380  0.00  0.00     0.000 O
BRANCH 49 56
ATOM     54   N  NAG B   4      12.408  18.575  39.9400  0.00  0.00     0.000 N
ATOM     56  HD  NAG B   4      11.860  19.203  40.1760  0.00  0.00     0.000 HD
ATOM     56   C  NAG B   4      13.300  19.434  42.0280  0.00  0.00     0.000 C
ATOM     57   O  NAG B   4      14.504  18.006  40.6110  0.00  0.00     0.000 OA
ATOM     58   C  NAG B   4      13.457  18.611  40.7860  0.00  0.00     0.000 C
ENDBRANCH 49 56
ATOM     59   O  NAG B   4       8.285  19.083  35.4480  0.00  0.00     0.000 O
ATOM     61  HD  NAG B   4       8.853  18.614  35.9040  0.00  0.00     0.000 HD
ATOM     61   O  NAG B   4       8.285  19.083  35.4480  0.00  0.00     0.000 O
ATOM     63  HD  NAG B   4       8.853  18.614  35.9040  0.00  0.00     0.000 HD
ENDBRANCH 47 50
ENDBRANCH 34 47
ENDBRANCH 33 37
ENDBRANCH 17 33
ENDBRANCH 16 19
ENDBRANCH 1 16
TORSDOF 10
ENDMDL
MODEL 42
REMARK VINA RESULT:      -5.9      2.935     12.345
ROOT
ATOM      1  C1  GCU B   1      16.612  16.458   9.4620  0.00  0.00     0.000 C
ATOM      2  C2  GCU B   1      17.210  15.224   8.8020  0.00  0.00     0.000 C
ATOM      3  C3  GCU B   1      16.119  14.219   8.4690  0.00  0.00     0.000 C
ATOM      4  C4  GCU B   1      15.261  13.947   9.6950  0.00  0.00     0.000 C
ATOM      5  C5  GCU B   1      14.762  15.252  10.3170  0.00  0.00     0.000 C
ATOM      6  O5  GCU B   1      15.887  16.079  10.6430  0.00  0.00     0.000 O
ATOM      7   O  GCU B   1      17.883  15.648   7.6220  0.00  0.00     0.000 O
ATOM      9  HD  GCU B   1      18.702  15.465   7.4070  0.00  0.00     0.000 HD
ATOM      9   O  GCU B   1      16.688  12.995   7.9960  0.00  0.00     0.000 O
ATOM     11  HD  GCU B   1      17.507  12.813   7.7820  0.00  0.00     0.000 HD
ATOM     11   O  GCU B   1      14.149  13.138   9.3110  0.00  0.00     0.000 O
ATOM     13  HD  GCU B   1      14.968  12.955   9.0960  0.00  0.00     0.000 HD
ENDROOT
BRANCH 5 13
ATOM     13   C  GCU B   1      13.903  14.952  11.5220  0.00  0.00     0.000 C
ATOM     14   O  GCU B   1      12.866  14.268  11.4040  0.00  0.00     0.000 OA
ATOM     15   O  GCU B   1      14.288  15.388  12.6240  0.00  0.00     0.000 OA
ENDBRANCH 5 13
BRANCH 1 16
ATOM     16  O3  NAG B   2      17.216  17.308  10.2950  0.00  0.00     0.000 O
BRANCH 16 19
ATOM     17  C1  NAG B   2      18.424  20.871  10.5630  0.00  0.00     0.000 C
ATOM     18  C2  NAG B   2      18.466  19.400  10.1710  0.00  0.00     0.000 C
ATOM     19  C3  NAG B   2      17.131  18.728  10.4890  0.00  0.00     0.000 C
ATOM     20  C4  NAG B   2      16.738  18.987  11.9430  0.00  0.00     0.000 C
ATOM     21  C5  NAG B   2      16.726  20.484  12.2150  0.00  0.00     0.000 C
ATOM     22  O5  NAG B   2      18.032  21.019  11.9370  0.00  0.00     0.000 O
ATOM     23   O  NAG B   2      15.449  18.407  12.1720  0.00  0.00     0.000 O
ATOM     25  HD  NAG B   2      16.123  18.042  12.5740  0.00  0.00     0.000 HD
ATOM     25   C  NAG B   2      16.324  20.820  13.6500  0.00  0.00     0.000 C
ATOM     26   O  NAG B   2      17.371  20.505  14.5810  0.00  0.00     0.000 O
ATOM     28  HD  NAG B   2      18.045  20.140  14.9840  0.00  0.00     0.000 HD
BRANCH 18 30
ATOM     28   N  NAG B   2      18.787  19.196   8.7710  0.00  0.00     0.000 N
ATOM     30  HD  NAG B   2      19.507  18.939   9.1780  0.00  0.00     0.000 HD
ATOM     30   C  NAG B   2      19.996  18.830   8.3280  0.00  0.00     0.000 C
ATOM     31   C  NAG B   2      20.184  18.703   6.8430  0.00  0.00     0.000 C
ATOM     32   O  NAG B   2      20.916  18.607   9.0890  0.00  0.00     0.000 OA
ENDBRANCH 18 30
BRANCH 17 33
ATOM     33  O4  GCU B   3      19.718  21.437  10.2730  0.00  0.00     0.000 O
BRANCH 33 37
ATOM     34  C1  GCU B   3      20.769  25.380   9.4510  0.00  0.00     0.000 C
ATOM     35  C2  GCU B   3      19.893  25.120  10.6770  0.00  0.00     0.000 C
ATOM     36  C3  GCU B   3      19.972  23.656  11.0550  0.00  0.00     0.000 C
ATOM     37  C4  GCU B   3      19.602  22.797   9.8540  0.00  0.00     0.000 C
ATOM     38  C5  GCU B   3      20.529  23.124   8.6820  0.00  0.00     0.000 C
ATOM     39  O5  GCU B   3      20.399  24.516   8.3730  0.00  0.00     0.000 O
ATOM     40   O  GCU B   3      20.354  25.935  11.7570  0.00  0.00     0.000 O
ATOM     42  HD  GCU B   3      20.581  25.901  12.5920  0.00  0.00     0.000 HD
ATOM     42   O  GCU B   3      19.103  23.360  12.1620  0.00  0.00     0.000 O
ATOM     44  HD  GCU B   3      19.329  23.326  12.9980  0.00  0.00     0.000 HD
BRANCH 38 44
ATOM     44   C  GCU B   3      20.205  22.327   7.4440  0.00  0.00     0.000 C
ATOM     45   O  GCU B   3      21.127  22.031   6.6690  0.00  0.00     0.000 OA
ATOM     46   O  GCU B   3      19.029  21.979   7.2230  0.00  0.00     0.000 OA
ENDBRANCH 38 44
BRANCH 34 47
ATOM     47  O3  NAG B   4      20.532  26.607   9.0090  0.00  0.00     0.000 O
BRANCH 47 50
ATOM     48  C1  NAG B   4      20.920  30.158   8.0120  0.00  0.00     0.000 C
ATOM     49  C2  NAG B   4      20.451  28.967   8.8400  0.00  0.00     0.000 C
ATOM     50  C3  NAG B   4      21.291  27.730   8.5640  0.00  0.00     0.000 C
ATOM     51  C4  NAG B   4      21.653  27.547   7.0860  0.00  0.00     0.000 C
ATOM     52  C5  NAG B   4      22.442  28.735   6.5610  0.00  0.00     0.000 C
ATOM     53  O5  NAG B   4      21.947  30.016   7.0080  0.00  0.00     0.000 O
BRANCH 49 56
ATOM     54   N  NAG B   4      21.070  29.437  10.0920  0.00  0.00     0.000 N
ATOM     56  HD  NAG B   4      21.890  29.699  10.1830  0.00  0.00     0.000 HD
ATOM     56   C  NAG B   4      21.295  29.982  12.4470  0.00  0.00     0.000 C
ATOM     57   O  NAG B   4      19.461  28.811  11.5710  0.00  0.00     0.000 OA
ATOM     58   C  NAG B   4      20.530  29.350  11.3240  0.00  0.00     0.000 C
ENDBRANCH 49 56
ATOM     59   O  NAG B   4      23.489  29.539   4.4750  0.00  0.00     0.000 O
ATOM     61  HD  NAG B   4      22.800  29.520   4.9980  0.00  0.00     0.000 HD
ATOM     61   O  NAG B   4      23.489  29.539   4.4750  0.00  0.00     0.000 O
ATOM     63  HD  NAG B   4      22.800  29.520   4.9980  0.00  0.00     0.000 HD
ENDBRANCH 47 50
ENDBRANCH 34 47
ENDBRANCH 33 37
ENDBRANCH 17 33
ENDBRANCH 16 19
ENDBRANCH 1 16
TORSDOF 10
ENDMDL
MODEL 43
REMARK VINA RESULT:      -5.9     18.142     20.897
ROOT
ATOM      1  C1  GCU B   1      14.577  32.045  26.3710  0.00  0.00     0.000 C
ATOM      2  C2  GCU B   1      15.137  33.389  25.9320  0.00  0.00     0.000 C
ATOM      3  C3  GCU B   1      14.931  33.589  24.4390  0.00  0.00     0.000 C
ATOM      4  C4  GCU B   1      15.456  32.386  23.6700  0.00  0.00     0.000 C
ATOM      5  C5  GCU B   1      14.880  31.084  24.2280  0.00  0.00     0.000 C
ATOM      6  O5  GCU B   1      15.199  30.988  25.6230  0.00  0.00     0.000 O
ATOM      7   O  GCU B   1      14.465  34.402  26.6740  0.00  0.00     0.000 O
ATOM      9  HD  GCU B   1      14.840  35.032  27.1340  0.00  0.00     0.000 HD
ATOM      9   O  GCU B   1      15.595  34.775  23.9930  0.00  0.00     0.000 O
ATOM     11  HD  GCU B   1      15.970  35.406  24.4530  0.00  0.00     0.000 HD
ATOM     11   O  GCU B   1      15.096  32.524  22.2950  0.00  0.00     0.000 O
ATOM     13  HD  GCU B   1      15.471  33.155  22.7550  0.00  0.00     0.000 HD
ENDROOT
BRANCH 5 13
ATOM     13   C  GCU B   1      15.406  29.909  23.4380  0.00  0.00     0.000 C
ATOM     14   O  GCU B   1      16.524  29.970  22.8860  0.00  0.00     0.000 OA
ATOM     15   O  GCU B   1      14.697  28.886  23.3900  0.00  0.00     0.000 OA
ENDBRANCH 5 13
BRANCH 1 16
ATOM     16  O3  NAG B   2      14.952  31.311  27.4210  0.00  0.00     0.000 O
BRANCH 16 19
ATOM     17  C1  NAG B   2      12.919  30.062  30.3420  0.00  0.00     0.000 C
ATOM     18  C2  NAG B   2      13.477  31.074  29.3500  0.00  0.00     0.000 C
ATOM     19  C3  NAG B   2      14.271  30.362  28.2560  0.00  0.00     0.000 C
ATOM     20  C4  NAG B   2      15.317  29.436  28.8750  0.00  0.00     0.000 C
ATOM     21  C5  NAG B   2      14.645  28.470  29.8400  0.00  0.00     0.000 C
ATOM     22  O5  NAG B   2      13.967  29.227  30.8590  0.00  0.00     0.000 O
ATOM     23   O  NAG B   2      15.981  28.735  27.8170  0.00  0.00     0.000 O
ATOM     25  HD  NAG B   2      16.447  29.314  28.2600  0.00  0.00     0.000 HD
ATOM     25   C  NAG B   2      15.631  27.500  30.4860  0.00  0.00     0.000 C
ATOM     26   O  NAG B   2      16.450  28.152  31.4700  0.00  0.00     0.000 O
ATOM     28  HD  NAG B   2      16.917  28.731  31.9120  0.00  0.00     0.000 HD
BRANCH 18 30
ATOM     28   N  NAG B   2      12.936  32.326  29.8450  0.00  0.00     0.000 N
ATOM     30  HD  NAG B   2      12.579  32.253  29.0590  0.00  0.00     0.000 HD
ATOM     30   C  NAG B   2      12.186  33.157  29.1100  0.00  0.00     0.000 C
ATOM     31   C  NAG B   2      11.736  34.440  29.7500  0.00  0.00     0.000 C
ATOM     32   O  NAG B   2      11.876  32.896  27.9650  0.00  0.00     0.000 OA
ENDBRANCH 18 30
BRANCH 17 33
ATOM     33  O4  GCU B   3      12.215  30.795  31.3640  0.00  0.00     0.000 O
BRANCH 33 37
ATOM     34  C1  GCU B   3       8.672  29.957  33.3840  0.00  0.00     0.000 C
ATOM     35  C2  GCU B   3       9.912  29.145  33.7580  0.00  0.00     0.000 C
ATOM     36  C3  GCU B   3      11.153  29.853  33.2570  0.00  0.00     0.000 C
ATOM     37  C4  GCU B   3      11.027  30.109  31.7620  0.00  0.00     0.000 C
ATOM     38  C5  GCU B   3       9.764  30.928  31.4850  0.00  0.00     0.000 C
ATOM     39  O5  GCU B   3       8.633  30.200  31.9740  0.00  0.00     0.000 O
ATOM     40   O  GCU B   3       9.962  29.005  35.1800  0.00  0.00     0.000 O
ATOM     42  HD  GCU B   3      10.492  29.099  35.8590  0.00  0.00     0.000 HD
ATOM     42   O  GCU B   3      12.335  29.080  33.5290  0.00  0.00     0.000 O
ATOM     44  HD  GCU B   3      12.865  29.173  34.2080  0.00  0.00     0.000 HD
BRANCH 38 44
ATOM     44   C  GCU B   3       9.558  31.200  30.0160  0.00  0.00     0.000 C
ATOM     45   O  GCU B   3       9.992  30.379  29.1930  0.00  0.00     0.000 OA
ATOM     46   O  GCU B   3       8.960  32.232  29.6570  0.00  0.00     0.000 OA
ENDBRANCH 38 44
BRANCH 34 47
ATOM     47  O3  NAG B   4       7.593  29.233  33.6420  0.00  0.00     0.000 O
BRANCH 47 50
ATOM     48  C1  NAG B   4       6.697  26.158  31.7720  0.00  0.00     0.000 C
ATOM     49  C2  NAG B   4       7.307  27.010  32.8790  0.00  0.00     0.000 C
ATOM     50  C3  NAG B   4       6.689  28.398  32.9200  0.00  0.00     0.000 C
ATOM     51  C4  NAG B   4       6.435  29.002  31.5330  0.00  0.00     0.000 C
ATOM     52  C5  NAG B   4       5.494  28.130  30.7170  0.00  0.00     0.000 C
ATOM     53  O5  NAG B   4       5.758  26.714  30.8280  0.00  0.00     0.000 O
BRANCH 49 56
ATOM     54   N  NAG B   4       6.581  26.289  33.9390  0.00  0.00     0.000 N
ATOM     56  HD  NAG B   4       5.766  25.999  33.8860  0.00  0.00     0.000 HD
ATOM     56   C  NAG B   4       6.133  25.283  36.1020  0.00  0.00     0.000 C
ATOM     57   O  NAG B   4       7.999  26.639  35.6800  0.00  0.00     0.000 OA
ATOM     58   C  NAG B   4       6.985  26.139  35.2160  0.00  0.00     0.000 C
ENDBRANCH 49 56
ATOM     59   O  NAG B   4       4.440  28.057  28.4860  0.00  0.00     0.000 O
ATOM     61  HD  NAG B   4       5.096  27.830  29.0030  0.00  0.00     0.000 HD
ATOM     61   O  NAG B   4       4.440  28.057  28.4860  0.00  0.00     0.000 O
ATOM     63  HD  NAG B   4       5.096  27.830  29.0030  0.00  0.00     0.000 HD
ENDBRANCH 47 50
ENDBRANCH 34 47
ENDBRANCH 33 37
ENDBRANCH 17 33
ENDBRANCH 16 19
ENDBRANCH 1 16
TORSDOF 10
ENDMDL
MODEL 44
REMARK VINA RESULT:      -5.9      4.030      8.509
ROOT
ATOM      1  C1  GCU B   1      19.210  25.128  14.5830  0.00  0.00     0.000 C
ATOM      2  C2  GCU B   1      18.795  26.565  14.8570  0.00  0.00     0.000 C
ATOM      3  C3  GCU B   1      19.556  27.120  16.0520  0.00  0.00     0.000 C
ATOM      4  C4  GCU B   1      19.437  26.173  17.2360  0.00  0.00     0.000 C
ATOM      5  C5  GCU B   1      19.817  24.746  16.8400  0.00  0.00     0.000 C
ATOM      6  O5  GCU B   1      18.986  24.323  15.7510  0.00  0.00     0.000 O
ATOM      7   O  GCU B   1      19.071  27.327  13.6860  0.00  0.00     0.000 O
ATOM      9  HD  GCU B   1      18.514  27.841  13.2680  0.00  0.00     0.000 HD
ATOM      9   O  GCU B   1      19.057  28.410  16.4120  0.00  0.00     0.000 O
ATOM     11  HD  GCU B   1      18.500  28.925  15.9940  0.00  0.00     0.000 HD
ATOM     11   O  GCU B   1      20.296  26.630  18.2810  0.00  0.00     0.000 O
ATOM     13  HD  GCU B   1      19.739  27.145  17.8630  0.00  0.00     0.000 HD
ENDROOT
BRANCH 5 13
ATOM     13   C  GCU B   1      19.703  23.832  18.0370  0.00  0.00     0.000 C
ATOM     14   O  GCU B   1      18.658  23.179  18.2340  0.00  0.00     0.000 OA
ATOM     15   O  GCU B   1      20.694  23.742  18.7870  0.00  0.00     0.000 OA
ENDBRANCH 5 13
BRANCH 1 16
ATOM     16  O3  NAG B   2      18.495  24.176  13.9800  0.00  0.00     0.000 O
BRANCH 16 19
ATOM     17  C1  NAG B   2      19.181  21.966  11.0020  0.00  0.00     0.000 C
ATOM     18  C2  NAG B   2      19.001  23.267  11.7730  0.00  0.00     0.000 C
ATOM     19  C3  NAG B   2      18.846  22.981  13.2660  0.00  0.00     0.000 C
ATOM     20  C4  NAG B   2      17.744  21.947  13.4980  0.00  0.00     0.000 C
ATOM     21  C5  NAG B   2      18.032  20.695  12.6830  0.00  0.00     0.000 C
ATOM     22  O5  NAG B   2      18.112  21.052  11.2920  0.00  0.00     0.000 O
ATOM     23   O  NAG B   2      17.688  21.654  14.8980  0.00  0.00     0.000 O
ATOM     25  HD  NAG B   2      17.015  22.078  14.5560  0.00  0.00     0.000 HD
ATOM     25   C  NAG B   2      16.977  19.608  12.8790  0.00  0.00     0.000 C
ATOM     26   O  NAG B   2      15.746  19.939  12.2180  0.00  0.00     0.000 O
ATOM     28  HD  NAG B   2      15.072  20.362  11.8760  0.00  0.00     0.000 HD
BRANCH 18 30
ATOM     28   N  NAG B   2      19.050  24.349  10.8090  0.00  0.00     0.000 N
ATOM     30  HD  NAG B   2      19.809  24.416  11.2190  0.00  0.00     0.000 HD
ATOM     30   C  NAG B   2      20.029  25.260  10.7590  0.00  0.00     0.000 C
ATOM     31   C  NAG B   2      19.916  26.350   9.7290  0.00  0.00     0.000 C
ATOM     32   O  NAG B   2      20.980  25.222  11.5140  0.00  0.00     0.000 OA
ENDBRANCH 18 30
BRANCH 17 33
ATOM     33  O4  GCU B   3      19.285  22.299   9.6030  0.00  0.00     0.000 O
BRANCH 33 37
ATOM     34  C1  GCU B   3      21.311  20.416   6.4910  0.00  0.00     0.000 C
ATOM     35  C2  GCU B   3      20.128  19.678   7.1180  0.00  0.00     0.000 C
ATOM     36  C3  GCU B   3      19.278  20.655   7.9010  0.00  0.00     0.000 C
ATOM     37  C4  GCU B   3      20.143  21.384   8.9190  0.00  0.00     0.000 C
ATOM     38  C5  GCU B   3      21.294  22.092   8.2030  0.00  0.00     0.000 C
ATOM     39  O5  GCU B   3      22.059  21.114   7.4910  0.00  0.00     0.000 O
ATOM     40   O  GCU B   3      19.356  19.073   6.0780  0.00  0.00     0.000 O
ATOM     42  HD  GCU B   3      18.545  18.994   5.7850  0.00  0.00     0.000 HD
ATOM     42   O  GCU B   3      18.194  19.980   8.5650  0.00  0.00     0.000 O
ATOM     44  HD  GCU B   3      17.382  19.901   8.2730  0.00  0.00     0.000 HD
BRANCH 38 44
ATOM     44   C  GCU B   3      22.212  22.818   9.1540  0.00  0.00     0.000 C
ATOM     45   O  GCU B   3      22.529  22.261  10.2150  0.00  0.00     0.000 OA
ATOM     46   O  GCU B   3      22.636  23.952   8.8590  0.00  0.00     0.000 OA
ENDBRANCH 38 44
BRANCH 34 47
ATOM     47  O3  NAG B   4      22.153  19.525   5.9870  0.00  0.00     0.000 O
BRANCH 47 50
ATOM     48  C1  NAG B   4      23.617  16.494   4.4300  0.00  0.00     0.000 C
ATOM     49  C2  NAG B   4      23.357  17.545   5.5040  0.00  0.00     0.000 C
ATOM     50  C3  NAG B   4      22.078  18.319   5.2280  0.00  0.00     0.000 C
ATOM     51  C4  NAG B   4      21.869  18.661   3.7480  0.00  0.00     0.000 C
ATOM     52  C5  NAG B   4      21.809  17.403   2.8960  0.00  0.00     0.000 C
ATOM     53  O5  NAG B   4      22.786  16.401   3.2540  0.00  0.00     0.000 O
BRANCH 49 56
ATOM     54   N  NAG B   4      22.938  16.537   6.4930  0.00  0.00     0.000 N
ATOM     56  HD  NAG B   4      22.480  15.821   6.3230  0.00  0.00     0.000 HD
ATOM     56   C  NAG B   4      22.626  15.466   8.6490  0.00  0.00     0.000 C
ATOM     57   O  NAG B   4      23.414  17.662   8.4100  0.00  0.00     0.000 OA
ATOM     58   C  NAG B   4      23.022  16.658   7.8330  0.00  0.00     0.000 C
ENDBRANCH 49 56
ATOM     59   O  NAG B   4      21.548  16.727   0.5370  0.00  0.00     0.000 O
ATOM     61  HD  NAG B   4      22.071  16.923   1.1980  0.00  0.00     0.000 HD
ATOM     61   O  NAG B   4      21.548  16.727   0.5370  0.00  0.00     0.000 O
ATOM     63  HD  NAG B   4      22.071  16.923   1.1980  0.00  0.00     0.000 HD
ENDBRANCH 47 50
ENDBRANCH 34 47
ENDBRANCH 33 37
ENDBRANCH 17 33
ENDBRANCH 16 19
ENDBRANCH 1 16
TORSDOF 10
ENDMDL
MODEL 45
REMARK VINA RESULT:      -5.9     23.350     26.904
ROOT
ATOM      1  C1  GCU B   1      15.588  20.398  36.7180  0.00  0.00     0.000 C
ATOM      2  C2  GCU B   1      16.857  21.226  36.8470  0.00  0.00     0.000 C
ATOM      3  C3  GCU B   1      17.110  22.015  35.5720  0.00  0.00     0.000 C
ATOM      4  C4  GCU B   1      17.058  21.092  34.3640  0.00  0.00     0.000 C
ATOM      5  C5  GCU B   1      15.773  20.263  34.3610  0.00  0.00     0.000 C
ATOM      6  O5  GCU B   1      15.690  19.521  35.5850  0.00  0.00     0.000 O
ATOM      7   O  GCU B   1      16.692  22.102  37.9580  0.00  0.00     0.000 O
ATOM      9  HD  GCU B   1      17.239  22.193  38.6230  0.00  0.00     0.000 HD
ATOM      9   O  GCU B   1      18.381  22.669  35.6270  0.00  0.00     0.000 O
ATOM     11  HD  GCU B   1      18.928  22.760  36.2920  0.00  0.00     0.000 HD
ATOM     11   O  GCU B   1      17.126  21.882  33.1760  0.00  0.00     0.000 O
ATOM     13  HD  GCU B   1      17.674  21.973  33.8410  0.00  0.00     0.000 HD
ENDROOT
BRANCH 5 13
ATOM     13   C  GCU B   1      15.742  19.367  33.1450  0.00  0.00     0.000 C
ATOM     14   O  GCU B   1      14.690  18.780  32.8200  0.00  0.00     0.000 OA
ATOM     15   O  GCU B   1      16.791  19.268  32.4790  0.00  0.00     0.000 OA
ENDBRANCH 5 13
BRANCH 1 16
ATOM     16  O3  NAG B   2      15.282  19.272  37.3650  0.00  0.00     0.000 O
BRANCH 16 19
ATOM     17  C1  NAG B   2      11.824  17.889  37.9640  0.00  0.00     0.000 C
ATOM     18  C2  NAG B   2      12.922  18.942  37.8910  0.00  0.00     0.000 C
ATOM     19  C3  NAG B   2      14.187  18.348  37.2740  0.00  0.00     0.000 C
ATOM     20  C4  NAG B   2      14.584  17.066  38.0070  0.00  0.00     0.000 C
ATOM     21  C5  NAG B   2      13.415  16.092  38.0120  0.00  0.00     0.000 C
ATOM     22  O5  NAG B   2      12.290  16.718  38.6540  0.00  0.00     0.000 O
ATOM     23   O  NAG B   2      15.725  16.505  37.3470  0.00  0.00     0.000 O
ATOM     25  HD  NAG B   2      15.846  16.822  38.1440  0.00  0.00     0.000 HD
ATOM     25   C  NAG B   2      13.746  14.777  38.7160  0.00  0.00     0.000 C
ATOM     26   O  NAG B   2      13.814  14.940  40.1410  0.00  0.00     0.000 O
ATOM     28  HD  NAG B   2      13.935  15.257  40.9370  0.00  0.00     0.000 HD
BRANCH 18 30
ATOM     28   N  NAG B   2      12.387  20.176  38.4350  0.00  0.00     0.000 N
ATOM     30  HD  NAG B   2      12.407  20.328  37.5830  0.00  0.00     0.000 HD
ATOM     30   C  NAG B   2      12.153  21.274  37.7060  0.00  0.00     0.000 C
ATOM     31   C  NAG B   2      11.639  22.490  38.4220  0.00  0.00     0.000 C
ATOM     32   O  NAG B   2      12.349  21.300  36.5070  0.00  0.00     0.000 OA
ENDBRANCH 18 30
BRANCH 17 33
ATOM     33  O4  GCU B   3      10.675  18.499  38.5850  0.00  0.00     0.000 O
BRANCH 33 37
ATOM     34  C1  GCU B   3       6.685  17.316  38.6890  0.00  0.00     0.000 C
ATOM     35  C2  GCU B   3       7.639  16.683  39.7030  0.00  0.00     0.000 C
ATOM     36  C3  GCU B   3       8.898  17.518  39.8030  0.00  0.00     0.000 C
ATOM     37  C4  GCU B   3       9.511  17.688  38.4200  0.00  0.00     0.000 C
ATOM     38  C5  GCU B   3       8.488  18.328  37.4790  0.00  0.00     0.000 C
ATOM     39  O5  GCU B   3       7.331  17.487  37.4250  0.00  0.00     0.000 O
ATOM     40   O  GCU B   3       6.988  16.616  40.9730  0.00  0.00     0.000 O
ATOM     42  HD  GCU B   3       7.100  16.806  41.8110  0.00  0.00     0.000 HD
ATOM     42   O  GCU B   3       9.851  16.913  40.6950  0.00  0.00     0.000 O
ATOM     44  HD  GCU B   3       9.963  17.103  41.5320  0.00  0.00     0.000 HD
BRANCH 38 44
ATOM     44   C  GCU B   3       9.016  18.506  36.0780  0.00  0.00     0.000 C
ATOM     45   O  GCU B   3       9.585  19.569  35.7880  0.00  0.00     0.000 OA
ATOM     46   O  GCU B   3       8.878  17.590  35.2450  0.00  0.00     0.000 OA
ENDBRANCH 38 44
BRANCH 34 47
ATOM     47  O3  NAG B   4       5.687  16.474  38.4590  0.00  0.00     0.000 O
BRANCH 47 50
ATOM     48  C1  NAG B   4       2.381  14.989  37.6740  0.00  0.00     0.000 C
ATOM     49  C2  NAG B   4       3.682  15.217  38.4360  0.00  0.00     0.000 C
ATOM     50  C3  NAG B   4       4.317  16.549  38.0700  0.00  0.00     0.000 C
ATOM     51  C4  NAG B   4       4.228  16.885  36.5770  0.00  0.00     0.000 C
ATOM     52  C5  NAG B   4       2.783  16.950  36.1120  0.00  0.00     0.000 C
ATOM     53  O5  NAG B   4       1.944  15.902  36.6450  0.00  0.00     0.000 O
BRANCH 49 56
ATOM     54   N  NAG B   4       3.220  15.689  39.7540  0.00  0.00     0.000 N
ATOM     56  HD  NAG B   4       3.085  16.514  39.9760  0.00  0.00     0.000 HD
ATOM     56   C  NAG B   4       2.540  15.606  42.0820  0.00  0.00     0.000 C
ATOM     57   O  NAG B   4       3.470  13.774  40.9530  0.00  0.00     0.000 OA
ATOM     58   C  NAG B   4       3.127  14.944  40.8740  0.00  0.00     0.000 C
ENDBRANCH 49 56
ATOM     59   O  NAG B   4       1.472  17.357  34.0600  0.00  0.00     0.000 O
ATOM     61  HD  NAG B   4       1.857  16.795  34.5940  0.00  0.00     0.000 HD
ATOM     61   O  NAG B   4       1.472  17.357  34.0600  0.00  0.00     0.000 O
ATOM     63  HD  NAG B   4       1.857  16.795  34.5940  0.00  0.00     0.000 HD
ENDBRANCH 47 50
ENDBRANCH 34 47
ENDBRANCH 33 37
ENDBRANCH 17 33
ENDBRANCH 16 19
ENDBRANCH 1 16
TORSDOF 10
ENDMDL
MODEL 46
REMARK VINA RESULT:      -5.9      9.447     15.530
ROOT
ATOM      1  C1  GCU B   1      16.918  31.066  21.1280  0.00  0.00     0.000 C
ATOM      2  C2  GCU B   1      15.598  31.769  21.4090  0.00  0.00     0.000 C
ATOM      3  C3  GCU B   1      15.397  31.945  22.9060  0.00  0.00     0.000 C
ATOM      4  C4  GCU B   1      15.589  30.616  23.6220  0.00  0.00     0.000 C
ATOM      5  C5  GCU B   1      16.914  29.964  23.2250  0.00  0.00     0.000 C
ATOM      6  O5  GCU B   1      16.948  29.797  21.8010  0.00  0.00     0.000 O
ATOM      7   O  GCU B   1      15.633  33.033  20.7530  0.00  0.00     0.000 O
ATOM      9  HD  GCU B   1      15.034  33.343  20.2100  0.00  0.00     0.000 HD
ATOM      9   O  GCU B   1      14.092  32.459  23.1830  0.00  0.00     0.000 O
ATOM     11  HD  GCU B   1      13.493  32.770  22.6400  0.00  0.00     0.000 HD
ATOM     11   O  GCU B   1      15.565  30.843  25.0310  0.00  0.00     0.000 O
ATOM     13  HD  GCU B   1      14.966  31.154  24.4880  0.00  0.00     0.000 HD
ENDROOT
BRANCH 5 13
ATOM     13   C  GCU B   1      17.084  28.656  23.9590  0.00  0.00     0.000 C
ATOM     14   O  GCU B   1      18.179  28.057  23.9370  0.00  0.00     0.000 OA
ATOM     15   O  GCU B   1      16.105  28.227  24.6000  0.00  0.00     0.000 OA
ENDBRANCH 5 13
BRANCH 1 16
ATOM     16  O3  NAG B   2      17.237  30.332  20.0610  0.00  0.00     0.000 O
BRANCH 16 19
ATOM     17  C1  NAG B   2      19.645  30.692  17.1800  0.00  0.00     0.000 C
ATOM     18  C2  NAG B   2      18.450  31.030  18.0620  0.00  0.00     0.000 C
ATOM     19  C3  NAG B   2      18.449  30.152  19.3120  0.00  0.00     0.000 C
ATOM     20  C4  NAG B   2      18.556  28.677  18.9270  0.00  0.00     0.000 C
ATOM     21  C5  NAG B   2      19.783  28.460  18.0540  0.00  0.00     0.000 C
ATOM     22  O5  NAG B   2      19.673  29.287  16.8820  0.00  0.00     0.000 O
ATOM     23   O  NAG B   2      18.630  27.901  20.1280  0.00  0.00     0.000 O
ATOM     25  HD  NAG B   2      17.912  27.821  19.6500  0.00  0.00     0.000 HD
ATOM     25   C  NAG B   2      19.964  27.000  17.6420  0.00  0.00     0.000 C
ATOM     26   O  NAG B   2      19.002  26.606  16.6520  0.00  0.00     0.000 O
ATOM     28  HD  NAG B   2      18.284  26.526  16.1740  0.00  0.00     0.000 HD
BRANCH 18 30
ATOM     28   N  NAG B   2      18.627  32.466  17.9540  0.00  0.00     0.000 N
ATOM     30  HD  NAG B   2      17.771  32.379  18.0510  0.00  0.00     0.000 HD
ATOM     30   C  NAG B   2      17.615  33.339  17.8880  0.00  0.00     0.000 C
ATOM     31   C  NAG B   2      17.959  34.794  17.7330  0.00  0.00     0.000 C
ATOM     32   O  NAG B   2      16.455  32.982  17.9480  0.00  0.00     0.000 OA
ENDBRANCH 18 30
BRANCH 17 33
ATOM     33  O4  GCU B   3      19.569  31.524  16.0050  0.00  0.00     0.000 O
BRANCH 33 37
ATOM     34  C1  GCU B   3      22.446  32.433  13.1370  0.00  0.00     0.000 C
ATOM     35  C2  GCU B   3      21.604  31.175  12.9240  0.00  0.00     0.000 C
ATOM     36  C3  GCU B   3      20.368  31.238  13.7960  0.00  0.00     0.000 C
ATOM     37  C4  GCU B   3      20.777  31.453  15.2470  0.00  0.00     0.000 C
ATOM     38  C5  GCU B   3      21.611  32.731  15.3620  0.00  0.00     0.000 C
ATOM     39  O5  GCU B   3      22.762  32.602  14.5220  0.00  0.00     0.000 O
ATOM     40   O  GCU B   3      21.232  31.094  11.5460  0.00  0.00     0.000 O
ATOM     42  HD  GCU B   3      20.549  30.976  11.0270  0.00  0.00     0.000 HD
ATOM     42   O  GCU B   3      19.588  30.035  13.6760  0.00  0.00     0.000 O
ATOM     44  HD  GCU B   3      18.905  29.917  13.1570  0.00  0.00     0.000 HD
BRANCH 38 44
ATOM     44   C  GCU B   3      22.075  32.998  16.7720  0.00  0.00     0.000 C
ATOM     45   O  GCU B   3      21.436  33.804  17.4650  0.00  0.00     0.000 OA
ATOM     46   O  GCU B   3      23.080  32.408  17.2130  0.00  0.00     0.000 OA
ENDBRANCH 38 44
BRANCH 34 47
ATOM     47  O3  NAG B   4      23.614  32.273  12.5310  0.00  0.00     0.000 O
BRANCH 47 50
ATOM     48  C1  NAG B   4      27.139  33.076  11.7020  0.00  0.00     0.000 C
ATOM     49  C2  NAG B   4      25.622  33.234  11.7270  0.00  0.00     0.000 C
ATOM     50  C3  NAG B   4      24.996  32.428  12.8520  0.00  0.00     0.000 C
ATOM     51  C4  NAG B   4      25.630  31.046  13.0490  0.00  0.00     0.000 C
ATOM     52  C5  NAG B   4      27.112  31.161  13.3690  0.00  0.00     0.000 C
ATOM     53  O5  NAG B   4      27.811  32.147  12.5780  0.00  0.00     0.000 O
BRANCH 49 56
ATOM     54   N  NAG B   4      25.592  34.556  12.3780  0.00  0.00     0.000 N
ATOM     56  HD  NAG B   4      25.893  34.737  13.1690  0.00  0.00     0.000 HD
ATOM     56   C  NAG B   4      25.111  36.912  12.7080  0.00  0.00     0.000 C
ATOM     57   O  NAG B   4      24.199  35.650  10.9540  0.00  0.00     0.000 OA
ATOM     58   C  NAG B   4      24.923  35.641  11.9380  0.00  0.00     0.000 C
ENDBRANCH 49 56
ATOM     59   O  NAG B   4      29.064  29.725  13.8360  0.00  0.00     0.000 O
ATOM     61  HD  NAG B   4      28.586  30.162  13.2610  0.00  0.00     0.000 HD
ATOM     61   O  NAG B   4      29.064  29.725  13.8360  0.00  0.00     0.000 O
ATOM     63  HD  NAG B   4      28.586  30.162  13.2610  0.00  0.00     0.000 HD
ENDBRANCH 47 50
ENDBRANCH 34 47
ENDBRANCH 33 37
ENDBRANCH 17 33
ENDBRANCH 16 19
ENDBRANCH 1 16
TORSDOF 10
ENDMDL
MODEL 47
REMARK VINA RESULT:      -5.9     22.451     27.188
ROOT
ATOM      1  C1  GCU B   1       2.558  33.170  25.2420  0.00  0.00     0.000 C
ATOM      2  C2  GCU B   1       2.445  31.841  24.5110  0.00  0.00     0.000 C
ATOM      3  C3  GCU B   1       1.599  30.863  25.3120  0.00  0.00     0.000 C
ATOM      4  C4  GCU B   1       2.110  30.775  26.7410  0.00  0.00     0.000 C
ATOM      5  C5  GCU B   1       2.245  32.165  27.3640  0.00  0.00     0.000 C
ATOM      6  O5  GCU B   1       3.116  32.962  26.5500  0.00  0.00     0.000 O
ATOM      7   O  GCU B   1       1.855  32.095  23.2400  0.00  0.00     0.000 O
ATOM      9  HD  GCU B   1       2.169  31.847  22.4720  0.00  0.00     0.000 HD
ATOM      9   O  GCU B   1       1.621  29.567  24.7090  0.00  0.00     0.000 O
ATOM     11  HD  GCU B   1       1.935  29.318  23.9410  0.00  0.00     0.000 HD
ATOM     11   O  GCU B   1       1.199  29.987  27.5090  0.00  0.00     0.000 O
ATOM     13  HD  GCU B   1       1.513  29.739  26.7410  0.00  0.00     0.000 HD
ENDROOT
BRANCH 5 13
ATOM     13   C  GCU B   1       2.740  32.046  28.7860  0.00  0.00     0.000 C
ATOM     14   O  GCU B   1       1.978  31.641  29.6880  0.00  0.00     0.000 OA
ATOM     15   O  GCU B   1       3.932  32.337  29.0050  0.00  0.00     0.000 OA
ENDBRANCH 5 13
BRANCH 1 16
ATOM     16  O3  NAG B   2       3.535  34.074  25.1410  0.00  0.00     0.000 O
BRANCH 16 19
ATOM     17  C1  NAG B   2       3.727  37.581  23.7670  0.00  0.00     0.000 C
ATOM     18  C2  NAG B   2       3.509  36.074  23.7430  0.00  0.00     0.000 C
ATOM     19  C3  NAG B   2       3.557  35.509  25.1620  0.00  0.00     0.000 C
ATOM     20  C4  NAG B   2       4.837  35.955  25.8690  0.00  0.00     0.000 C
ATOM     21  C5  NAG B   2       4.944  37.472  25.8330  0.00  0.00     0.000 C
ATOM     22  O5  NAG B   2       4.941  37.907  24.4620  0.00  0.00     0.000 O
ATOM     23   O  NAG B   2       4.801  35.469  27.2150  0.00  0.00     0.000 O
ATOM     25  HD  NAG B   2       5.391  35.120  26.6860  0.00  0.00     0.000 HD
ATOM     25   C  NAG B   2       6.195  37.992  26.5380  0.00  0.00     0.000 C
ATOM     26   O  NAG B   2       7.381  37.738  25.7690  0.00  0.00     0.000 O
ATOM     28  HD  NAG B   2       7.971  37.390  25.2400  0.00  0.00     0.000 HD
BRANCH 18 30
ATOM     28   N  NAG B   2       2.372  36.112  22.8430  0.00  0.00     0.000 N
ATOM     30  HD  NAG B   2       2.763  35.367  22.6360  0.00  0.00     0.000 HD
ATOM     30   C  NAG B   2       2.164  35.219  21.8670  0.00  0.00     0.000 C
ATOM     31   C  NAG B   2       0.962  35.419  20.9860  0.00  0.00     0.000 C
ATOM     32   O  NAG B   2       2.912  34.279  21.6870  0.00  0.00     0.000 OA
ENDBRANCH 18 30
BRANCH 17 33
ATOM     33  O4  GCU B   3       3.707  38.046  22.4020  0.00  0.00     0.000 O
BRANCH 33 37
ATOM     34  C1  GCU B   3       3.526  41.907  20.8550  0.00  0.00     0.000 C
ATOM     35  C2  GCU B   3       4.907  41.338  21.1840  0.00  0.00     0.000 C
ATOM     36  C3  GCU B   3       4.817  39.833  21.3170  0.00  0.00     0.000 C
ATOM     37  C4  GCU B   3       3.753  39.473  22.3450  0.00  0.00     0.000 C
ATOM     38  C5  GCU B   3       2.411  40.080  21.9310  0.00  0.00     0.000 C
ATOM     39  O5  GCU B   3       2.565  41.500  21.8330  0.00  0.00     0.000 O
ATOM     40   O  GCU B   3       5.814  41.688  20.1370  0.00  0.00     0.000 O
ATOM     42  HD  GCU B   3       6.407  41.351  19.6040  0.00  0.00     0.000 HD
ATOM     42   O  GCU B   3       6.085  39.269  21.6980  0.00  0.00     0.000 O
ATOM     44  HD  GCU B   3       6.678  38.932  21.1650  0.00  0.00     0.000 HD
BRANCH 38 44
ATOM     44   C  GCU B   3       1.310  39.786  22.9190  0.00  0.00     0.000 C
ATOM     45   O  GCU B   3       1.161  40.548  23.8860  0.00  0.00     0.000 OA
ATOM     46   O  GCU B   3       0.575  38.795  22.7470  0.00  0.00     0.000 OA
ENDBRANCH 38 44
BRANCH 34 47
ATOM     47  O3  NAG B   4       3.576  43.228  20.9450  0.00  0.00     0.000 O
BRANCH 47 50
ATOM     48  C1  NAG B   4       4.069  46.802  20.0860  0.00  0.00     0.000 C
ATOM     49  C2  NAG B   4       4.400  45.429  20.6610  0.00  0.00     0.000 C
ATOM     50  C3  NAG B   4       3.518  44.346  20.0610  0.00  0.00     0.000 C
ATOM     51  C4  NAG B   4       2.057  44.772  19.8740  0.00  0.00     0.000 C
ATOM     52  C5  NAG B   4       1.949  45.979  18.9560  0.00  0.00     0.000 C
ATOM     53  O5  NAG B   4       2.950  46.993  19.1950  0.00  0.00     0.000 O
BRANCH 49 56
ATOM     54   N  NAG B   4       5.609  44.887  20.0160  0.00  0.00     0.000 N
ATOM     56  HD  NAG B   4       5.660  44.137  19.5870  0.00  0.00     0.000 HD
ATOM     56   C  NAG B   4       7.930  44.716  19.3290  0.00  0.00     0.000 C
ATOM     57   O  NAG B   4       7.169  46.290  20.8910  0.00  0.00     0.000 OA
ATOM     58   C  NAG B   4       6.862  45.363  20.1560  0.00  0.00     0.000 C
ENDBRANCH 49 56
ATOM     59   O  NAG B   4       0.240  47.479  17.9950  0.00  0.00     0.000 O
ATOM     61  HD  NAG B   4       0.809  47.312  18.6260  0.00  0.00     0.000 HD
ATOM     61   O  NAG B   4       0.240  47.479  17.9950  0.00  0.00     0.000 O
ATOM     63  HD  NAG B   4       0.809  47.312  18.6260  0.00  0.00     0.000 HD
ENDBRANCH 47 50
ENDBRANCH 34 47
ENDBRANCH 33 37
ENDBRANCH 17 33
ENDBRANCH 16 19
ENDBRANCH 1 16
TORSDOF 10
ENDMDL
MODEL 48
REMARK VINA RESULT:      -5.8      9.139     15.304
ROOT
ATOM      1  C1  GCU B   1      16.585  33.056  23.8780  0.00  0.00     0.000 C
ATOM      2  C2  GCU B   1      17.174  32.743  25.2450  0.00  0.00     0.000 C
ATOM      3  C3  GCU B   1      16.154  32.019  26.1100  0.00  0.00     0.000 C
ATOM      4  C4  GCU B   1      14.842  32.787  26.1300  0.00  0.00     0.000 C
ATOM      5  C5  GCU B   1      14.369  33.104  24.7100  0.00  0.00     0.000 C
ATOM      6  O5  GCU B   1      15.392  33.841  24.0270  0.00  0.00     0.000 O
ATOM      7   O  GCU B   1      18.330  31.936  25.0430  0.00  0.00     0.000 O
ATOM      9  HD  GCU B   1      19.120  32.086  25.3640  0.00  0.00     0.000 HD
ATOM      9   O  GCU B   1      16.645  31.864  27.4440  0.00  0.00     0.000 O
ATOM     11  HD  GCU B   1      17.435  32.015  27.7640  0.00  0.00     0.000 HD
ATOM     11   O  GCU B   1      13.858  32.002  26.8040  0.00  0.00     0.000 O
ATOM     13  HD  GCU B   1      14.648  32.153  27.1240  0.00  0.00     0.000 HD
ENDROOT
BRANCH 5 13
ATOM     13   C  GCU B   1      13.059  33.854  24.7610  0.00  0.00     0.000 C
ATOM     14   O  GCU B   1      11.976  33.233  24.7810  0.00  0.00     0.000 OA
ATOM     15   O  GCU B   1      13.111  35.098  24.8090  0.00  0.00     0.000 OA
ENDBRANCH 5 13
BRANCH 1 16
ATOM     16  O3  NAG B   2      16.939  34.038  23.0450  0.00  0.00     0.000 O
BRANCH 16 19
ATOM     17  C1  NAG B   2      18.331  33.837  19.5450  0.00  0.00     0.000 C
ATOM     18  C2  NAG B   2      18.226  33.534  21.0340  0.00  0.00     0.000 C
ATOM     19  C3  NAG B   2      16.959  34.159  21.6140  0.00  0.00     0.000 C
ATOM     20  C4  NAG B   2      16.890  35.645  21.2620  0.00  0.00     0.000 C
ATOM     21  C5  NAG B   2      17.000  35.824  19.7550  0.00  0.00     0.000 C
ATOM     22  O5  NAG B   2      18.241  35.251  19.3080  0.00  0.00     0.000 O
ATOM     23   O  NAG B   2      15.652  36.169  21.7580  0.00  0.00     0.000 O
ATOM     25  HD  NAG B   2      16.379  36.445  22.1390  0.00  0.00     0.000 HD
ATOM     25   C  NAG B   2      16.922  37.287  19.3270  0.00  0.00     0.000 C
ATOM     26   O  NAG B   2      18.125  38.000  19.6520  0.00  0.00     0.000 O
ATOM     28  HD  NAG B   2      18.852  38.276  20.0340  0.00  0.00     0.000 HD
BRANCH 18 30
ATOM     28   N  NAG B   2      18.432  32.098  21.0020  0.00  0.00     0.000 N
ATOM     30  HD  NAG B   2      18.923  32.353  21.6680  0.00  0.00     0.000 HD
ATOM     30   C  NAG B   2      19.310  31.453  21.7790  0.00  0.00     0.000 C
ATOM     31   C  NAG B   2      19.441  29.966  21.5970  0.00  0.00     0.000 C
ATOM     32   O  NAG B   2      19.986  32.036  22.6030  0.00  0.00     0.000 OA
ENDBRANCH 18 30
BRANCH 17 33
ATOM     33  O4  GCU B   3      19.559  33.253  19.0670  0.00  0.00     0.000 O
BRANCH 33 37
ATOM     34  C1  GCU B   3      20.497  31.665  15.3340  0.00  0.00     0.000 C
ATOM     35  C2  GCU B   3      20.845  33.132  15.5890  0.00  0.00     0.000 C
ATOM     36  C3  GCU B   3      20.834  33.404  17.0790  0.00  0.00     0.000 C
ATOM     37  C4  GCU B   3      19.492  32.991  17.6640  0.00  0.00     0.000 C
ATOM     38  C5  GCU B   3      19.232  31.513  17.3630  0.00  0.00     0.000 C
ATOM     39  O5  GCU B   3      19.248  31.328  15.9440  0.00  0.00     0.000 O
ATOM     40   O  GCU B   3      22.139  33.402  15.0470  0.00  0.00     0.000 O
ATOM     42  HD  GCU B   3      22.905  33.756  15.2460  0.00  0.00     0.000 HD
ATOM     42   O  GCU B   3      21.087  34.794  17.3530  0.00  0.00     0.000 O
ATOM     44  HD  GCU B   3      21.852  35.147  17.5510  0.00  0.00     0.000 HD
BRANCH 38 44
ATOM     44   C  GCU B   3      17.903  31.036  17.8930  0.00  0.00     0.000 C
ATOM     45   O  GCU B   3      16.891  31.712  17.6520  0.00  0.00     0.000 OA
ATOM     46   O  GCU B   3      17.844  29.982  18.5530  0.00  0.00     0.000 OA
ENDBRANCH 38 44
BRANCH 34 47
ATOM     47  O3  NAG B   4      20.308  31.491  14.0340  0.00  0.00     0.000 O
BRANCH 47 50
ATOM     48  C1  NAG B   4      21.463  28.325  12.4850  0.00  0.00     0.000 C
ATOM     49  C2  NAG B   4      21.155  29.324  13.5950  0.00  0.00     0.000 C
ATOM     50  C3  NAG B   4      20.185  30.397  13.1260  0.00  0.00     0.000 C
ATOM     51  C4  NAG B   4      20.451  30.888  11.6990  0.00  0.00     0.000 C
ATOM     52  C5  NAG B   4      20.355  29.749  10.6970  0.00  0.00     0.000 C
ATOM     53  O5  NAG B   4      20.971  28.520  11.1420  0.00  0.00     0.000 O
BRANCH 49 56
ATOM     54   N  NAG B   4      20.163  28.544  14.3550  0.00  0.00     0.000 N
ATOM     56  HD  NAG B   4      19.344  28.395  14.1140  0.00  0.00     0.000 HD
ATOM     56   C  NAG B   4      19.202  27.247  16.1670  0.00  0.00     0.000 C
ATOM     57   O  NAG B   4      21.262  28.355  16.3360  0.00  0.00     0.000 OA
ATOM     58   C  NAG B   4      20.300  28.108  15.6230  0.00  0.00     0.000 C
ENDBRANCH 49 56
ATOM     59   O  NAG B   4      20.590  29.332   8.2750  0.00  0.00     0.000 O
ATOM     61  HD  NAG B   4      20.950  29.349   9.0630  0.00  0.00     0.000 HD
ATOM     61   O  NAG B   4      20.590  29.332   8.2750  0.00  0.00     0.000 O
ATOM     63  HD  NAG B   4      20.950  29.349   9.0630  0.00  0.00     0.000 HD
ENDBRANCH 47 50
ENDBRANCH 34 47
ENDBRANCH 33 37
ENDBRANCH 17 33
ENDBRANCH 16 19
ENDBRANCH 1 16
TORSDOF 10
ENDMDL
MODEL 49
REMARK VINA RESULT:      -5.8     25.694     32.012
ROOT
ATOM      1  C1  GCU B   1      11.517  55.935   7.0940  0.00  0.00     0.000 C
ATOM      2  C2  GCU B   1      11.596  57.248   7.8580  0.00  0.00     0.000 C
ATOM      3  C3  GCU B   1      10.432  57.368   8.8300  0.00  0.00     0.000 C
ATOM      4  C4  GCU B   1       9.117  57.116   8.1100  0.00  0.00     0.000 C
ATOM      5  C5  GCU B   1       9.163  55.804   7.3250  0.00  0.00     0.000 C
ATOM      6  O5  GCU B   1      10.260  55.846   6.4030  0.00  0.00     0.000 O
ATOM      7   O  GCU B   1      12.838  57.270   8.5530  0.00  0.00     0.000 O
ATOM      9  HD  GCU B   1      13.429  57.903   8.5240  0.00  0.00     0.000 HD
ATOM      9   O  GCU B   1      10.412  58.665   9.4340  0.00  0.00     0.000 O
ATOM     11  HD  GCU B   1      11.002  59.298   9.4050  0.00  0.00     0.000 HD
ATOM     11   O  GCU B   1       8.065  57.065   9.0740  0.00  0.00     0.000 O
ATOM     13  HD  GCU B   1       8.655  57.699   9.0460  0.00  0.00     0.000 HD
ENDROOT
BRANCH 5 13
ATOM     13   C  GCU B   1       7.841  55.573   6.6330  0.00  0.00     0.000 C
ATOM     14   O  GCU B   1       7.162  56.539   6.2310  0.00  0.00     0.000 OA
ATOM     15   O  GCU B   1       7.483  54.392   6.4600  0.00  0.00     0.000 OA
ENDBRANCH 5 13
BRANCH 1 16
ATOM     16  O3  NAG B   2      12.021  55.664   5.8890  0.00  0.00     0.000 O
BRANCH 16 19
ATOM     17  C1  NAG B   2      14.431  52.942   4.8830  0.00  0.00     0.000 C
ATOM     18  C2  NAG B   2      13.892  54.109   5.7010  0.00  0.00     0.000 C
ATOM     19  C3  NAG B   2      12.472  54.456   5.2560  0.00  0.00     0.000 C
ATOM     20  C4  NAG B   2      12.424  54.665   3.7430  0.00  0.00     0.000 C
ATOM     21  C5  NAG B   2      12.981  53.438   3.0350  0.00  0.00     0.000 C
ATOM     22  O5  NAG B   2      14.333  53.219   3.4770  0.00  0.00     0.000 O
ATOM     23   O  NAG B   2      11.065  54.910   3.3650  0.00  0.00     0.000 O
ATOM     25  HD  NAG B   2      11.621  55.570   3.2890  0.00  0.00     0.000 HD
ATOM     25   C  NAG B   2      12.950  53.569   1.5140  0.00  0.00     0.000 C
ATOM     26   O  NAG B   2      13.949  54.485   1.0400  0.00  0.00     0.000 O
ATOM     28  HD  NAG B   2      14.505  55.145   0.9640  0.00  0.00     0.000 HD
BRANCH 18 30
ATOM     28   N  NAG B   2      14.278  53.593   7.0010  0.00  0.00     0.000 N
ATOM     30  HD  NAG B   2      14.402  54.447   7.0820  0.00  0.00     0.000 HD
ATOM     30   C  NAG B   2      14.820  54.342   7.9690  0.00  0.00     0.000 C
ATOM     31   C  NAG B   2      15.209  53.653   9.2470  0.00  0.00     0.000 C
ATOM     32   O  NAG B   2      15.000  55.535   7.8320  0.00  0.00     0.000 OA
ENDBRANCH 18 30
BRANCH 17 33
ATOM     33  O4  GCU B   3      15.780  52.688   5.3230  0.00  0.00     0.000 O
BRANCH 33 37
ATOM     34  C1  GCU B   3      18.232  49.364   4.8010  0.00  0.00     0.000 C
ATOM     35  C2  GCU B   3      18.185  50.396   3.6740  0.00  0.00     0.000 C
ATOM     36  C3  GCU B   3      17.610  51.694   4.1980  0.00  0.00     0.000 C
ATOM     37  C4  GCU B   3      16.252  51.431   4.8340  0.00  0.00     0.000 C
ATOM     38  C5  GCU B   3      16.398  50.393   5.9480  0.00  0.00     0.000 C
ATOM     39  O5  GCU B   3      16.938  49.193   5.3850  0.00  0.00     0.000 O
ATOM     40   O  GCU B   3      19.511  50.606   3.1820  0.00  0.00     0.000 O
ATOM     42  HD  GCU B   3      20.079  51.230   2.9900  0.00  0.00     0.000 HD
ATOM     42   O  GCU B   3      17.483  52.667   3.1450  0.00  0.00     0.000 O
ATOM     44  HD  GCU B   3      18.051  53.291   2.9520  0.00  0.00     0.000 HD
BRANCH 38 44
ATOM     44   C  GCU B   3      15.084  50.062   6.6110  0.00  0.00     0.000 C
ATOM     45   O  GCU B   3      14.787  50.645   7.6650  0.00  0.00     0.000 OA
ATOM     46   O  GCU B   3      14.326  49.220   6.0920  0.00  0.00     0.000 OA
ENDBRANCH 38 44
BRANCH 34 47
ATOM     47  O3  NAG B   4      18.541  48.182   4.2870  0.00  0.00     0.000 O
BRANCH 47 50
ATOM     48  C1  NAG B   4      21.649  46.662   5.6210  0.00  0.00     0.000 C
ATOM     49  C2  NAG B   4      20.449  47.601   5.5610  0.00  0.00     0.000 C
ATOM     50  C3  NAG B   4      19.377  47.075   4.6200  0.00  0.00     0.000 C
ATOM     51  C4  NAG B   4      19.934  46.453   3.3340  0.00  0.00     0.000 C
ATOM     52  C5  NAG B   4      20.853  45.282   3.6430  0.00  0.00     0.000 C
ATOM     53  O5  NAG B   4      21.746  45.511   4.7550  0.00  0.00     0.000 O
BRANCH 49 56
ATOM     54   N  NAG B   4      19.776  47.199   6.8080  0.00  0.00     0.000 N
ATOM     56  HD  NAG B   4      19.351  46.456   6.9370  0.00  0.00     0.000 HD
ATOM     56   C  NAG B   4      18.925  47.348   9.0770  0.00  0.00     0.000 C
ATOM     57   O  NAG B   4      19.813  49.183   7.9170  0.00  0.00     0.000 OA
ATOM     58   C  NAG B   4      19.540  47.993   7.8720  0.00  0.00     0.000 C
ENDBRANCH 49 56
ATOM     59   O  NAG B   4      22.260  43.622   2.4770  0.00  0.00     0.000 O
ATOM     61  HD  NAG B   4      22.192  44.391   2.8690  0.00  0.00     0.000 HD
ATOM     61   O  NAG B   4      22.260  43.622   2.4770  0.00  0.00     0.000 O
ATOM     63  HD  NAG B   4      22.192  44.391   2.8690  0.00  0.00     0.000 HD
ENDBRANCH 47 50
ENDBRANCH 34 47
ENDBRANCH 33 37
ENDBRANCH 17 33
ENDBRANCH 16 19
ENDBRANCH 1 16
TORSDOF 10
ENDMDL
MODEL 50
REMARK VINA RESULT:      -5.8     16.229     22.424
ROOT
ATOM      1  C1  GCU B   1       8.260  42.718  21.8980  0.00  0.00     0.000 C
ATOM      2  C2  GCU B   1       7.538  43.556  22.9420  0.00  0.00     0.000 C
ATOM      3  C3  GCU B   1       6.177  42.955  23.2580  0.00  0.00     0.000 C
ATOM      4  C4  GCU B   1       5.400  42.709  21.9730  0.00  0.00     0.000 C
ATOM      5  C5  GCU B   1       6.235  41.913  20.9690  0.00  0.00     0.000 C
ATOM      6  O5  GCU B   1       7.456  42.617  20.7110  0.00  0.00     0.000 O
ATOM      7   O  GCU B   1       8.355  43.593  24.1070  0.00  0.00     0.000 O
ATOM      9  HD  GCU B   1       8.608  44.305  24.5310  0.00  0.00     0.000 HD
ATOM      9   O  GCU B   1       5.430  43.821  24.1160  0.00  0.00     0.000 O
ATOM     11  HD  GCU B   1       5.683  44.533  24.5400  0.00  0.00     0.000 HD
ATOM     11   O  GCU B   1       4.206  41.991  22.2860  0.00  0.00     0.000 O
ATOM     13  HD  GCU B   1       4.459  42.703  22.7100  0.00  0.00     0.000 HD
ENDROOT
BRANCH 5 13
ATOM     13   C  GCU B   1       5.434  41.672  19.7120  0.00  0.00     0.000 C
ATOM     14   O  GCU B   1       4.386  42.314  19.4990  0.00  0.00     0.000 OA
ATOM     15   O  GCU B   1       5.879  40.838  18.8990  0.00  0.00     0.000 OA
ENDBRANCH 5 13
BRANCH 1 16
ATOM     16  O3  NAG B   2       9.199  43.120  21.0390  0.00  0.00     0.000 O
BRANCH 16 19
ATOM     17  C1  NAG B   2      12.521  41.482  20.3270  0.00  0.00     0.000 C
ATOM     18  C2  NAG B   2      11.381  42.037  21.1720  0.00  0.00     0.000 C
ATOM     19  C3  NAG B   2      10.204  42.430  20.2810  0.00  0.00     0.000 C
ATOM     20  C4  NAG B   2      10.672  43.356  19.1580  0.00  0.00     0.000 C
ATOM     21  C5  NAG B   2      11.804  42.696  18.3840  0.00  0.00     0.000 C
ATOM     22  O5  NAG B   2      12.883  42.409  19.2910  0.00  0.00     0.000 O
ATOM     23   O  NAG B   2       9.554  43.633  18.3070  0.00  0.00     0.000 O
ATOM     25  HD  NAG B   2       9.865  44.290  18.7780  0.00  0.00     0.000 HD
ATOM     25   C  NAG B   2      12.313  43.560  17.2320  0.00  0.00     0.000 C
ATOM     26   O  NAG B   2      13.083  44.676  17.7050  0.00  0.00     0.000 O
ATOM     28  HD  NAG B   2      13.394  45.333  18.1760  0.00  0.00     0.000 HD
BRANCH 18 30
ATOM     28   N  NAG B   2      11.354  40.981  22.1650  0.00  0.00     0.000 N
ATOM     30  HD  NAG B   2      11.206  41.695  22.6320  0.00  0.00     0.000 HD
ATOM     30   C  NAG B   2      11.259  41.198  23.4830  0.00  0.00     0.000 C
ATOM     31   C  NAG B   2      11.289  40.001  24.3900  0.00  0.00     0.000 C
ATOM     32   O  NAG B   2      11.155  42.318  23.9420  0.00  0.00     0.000 OA
ENDBRANCH 18 30
BRANCH 17 33
ATOM     33  O4  GCU B   3      13.610  41.165  21.2170  0.00  0.00     0.000 O
BRANCH 33 37
ATOM     34  C1  GCU B   3      16.739  38.444  20.8520  0.00  0.00     0.000 C
ATOM     35  C2  GCU B   3      16.827  39.739  20.0440  0.00  0.00     0.000 C
ATOM     36  C3  GCU B   3      15.861  40.757  20.6120  0.00  0.00     0.000 C
ATOM     37  C4  GCU B   3      14.460  40.165  20.6540  0.00  0.00     0.000 C
ATOM     38  C5  GCU B   3      14.469  38.878  21.4820  0.00  0.00     0.000 C
ATOM     39  O5  GCU B   3      15.393  37.961  20.8880  0.00  0.00     0.000 O
ATOM     40   O  GCU B   3      18.165  40.237  20.1110  0.00  0.00     0.000 O
ATOM     42  HD  GCU B   3      18.621  40.954  20.2770  0.00  0.00     0.000 HD
ATOM     42   O  GCU B   3      15.864  41.966  19.8310  0.00  0.00     0.000 O
ATOM     44  HD  GCU B   3      16.321  42.683  19.9970  0.00  0.00     0.000 HD
BRANCH 38 44
ATOM     44   C  GCU B   3      13.115  38.218  21.5480  0.00  0.00     0.000 C
ATOM     45   O  GCU B   3      12.818  37.571  22.5630  0.00  0.00     0.000 OA
ATOM     46   O  GCU B   3      12.324  38.335  20.5920  0.00  0.00     0.000 OA
ENDBRANCH 38 44
BRANCH 34 47
ATOM     47  O3  NAG B   4      17.429  37.502  20.2250  0.00  0.00     0.000 O
BRANCH 47 50
ATOM     48  C1  NAG B   4      16.507  37.019  16.6650  0.00  0.00     0.000 C
ATOM     49  C2  NAG B   4      17.103  37.706  17.8890  0.00  0.00     0.000 C
ATOM     50  C3  NAG B   4      17.309  36.726  19.0330  0.00  0.00     0.000 C
ATOM     51  C4  NAG B   4      16.166  35.717  19.1960  0.00  0.00     0.000 C
ATOM     52  C5  NAG B   4      15.984  34.884  17.9380  0.00  0.00     0.000 C
ATOM     53  O5  NAG B   4      16.083  35.640  16.7110  0.00  0.00     0.000 O
BRANCH 49 56
ATOM     54   N  NAG B   4      18.530  37.766  17.5270  0.00  0.00     0.000 N
ATOM     56  HD  NAG B   4      19.106  37.127  17.6320  0.00  0.00     0.000 HD
ATOM     56   C  NAG B   4      20.636  38.686  16.7460  0.00  0.00     0.000 C
ATOM     57   O  NAG B   4      18.733  39.997  17.1440  0.00  0.00     0.000 OA
ATOM     58   C  NAG B   4      19.210  38.872  17.1660  0.00  0.00     0.000 C
ENDBRANCH 49 56
ATOM     59   O  NAG B   4      14.551  33.079  17.0530  0.00  0.00     0.000 O
ATOM     61  HD  NAG B   4      14.707  33.927  17.1390  0.00  0.00     0.000 HD
ATOM     61   O  NAG B   4      14.551  33.079  17.0530  0.00  0.00     0.000 O
ATOM     63  HD  NAG B   4      14.707  33.927  17.1390  0.00  0.00     0.000 HD
ENDBRANCH 47 50
ENDBRANCH 34 47
ENDBRANCH 33 37
ENDBRANCH 17 33
ENDBRANCH 16 19
ENDBRANCH 1 16
TORSDOF 10
ENDMDL
MODEL 51
REMARK VINA RESULT:      -5.8     18.354     24.776
ROOT
ATOM      1  C1  GCU B   1      16.787  49.284   7.3580  0.00  0.00     0.000 C
ATOM      2  C2  GCU B   1      16.215  50.292   8.3420  0.00  0.00     0.000 C
ATOM      3  C3  GCU B   1      14.800  50.681   7.9420  0.00  0.00     0.000 C
ATOM      4  C4  GCU B   1      14.764  51.107   6.4830  0.00  0.00     0.000 C
ATOM      5  C5  GCU B   1      15.418  50.054   5.5860  0.00  0.00     0.000 C
ATOM      6  O5  GCU B   1      16.763  49.829   6.0290  0.00  0.00     0.000 O
ATOM      7   O  GCU B   1      16.227  49.692   9.6340  0.00  0.00     0.000 O
ATOM      9  HD  GCU B   1      16.569  50.033  10.3520  0.00  0.00     0.000 HD
ATOM      9   O  GCU B   1      14.317  51.743   8.7690  0.00  0.00     0.000 O
ATOM     11  HD  GCU B   1      14.658  52.085   9.4870  0.00  0.00     0.000 HD
ATOM     11   O  GCU B   1      13.405  51.300   6.0910  0.00  0.00     0.000 O
ATOM     13  HD  GCU B   1      13.746  51.641   6.8100  0.00  0.00     0.000 HD
ENDROOT
BRANCH 5 13
ATOM     13   C  GCU B   1      15.356  50.497   4.1440  0.00  0.00     0.000 C
ATOM     14   O  GCU B   1      14.967  51.647   3.8530  0.00  0.00     0.000 OA
ATOM     15   O  GCU B   1      15.731  49.684   3.2780  0.00  0.00     0.000 OA
ENDBRANCH 5 13
BRANCH 1 16
ATOM     16  O3  NAG B   2      18.073  49.063   7.0750  0.00  0.00     0.000 O
BRANCH 16 19
ATOM     17  C1  NAG B   2      20.507  46.263   7.7560  0.00  0.00     0.000 C
ATOM     18  C2  NAG B   2      19.551  47.403   8.0830  0.00  0.00     0.000 C
ATOM     19  C3  NAG B   2      18.837  47.875   6.8170  0.00  0.00     0.000 C
ATOM     20  C4  NAG B   2      19.853  48.192   5.7200  0.00  0.00     0.000 C
ATOM     21  C5  NAG B   2      20.746  46.983   5.4790  0.00  0.00     0.000 C
ATOM     22  O5  NAG B   2      21.412  46.644   6.7080  0.00  0.00     0.000 O
ATOM     23   O  NAG B   2      19.137  48.553   4.5330  0.00  0.00     0.000 O
ATOM     25  HD  NAG B   2      19.590  49.178   4.9270  0.00  0.00     0.000 HD
ATOM     25   C  NAG B   2      21.779  47.223   4.3800  0.00  0.00     0.000 C
ATOM     26   O  NAG B   2      22.827  48.100   4.8190  0.00  0.00     0.000 O
ATOM     28  HD  NAG B   2      23.280  48.725   5.2130  0.00  0.00     0.000 HD
BRANCH 18 30
ATOM     28   N  NAG B   2      19.654  47.609   9.5150  0.00  0.00     0.000 N
ATOM     30  HD  NAG B   2      18.864  47.268   9.4210  0.00  0.00     0.000 HD
ATOM     30   C  NAG B   2      18.644  47.414  10.3710  0.00  0.00     0.000 C
ATOM     31   C  NAG B   2      18.894  47.714  11.8230  0.00  0.00     0.000 C
ATOM     32   O  NAG B   2      17.559  47.012  10.0020  0.00  0.00     0.000 OA
ENDBRANCH 18 30
BRANCH 17 33
ATOM     33  O4  GCU B   3      21.173  45.889   8.9790  0.00  0.00     0.000 O
BRANCH 33 37
ATOM     34  C1  GCU B   3      22.853  42.274  10.1800  0.00  0.00     0.000 C
ATOM     35  C2  GCU B   3      23.661  43.148   9.2200  0.00  0.00     0.000 C
ATOM     36  C3  GCU B   3      23.114  44.560   9.2370  0.00  0.00     0.000 C
ATOM     37  C4  GCU B   3      21.624  44.535   8.9240  0.00  0.00     0.000 C
ATOM     38  C5  GCU B   3      20.902  43.641   9.9340  0.00  0.00     0.000 C
ATOM     39  O5  GCU B   3      21.460  42.325   9.8600  0.00  0.00     0.000 O
ATOM     40   O  GCU B   3      25.030  43.144   9.6290  0.00  0.00     0.000 O
ATOM     42  HD  GCU B   3      25.696  43.671   9.8000  0.00  0.00     0.000 HD
ATOM     42   O  GCU B   3      23.804  45.394   8.2900  0.00  0.00     0.000 O
ATOM     44  HD  GCU B   3      24.470  45.922   8.4600  0.00  0.00     0.000 HD
BRANCH 38 44
ATOM     44   C  GCU B   3      19.419  43.547   9.6720  0.00  0.00     0.000 C
ATOM     45   O  GCU B   3      19.037  43.170   8.5530  0.00  0.00     0.000 OA
ATOM     46   O  GCU B   3      18.612  43.842  10.5730  0.00  0.00     0.000 OA
ENDBRANCH 38 44
BRANCH 34 47
ATOM     47  O3  NAG B   4      23.204  41.008  10.0030  0.00  0.00     0.000 O
BRANCH 47 50
ATOM     48  C1  NAG B   4      24.092  37.582  11.1120  0.00  0.00     0.000 C
ATOM     49  C2  NAG B   4      23.593  38.680  10.1780  0.00  0.00     0.000 C
ATOM     50  C3  NAG B   4      24.055  40.054  10.6350  0.00  0.00     0.000 C
ATOM     51  C4  NAG B   4      23.998  40.250  12.1550  0.00  0.00     0.000 C
ATOM     52  C5  NAG B   4      24.872  39.236  12.8740  0.00  0.00     0.000 C
ATOM     53  O5  NAG B   4      24.787  37.898  12.3360  0.00  0.00     0.000 O
BRANCH 49 56
ATOM     54   N  NAG B   4      24.553  38.617   9.0610  0.00  0.00     0.000 N
ATOM     56  HD  NAG B   4      25.303  39.047   9.0140  0.00  0.00     0.000 HD
ATOM     56   C  NAG B   4      25.488  38.012   6.9040  0.00  0.00     0.000 C
ATOM     57   O  NAG B   4      23.273  37.545   7.5190  0.00  0.00     0.000 OA
ATOM     58   C  NAG B   4      24.335  38.046   7.8600  0.00  0.00     0.000 C
ENDBRANCH 49 56
ATOM     59   O  NAG B   4      25.527  38.588  15.1640  0.00  0.00     0.000 O
ATOM     61  HD  NAG B   4      24.999  38.482  14.4870  0.00  0.00     0.000 HD
ATOM     61   O  NAG B   4      25.527  38.588  15.1640  0.00  0.00     0.000 O
ATOM     63  HD  NAG B   4      24.999  38.482  14.4870  0.00  0.00     0.000 HD
ENDBRANCH 47 50
ENDBRANCH 34 47
ENDBRANCH 33 37
ENDBRANCH 17 33
ENDBRANCH 16 19
ENDBRANCH 1 16
TORSDOF 10
ENDMDL
MODEL 52
REMARK VINA RESULT:      -5.8     15.515     21.883
ROOT
ATOM      1  C1  GCU B   1      13.592  12.494  24.3560  0.00  0.00     0.000 C
ATOM      2  C2  GCU B   1      14.681  13.187  23.5520  0.00  0.00     0.000 C
ATOM      3  C3  GCU B   1      14.113  13.742  22.2550  0.00  0.00     0.000 C
ATOM      4  C4  GCU B   1      13.349  12.659  21.5100  0.00  0.00     0.000 C
ATOM      5  C5  GCU B   1      12.323  11.984  22.4220  0.00  0.00     0.000 C
ATOM      6  O5  GCU B   1      12.995  11.449  23.5700  0.00  0.00     0.000 O
ATOM      7   O  GCU B   1      15.214  14.234  24.3580  0.00  0.00     0.000 O
ATOM      9  HD  GCU B   1      16.050  14.364  24.5390  0.00  0.00     0.000 HD
ATOM      9   O  GCU B   1      15.159  14.254  21.4250  0.00  0.00     0.000 O
ATOM     11  HD  GCU B   1      15.996  14.384  21.6060  0.00  0.00     0.000 HD
ATOM     11   O  GCU B   1      12.686  13.248  20.3900  0.00  0.00     0.000 O
ATOM     13  HD  GCU B   1      13.523  13.378  20.5720  0.00  0.00     0.000 HD
ENDROOT
BRANCH 5 13
ATOM     13   C  GCU B   1      11.571  10.924  21.6530  0.00  0.00     0.000 C
ATOM     14   O  GCU B   1      10.619  11.240  20.9100  0.00  0.00     0.000 OA
ATOM     15   O  GCU B   1      11.957   9.745  21.7730  0.00  0.00     0.000 OA
ENDBRANCH 5 13
BRANCH 1 16
ATOM     16  O3  NAG B   2      13.741  11.518  25.2550  0.00  0.00     0.000 O
BRANCH 16 19
ATOM     17  C1  NAG B   2      11.752  10.844  28.3880  0.00  0.00     0.000 C
ATOM     18  C2  NAG B   2      12.561  11.658  27.3860  0.00  0.00     0.000 C
ATOM     19  C3  NAG B   2      12.830  10.834  26.1280  0.00  0.00     0.000 C
ATOM     20  C4  NAG B   2      13.448   9.485  26.4980  0.00  0.00     0.000 C
ATOM     21  C5  NAG B   2      12.554   8.765  27.4960  0.00  0.00     0.000 C
ATOM     22  O5  NAG B   2      12.398   9.591  28.6630  0.00  0.00     0.000 O
ATOM     23   O  NAG B   2      13.609   8.719  25.2990  0.00  0.00     0.000 O
ATOM     25  HD  NAG B   2      14.330   8.991  25.6940  0.00  0.00     0.000 HD
ATOM     25   C  NAG B   2      13.102   7.398  27.9000  0.00  0.00     0.000 C
ATOM     26   O  NAG B   2      14.237   7.518  28.7720  0.00  0.00     0.000 O
ATOM     28  HD  NAG B   2      14.959   7.790  29.1670  0.00  0.00     0.000 HD
BRANCH 18 30
ATOM     28   N  NAG B   2      11.818  12.857  27.7250  0.00  0.00     0.000 N
ATOM     30  HD  NAG B   2      12.506  13.165  27.3000  0.00  0.00     0.000 HD
ATOM     30   C  NAG B   2      12.265  14.099  27.5070  0.00  0.00     0.000 C
ATOM     31   C  NAG B   2      11.398  15.241  27.9560  0.00  0.00     0.000 C
ATOM     32   O  NAG B   2      13.334  14.310  26.9680  0.00  0.00     0.000 OA
ENDBRANCH 18 30
BRANCH 17 33
ATOM     33  O4  GCU B   3      11.563  11.661  29.5610  0.00  0.00     0.000 O
BRANCH 33 37
ATOM     34  C1  GCU B   3       8.792  11.362  32.6540  0.00  0.00     0.000 C
ATOM     35  C2  GCU B   3      10.096  10.575  32.7900  0.00  0.00     0.000 C
ATOM     36  C3  GCU B   3      11.124  11.125  31.8240  0.00  0.00     0.000 C
ATOM     37  C4  GCU B   3      10.555  11.112  30.4120  0.00  0.00     0.000 C
ATOM     38  C5  GCU B   3       9.259  11.923  30.3720  0.00  0.00     0.000 C
ATOM     39  O5  GCU B   3       8.333  11.348  31.2990  0.00  0.00     0.000 O
ATOM     40   O  GCU B   3      10.569  10.692  34.1340  0.00  0.00     0.000 O
ATOM     42  HD  GCU B   3      11.276  10.883  34.5970  0.00  0.00     0.000 HD
ATOM     42   O  GCU B   3      12.342  10.360  31.8730  0.00  0.00     0.000 O
ATOM     44  HD  GCU B   3      13.049  10.551  32.3360  0.00  0.00     0.000 HD
BRANCH 38 44
ATOM     44   C  GCU B   3       8.622  11.935  29.0050  0.00  0.00     0.000 C
ATOM     45   O  GCU B   3       8.896  12.865  28.2300  0.00  0.00     0.000 OA
ATOM     46   O  GCU B   3       7.842  11.020  28.6790  0.00  0.00     0.000 OA
ENDBRANCH 38 44
BRANCH 34 47
ATOM     47  O3  NAG B   4       7.847  10.745  33.3480  0.00  0.00     0.000 O
BRANCH 47 50
ATOM     48  C1  NAG B   4       5.583  13.170  35.0070  0.00  0.00     0.000 C
ATOM     49  C2  NAG B   4       6.337  12.493  33.8670  0.00  0.00     0.000 C
ATOM     50  C3  NAG B   4       6.809  11.102  34.2600  0.00  0.00     0.000 C
ATOM     51  C4  NAG B   4       7.339  11.012  35.6950  0.00  0.00     0.000 C
ATOM     52  C5  NAG B   4       6.272  11.409  36.7020  0.00  0.00     0.000 C
ATOM     53  O5  NAG B   4       5.494  12.563  36.3130  0.00  0.00     0.000 O
BRANCH 49 56
ATOM     54   N  NAG B   4       5.174  12.065  33.0690  0.00  0.00     0.000 N
ATOM     56  HD  NAG B   4       4.601  11.457  33.2960  0.00  0.00     0.000 HD
ATOM     56   C  NAG B   4       3.631  11.930  31.2000  0.00  0.00     0.000 C
ATOM     57   O  NAG B   4       5.677  13.072  31.0940  0.00  0.00     0.000 OA
ATOM     58   C  NAG B   4       4.927  12.401  31.7870  0.00  0.00     0.000 C
ENDBRANCH 49 56
ATOM     59   O  NAG B   4       5.969  11.663  39.1390  0.00  0.00     0.000 O
ATOM     61  HD  NAG B   4       6.171  12.019  38.3760  0.00  0.00     0.000 HD
ATOM     61   O  NAG B   4       5.969  11.663  39.1390  0.00  0.00     0.000 O
ATOM     63  HD  NAG B   4       6.171  12.019  38.3760  0.00  0.00     0.000 HD
ENDBRANCH 47 50
ENDBRANCH 34 47
ENDBRANCH 33 37
ENDBRANCH 17 33
ENDBRANCH 16 19
ENDBRANCH 1 16
TORSDOF 10
ENDMDL
MODEL 53
REMARK VINA RESULT:      -5.8     14.329     19.717
ROOT
ATOM      1  C1  GCU B   1      15.212  27.782  31.7440  0.00  0.00     0.000 C
ATOM      2  C2  GCU B   1      13.947  27.142  32.2940  0.00  0.00     0.000 C
ATOM      3  C3  GCU B   1      13.720  27.566  33.7370  0.00  0.00     0.000 C
ATOM      4  C4  GCU B   1      14.977  27.327  34.5590  0.00  0.00     0.000 C
ATOM      5  C5  GCU B   1      16.200  27.957  33.8900  0.00  0.00     0.000 C
ATOM      6  O5  GCU B   1      16.336  27.426  32.5650  0.00  0.00     0.000 O
ATOM      7   O  GCU B   1      12.861  27.554  31.4700  0.00  0.00     0.000 O
ATOM      9  HD  GCU B   1      12.282  27.034  31.0900  0.00  0.00     0.000 HD
ATOM      9   O  GCU B   1      12.624  26.846  34.3070  0.00  0.00     0.000 O
ATOM     11  HD  GCU B   1      12.045  26.326  33.9270  0.00  0.00     0.000 HD
ATOM     11   O  GCU B   1      14.793  27.889  35.8580  0.00  0.00     0.000 O
ATOM     13  HD  GCU B   1      14.214  27.369  35.4780  0.00  0.00     0.000 HD
ENDROOT
BRANCH 5 13
ATOM     13   C  GCU B   1      17.428  27.716  34.7340  0.00  0.00     0.000 C
ATOM     14   O  GCU B   1      17.795  28.565  35.5720  0.00  0.00     0.000 OA
ATOM     15   O  GCU B   1      18.030  26.636  34.5760  0.00  0.00     0.000 OA
ENDBRANCH 5 13
BRANCH 1 16
ATOM     16  O3  NAG B   2      15.989  27.331  30.7570  0.00  0.00     0.000 O
BRANCH 16 19
ATOM     17  C1  NAG B   2      16.833  28.911  27.4380  0.00  0.00     0.000 C
ATOM     18  C2  NAG B   2      15.944  28.403  28.5660  0.00  0.00     0.000 C
ATOM     19  C3  NAG B   2      16.796  27.978  29.7610  0.00  0.00     0.000 C
ATOM     20  C4  NAG B   2      17.882  26.999  29.3190  0.00  0.00     0.000 C
ATOM     21  C5  NAG B   2      18.705  27.614  28.1960  0.00  0.00     0.000 C
ATOM     22  O5  NAG B   2      17.831  27.935  27.1000  0.00  0.00     0.000 O
ATOM     23   O  NAG B   2      18.701  26.691  30.4530  0.00  0.00     0.000 O
ATOM     25  HD  NAG B   2      18.206  26.053  30.1380  0.00  0.00     0.000 HD
ATOM     25   C  NAG B   2      19.825  26.695  27.7130  0.00  0.00     0.000 C
ATOM     26   O  NAG B   2      19.314  25.596  26.9420  0.00  0.00     0.000 O
ATOM     28  HD  NAG B   2      18.819  24.959  26.6270  0.00  0.00     0.000 HD
BRANCH 18 30
ATOM     28   N  NAG B   2      14.999  29.503  28.5560  0.00  0.00     0.000 N
ATOM     30  HD  NAG B   2      14.499  28.815  28.7170  0.00  0.00     0.000 HD
ATOM     30   C  NAG B   2      13.672  29.348  28.6430  0.00  0.00     0.000 C
ATOM     31   C  NAG B   2      12.820  30.584  28.5730  0.00  0.00     0.000 C
ATOM     32   O  NAG B   2      13.162  28.253  28.7710  0.00  0.00     0.000 OA
ENDBRANCH 18 30
BRANCH 17 33
ATOM     33  O4  GCU B   3      15.976  29.260  26.3320  0.00  0.00     0.000 O
BRANCH 33 37
ATOM     34  C1  GCU B   3      16.702  31.584  22.9540  0.00  0.00     0.000 C
ATOM     35  C2  GCU B   3      17.131  30.116  22.9120  0.00  0.00     0.000 C
ATOM     36  C3  GCU B   3      16.423  29.350  24.0100  0.00  0.00     0.000 C
ATOM     37  C4  GCU B   3      16.687  30.018  25.3510  0.00  0.00     0.000 C
ATOM     38  C5  GCU B   3      16.226  31.476  25.3000  0.00  0.00     0.000 C
ATOM     39  O5  GCU B   3      16.936  32.142  24.2510  0.00  0.00     0.000 O
ATOM     40   O  GCU B   3      16.795  29.572  21.6340  0.00  0.00     0.000 O
ATOM     42  HD  GCU B   3      16.400  28.899  21.2590  0.00  0.00     0.000 HD
ATOM     42   O  GCU B   3      16.858  27.978  24.0460  0.00  0.00     0.000 O
ATOM     44  HD  GCU B   3      16.463  27.305  23.6710  0.00  0.00     0.000 HD
BRANCH 38 44
ATOM     44   C  GCU B   3      16.479  32.213  26.5910  0.00  0.00     0.000 C
ATOM     45   O  GCU B   3      17.599  32.712  26.7800  0.00  0.00     0.000 OA
ATOM     46   O  GCU B   3      15.569  32.309  27.4360  0.00  0.00     0.000 OA
ENDBRANCH 38 44
BRANCH 34 47
ATOM     47  O3  NAG B   4      17.476  32.278  22.1320  0.00  0.00     0.000 O
BRANCH 47 50
ATOM     48  C1  NAG B   4      17.603  34.755  19.3750  0.00  0.00     0.000 C
ATOM     49  C2  NAG B   4      17.983  34.086  20.6910  0.00  0.00     0.000 C
ATOM     50  C3  NAG B   4      17.478  32.654  20.7560  0.00  0.00     0.000 C
ATOM     51  C4  NAG B   4      16.071  32.469  20.1750  0.00  0.00     0.000 C
ATOM     52  C5  NAG B   4      16.020  32.882  18.7140  0.00  0.00     0.000 C
ATOM     53  O5  NAG B   4      16.746  34.096  18.4180  0.00  0.00     0.000 O
BRANCH 49 56
ATOM     54   N  NAG B   4      19.385  33.790  20.3480  0.00  0.00     0.000 N
ATOM     56  HD  NAG B   4      19.650  33.265  19.7120  0.00  0.00     0.000 HD
ATOM     56   C  NAG B   4      21.808  33.804  20.4920  0.00  0.00     0.000 C
ATOM     57   O  NAG B   4      20.419  34.675  22.1690  0.00  0.00     0.000 OA
ATOM     58   C  NAG B   4      20.467  34.122  21.0800  0.00  0.00     0.000 C
ENDBRANCH 49 56
ATOM     59   O  NAG B   4      14.412  33.044  16.8480  0.00  0.00     0.000 O
ATOM     61  HD  NAG B   4      14.811  33.422  17.5170  0.00  0.00     0.000 HD
ATOM     61   O  NAG B   4      14.412  33.044  16.8480  0.00  0.00     0.000 O
ATOM     63  HD  NAG B   4      14.811  33.422  17.5170  0.00  0.00     0.000 HD
ENDBRANCH 47 50
ENDBRANCH 34 47
ENDBRANCH 33 37
ENDBRANCH 17 33
ENDBRANCH 16 19
ENDBRANCH 1 16
TORSDOF 10
ENDMDL
MODEL 54
REMARK VINA RESULT:      -5.8     21.574     24.693
ROOT
ATOM      1  C1  GCU B   1      13.504  25.693  35.2870  0.00  0.00     0.000 C
ATOM      2  C2  GCU B   1      13.362  26.973  36.0960  0.00  0.00     0.000 C
ATOM      3  C3  GCU B   1      12.678  28.051  35.2700  0.00  0.00     0.000 C
ATOM      4  C4  GCU B   1      13.376  28.207  33.9280  0.00  0.00     0.000 C
ATOM      5  C5  GCU B   1      13.522  26.857  33.2240  0.00  0.00     0.000 C
ATOM      6  O5  GCU B   1      14.238  25.956  34.0800  0.00  0.00     0.000 O
ATOM      7   O  GCU B   1      12.599  26.667  37.2590  0.00  0.00     0.000 O
ATOM      9  HD  GCU B   1      12.821  26.843  38.0770  0.00  0.00     0.000 HD
ATOM      9   O  GCU B   1      12.685  29.300  35.9670  0.00  0.00     0.000 O
ATOM     11  HD  GCU B   1      12.908  29.476  36.7850  0.00  0.00     0.000 HD
ATOM     11   O  GCU B   1      12.613  29.097  33.1120  0.00  0.00     0.000 O
ATOM     13  HD  GCU B   1      12.836  29.273  33.9300  0.00  0.00     0.000 HD
ENDROOT
BRANCH 5 13
ATOM     13   C  GCU B   1      14.204  27.044  31.8900  0.00  0.00     0.000 C
ATOM     14   O  GCU B   1      13.534  27.293  30.8670  0.00  0.00     0.000 OA
ATOM     15   O  GCU B   1      15.448  26.967  31.8660  0.00  0.00     0.000 OA
ENDBRANCH 5 13
BRANCH 1 16
ATOM     16  O3  NAG B   2      14.413  24.728  35.4430  0.00  0.00     0.000 O
BRANCH 16 19
ATOM     17  C1  NAG B   2      14.183  21.094  36.4300  0.00  0.00     0.000 C
ATOM     18  C2  NAG B   2      14.027  22.602  36.5780  0.00  0.00     0.000 C
ATOM     19  C3  NAG B   2      14.380  23.303  35.2670  0.00  0.00     0.000 C
ATOM     20  C4  NAG B   2      15.756  22.853  34.7780  0.00  0.00     0.000 C
ATOM     21  C5  NAG B   2      15.792  21.335  34.6650  0.00  0.00     0.000 C
ATOM     22  O5  NAG B   2      15.497  20.765  35.9520  0.00  0.00     0.000 O
ATOM     23   O  NAG B   2      16.010  23.473  33.5120  0.00  0.00     0.000 O
ATOM     25  HD  NAG B   2      16.496  23.729  34.1820  0.00  0.00     0.000 HD
ATOM     25   C  NAG B   2      17.137  20.812  34.1630  0.00  0.00     0.000 C
ATOM     26   O  NAG B   2      18.154  20.914  35.1710  0.00  0.00     0.000 O
ATOM     28  HD  NAG B   2      18.640  21.170  35.8410  0.00  0.00     0.000 HD
BRANCH 18 30
ATOM     28   N  NAG B   2      13.531  22.755  37.9330  0.00  0.00     0.000 N
ATOM     30  HD  NAG B   2      12.872  23.040  37.4480  0.00  0.00     0.000 HD
ATOM     30   C  NAG B   2      12.370  23.345  38.2410  0.00  0.00     0.000 C
ATOM     31   C  NAG B   2      12.014  23.467  39.6960  0.00  0.00     0.000 C
ATOM     32   O  NAG B   2      11.622  23.774  37.3840  0.00  0.00     0.000 OA
ENDBRANCH 18 30
BRANCH 17 33
ATOM     33  O4  GCU B   3      13.872  20.497  37.7050  0.00  0.00     0.000 O
BRANCH 33 37
ATOM     34  C1  GCU B   3      12.584  16.661  38.6850  0.00  0.00     0.000 C
ATOM     35  C2  GCU B   3      14.061  16.847  38.3380  0.00  0.00     0.000 C
ATOM     36  C3  GCU B   3      14.424  18.314  38.4320  0.00  0.00     0.000 C
ATOM     37  C4  GCU B   3      13.489  19.129  37.5510  0.00  0.00     0.000 C
ATOM     38  C5  GCU B   3      12.039  18.882  37.9720  0.00  0.00     0.000 C
ATOM     39  O5  GCU B   3      11.762  17.483  37.8520  0.00  0.00     0.000 O
ATOM     40   O  GCU B   3      14.851  16.082  39.2510  0.00  0.00     0.000 O
ATOM     42  HD  GCU B   3      15.534  16.141  39.7810  0.00  0.00     0.000 HD
ATOM     42   O  GCU B   3      15.791  18.535  38.0410  0.00  0.00     0.000 O
ATOM     44  HD  GCU B   3      16.473  18.594  38.5720  0.00  0.00     0.000 HD
BRANCH 38 44
ATOM     44   C  GCU B   3      11.049  19.641  37.1240  0.00  0.00     0.000 C
ATOM     45   O  GCU B   3      10.876  19.282  35.9490  0.00  0.00     0.000 OA
ATOM     46   O  GCU B   3      10.426  20.602  37.6120  0.00  0.00     0.000 OA
ENDBRANCH 38 44
BRANCH 34 47
ATOM     47  O3  NAG B   4      12.231  15.415  38.4000  0.00  0.00     0.000 O
BRANCH 47 50
ATOM     48  C1  NAG B   4      10.415  12.835  36.4510  0.00  0.00     0.000 C
ATOM     49  C2  NAG B   4      10.606  14.037  37.3700  0.00  0.00     0.000 C
ATOM     50  C3  NAG B   4      12.000  14.629  37.2330  0.00  0.00     0.000 C
ATOM     51  C4  NAG B   4      13.106  13.576  37.1000  0.00  0.00     0.000 C
ATOM     52  C5  NAG B   4      12.886  12.696  35.8810  0.00  0.00     0.000 C
ATOM     53  O5  NAG B   4      11.512  12.297  35.6820  0.00  0.00     0.000 O
BRANCH 49 56
ATOM     54   N  NAG B   4       9.851  14.978  36.5230  0.00  0.00     0.000 N
ATOM     56  HD  NAG B   4       9.996  15.130  35.6830  0.00  0.00     0.000 HD
ATOM     56   C  NAG B   4       8.235  16.681  35.9070  0.00  0.00     0.000 C
ATOM     57   O  NAG B   4       8.694  16.093  38.1310  0.00  0.00     0.000 OA
ATOM     58   C  NAG B   4       8.958  15.891  36.9550  0.00  0.00     0.000 C
ENDBRANCH 49 56
ATOM     59   O  NAG B   4      13.917  10.776  34.7210  0.00  0.00     0.000 O
ATOM     61  HD  NAG B   4      13.346  11.072  35.3010  0.00  0.00     0.000 HD
ATOM     61   O  NAG B   4      13.917  10.776  34.7210  0.00  0.00     0.000 O
ATOM     63  HD  NAG B   4      13.346  11.072  35.3010  0.00  0.00     0.000 HD
ENDBRANCH 47 50
ENDBRANCH 34 47
ENDBRANCH 33 37
ENDBRANCH 17 33
ENDBRANCH 16 19
ENDBRANCH 1 16
TORSDOF 10
ENDMDL
MODEL 55
REMARK VINA RESULT:      -5.8     21.053     25.652
ROOT
ATOM      1  C1  GCU B   1      11.295  18.769  39.0120  0.00  0.00     0.000 C
ATOM      2  C2  GCU B   1      10.349  18.196  40.0560  0.00  0.00     0.000 C
ATOM      3  C3  GCU B   1       9.575  17.019  39.4820  0.00  0.00     0.000 C
ATOM      4  C4  GCU B   1       8.926  17.410  38.1640  0.00  0.00     0.000 C
ATOM      5  C5  GCU B   1       9.948  18.031  37.2100  0.00  0.00     0.000 C
ATOM      6  O5  GCU B   1      10.555  19.164  37.8450  0.00  0.00     0.000 O
ATOM      7   O  GCU B   1      11.133  17.788  41.1720  0.00  0.00     0.000 O
ATOM      9  HD  GCU B   1      11.002  18.014  41.9980  0.00  0.00     0.000 HD
ATOM      9   O  GCU B   1       8.574  16.578  40.4030  0.00  0.00     0.000 O
ATOM     11  HD  GCU B   1       8.443  16.804  41.2280  0.00  0.00     0.000 HD
ATOM     11   O  GCU B   1       8.354  16.245  37.5670  0.00  0.00     0.000 O
ATOM     13  HD  GCU B   1       8.223  16.471  38.3930  0.00  0.00     0.000 HD
ENDROOT
BRANCH 5 13
ATOM     13   C  GCU B   1       9.279  18.396  35.9060  0.00  0.00     0.000 C
ATOM     14   O  GCU B   1       8.730  17.516  35.2110  0.00  0.00     0.000 OA
ATOM     15   O  GCU B   1       9.276  19.598  35.5790  0.00  0.00     0.000 OA
ENDBRANCH 5 13
BRANCH 1 16
ATOM     16  O3  NAG B   2      11.769  20.016  38.9410  0.00  0.00     0.000 O
BRANCH 16 19
ATOM     17  C1  NAG B   2      14.686  21.292  36.9200  0.00  0.00     0.000 C
ATOM     18  C2  NAG B   2      13.932  20.371  37.8700  0.00  0.00     0.000 C
ATOM     19  C3  NAG B   2      12.454  20.754  37.9180  0.00  0.00     0.000 C
ATOM     20  C4  NAG B   2      12.300  22.244  38.2220  0.00  0.00     0.000 C
ATOM     21  C5  NAG B   2      13.089  23.061  37.2100  0.00  0.00     0.000 C
ATOM     22  O5  NAG B   2      14.472  22.669  37.2720  0.00  0.00     0.000 O
ATOM     23   O  NAG B   2      10.906  22.571  38.1790  0.00  0.00     0.000 O
ATOM     25  HD  NAG B   2      11.296  22.605  38.9520  0.00  0.00     0.000 HD
ATOM     25   C  NAG B   2      12.968  24.566  37.4430  0.00  0.00     0.000 C
ATOM     26   O  NAG B   2      13.716  24.986  38.5950  0.00  0.00     0.000 O
ATOM     28  HD  NAG B   2      14.106  25.020  39.3670  0.00  0.00     0.000 HD
BRANCH 18 30
ATOM     28   N  NAG B   2      14.502  19.137  37.3620  0.00  0.00     0.000 N
ATOM     30  HD  NAG B   2      14.401  18.975  38.2070  0.00  0.00     0.000 HD
ATOM     30   C  NAG B   2      14.874  18.112  38.1380  0.00  0.00     0.000 C
ATOM     31   C  NAG B   2      15.491  16.918  37.4660  0.00  0.00     0.000 C
ATOM     32   O  NAG B   2      14.727  18.135  39.3440  0.00  0.00     0.000 OA
ENDBRANCH 18 30
BRANCH 17 33
ATOM     33  O4  GCU B   3      16.075  20.905  36.9470  0.00  0.00     0.000 O
BRANCH 33 37
ATOM     34  C1  GCU B   3      19.131  21.628  34.2150  0.00  0.00     0.000 C
ATOM     35  C2  GCU B   3      18.928  22.645  35.3380  0.00  0.00     0.000 C
ATOM     36  C3  GCU B   3      18.098  22.024  36.4410  0.00  0.00     0.000 C
ATOM     37  C4  GCU B   3      16.794  21.493  35.8620  0.00  0.00     0.000 C
ATOM     38  C5  GCU B   3      17.096  20.484  34.7520  0.00  0.00     0.000 C
ATOM     39  O5  GCU B   3      17.873  21.137  33.7430  0.00  0.00     0.000 O
ATOM     40   O  GCU B   3      20.205  23.039  35.8430  0.00  0.00     0.000 O
ATOM     42  HD  GCU B   3      20.650  23.136  36.5790  0.00  0.00     0.000 HD
ATOM     42   O  GCU B   3      17.825  22.977  37.4830  0.00  0.00     0.000 O
ATOM     44  HD  GCU B   3      18.270  23.074  38.2200  0.00  0.00     0.000 HD
BRANCH 38 44
ATOM     44   C  GCU B   3      15.847  19.932  34.1120  0.00  0.00     0.000 C
ATOM     45   O  GCU B   3      15.314  20.578  33.1970  0.00  0.00     0.000 OA
ATOM     46   O  GCU B   3      15.379  18.847  34.5060  0.00  0.00     0.000 OA
ENDBRANCH 38 44
BRANCH 34 47
ATOM     47  O3  NAG B   4      19.676  22.243  33.1740  0.00  0.00     0.000 O
BRANCH 47 50
ATOM     48  C1  NAG B   4      20.926  22.069  29.6870  0.00  0.00     0.000 C
ATOM     49  C2  NAG B   4      20.777  21.684  31.1550  0.00  0.00     0.000 C
ATOM     50  C3  NAG B   4      19.508  22.263  31.7580  0.00  0.00     0.000 C
ATOM     51  C4  NAG B   4      19.206  23.695  31.3020  0.00  0.00     0.000 C
ATOM     52  C5  NAG B   4      19.043  23.770  29.7930  0.00  0.00     0.000 C
ATOM     53  O5  NAG B   4      20.011  22.989  29.0560  0.00  0.00     0.000 O
BRANCH 49 56
ATOM     54   N  NAG B   4      20.359  20.303  30.8560  0.00  0.00     0.000 N
ATOM     56  HD  NAG B   4      19.778  20.069  30.2580  0.00  0.00     0.000 HD
ATOM     56   C  NAG B   4      20.206  17.888  31.0430  0.00  0.00     0.000 C
ATOM     57   O  NAG B   4      21.277  19.232  32.6380  0.00  0.00     0.000 OA
ATOM     58   C  NAG B   4      20.656  19.209  31.5860  0.00  0.00     0.000 C
ENDBRANCH 49 56
ATOM     59   O  NAG B   4      18.592  25.425  28.0170  0.00  0.00     0.000 O
ATOM     61  HD  NAG B   4      19.168  24.985  28.4910  0.00  0.00     0.000 HD
ATOM     61   O  NAG B   4      18.592  25.425  28.0170  0.00  0.00     0.000 O
ATOM     63  HD  NAG B   4      19.168  24.985  28.4910  0.00  0.00     0.000 HD
ENDBRANCH 47 50
ENDBRANCH 34 47
ENDBRANCH 33 37
ENDBRANCH 17 33
ENDBRANCH 16 19
ENDBRANCH 1 16
TORSDOF 10
ENDMDL
MODEL 56
REMARK VINA RESULT:      -5.8     31.660     34.598
ROOT
ATOM      1  C1  GCU B   1       9.686  56.434   3.9770  0.00  0.00     0.000 C
ATOM      2  C2  GCU B   1       9.423  57.712   3.1960  0.00  0.00     0.000 C
ATOM      3  C3  GCU B   1       9.437  57.434   1.7000  0.00  0.00     0.000 C
ATOM      4  C4  GCU B   1      10.707  56.691   1.3160  0.00  0.00     0.000 C
ATOM      5  C5  GCU B   1      10.911  55.458   2.1990  0.00  0.00     0.000 C
ATOM      6  O5  GCU B   1      10.942  55.865   3.5740  0.00  0.00     0.000 O
ATOM      7   O  GCU B   1       8.154  58.214   3.6030  0.00  0.00     0.000 O
ATOM      9  HD  GCU B   1       7.987  59.018   3.8790  0.00  0.00     0.000 HD
ATOM      9   O  GCU B   1       9.349  58.655   0.9600  0.00  0.00     0.000 O
ATOM     11  HD  GCU B   1       9.182  59.458   1.2360  0.00  0.00     0.000 HD
ATOM     11   O  GCU B   1      10.614  56.294  -0.0520  0.00  0.00     0.000 O
ATOM     13  HD  GCU B   1      10.447  57.098   0.2230  0.00  0.00     0.000 HD
ENDROOT
BRANCH 5 13
ATOM     13   C  GCU B   1      12.169  54.733   1.7870  0.00  0.00     0.000 C
ATOM     14   O  GCU B   1      13.016  55.299   1.0660  0.00  0.00     0.000 OA
ATOM     15   O  GCU B   1      12.331  53.574   2.2170  0.00  0.00     0.000 OA
ENDBRANCH 5 13
BRANCH 1 16
ATOM     16  O3  NAG B   2      10.206  56.321   5.2010  0.00  0.00     0.000 O
BRANCH 16 19
ATOM     17  C1  NAG B   2       8.933  54.727   8.3730  0.00  0.00     0.000 C
ATOM     18  C2  NAG B   2       8.930  55.667   7.1750  0.00  0.00     0.000 C
ATOM     19  C3  NAG B   2      10.088  55.333   6.2360  0.00  0.00     0.000 C
ATOM     20  C4  NAG B   2      11.406  55.295   7.0090  0.00  0.00     0.000 C
ATOM     21  C5  NAG B   2      11.292  54.323   8.1750  0.00  0.00     0.000 C
ATOM     22  O5  NAG B   2      10.212  54.744   9.0280  0.00  0.00     0.000 O
ATOM     23   O  NAG B   2      12.447  54.903   6.1070  0.00  0.00     0.000 O
ATOM     25  HD  NAG B   2      12.467  55.716   6.4040  0.00  0.00     0.000 HD
ATOM     25   C  NAG B   2      12.582  54.220   8.9860  0.00  0.00     0.000 C
ATOM     26   O  NAG B   2      12.800  55.393   9.7860  0.00  0.00     0.000 O
ATOM     28  HD  NAG B   2      12.820  56.206  10.0840  0.00  0.00     0.000 HD
BRANCH 18 30
ATOM     28   N  NAG B   2       7.504  55.553   6.9350  0.00  0.00     0.000 N
ATOM     30  HD  NAG B   2       7.685  56.358   6.6710  0.00  0.00     0.000 HD
ATOM     30   C  NAG B   2       6.731  56.570   6.5330  0.00  0.00     0.000 C
ATOM     31   C  NAG B   2       5.261  56.305   6.3710  0.00  0.00     0.000 C
ATOM     32   O  NAG B   2       7.189  57.672   6.3070  0.00  0.00     0.000 OA
ENDBRANCH 18 30
BRANCH 17 33
ATOM     33  O4  GCU B   3       7.845  55.115   9.2350  0.00  0.00     0.000 O
BRANCH 33 37
ATOM     34  C1  GCU B   3       5.985  53.088  12.3610  0.00  0.00     0.000 C
ATOM     35  C2  GCU B   3       7.297  53.812  12.6650  0.00  0.00     0.000 C
ATOM     36  C3  GCU B   3       7.589  54.815  11.5690  0.00  0.00     0.000 C
ATOM     37  C4  GCU B   3       7.586  54.112  10.2190  0.00  0.00     0.000 C
ATOM     38  C5  GCU B   3       6.238  53.421  10.0020  0.00  0.00     0.000 C
ATOM     39  O5  GCU B   3       6.030  52.485  11.0650  0.00  0.00     0.000 O
ATOM     40   O  GCU B   3       7.178  54.478  13.9240  0.00  0.00     0.000 O
ATOM     42  HD  GCU B   3       7.302  55.244  14.3080  0.00  0.00     0.000 HD
ATOM     42   O  GCU B   3       8.855  55.465  11.7850  0.00  0.00     0.000 O
ATOM     44  HD  GCU B   3       8.979  56.231  12.1690  0.00  0.00     0.000 HD
BRANCH 38 44
ATOM     44   C  GCU B   3       6.169  52.679   8.6910  0.00  0.00     0.000 C
ATOM     45   O  GCU B   3       5.616  53.228   7.7260  0.00  0.00     0.000 OA
ATOM     46   O  GCU B   3       6.667  51.540   8.5980  0.00  0.00     0.000 OA
ENDBRANCH 38 44
BRANCH 34 47
ATOM     47  O3  NAG B   4       5.847  52.079  13.2090  0.00  0.00     0.000 O
BRANCH 47 50
ATOM     48  C1  NAG B   4       4.641  50.523  16.3520  0.00  0.00     0.000 C
ATOM     49  C2  NAG B   4       5.429  51.476  15.4600  0.00  0.00     0.000 C
ATOM     50  C3  NAG B   4       4.833  51.554  14.0640  0.00  0.00     0.000 C
ATOM     51  C4  NAG B   4       4.357  50.203  13.5190  0.00  0.00     0.000 C
ATOM     52  C5  NAG B   4       3.290  49.593  14.4130  0.00  0.00     0.000 C
ATOM     53  O5  NAG B   4       3.561  49.723  15.8260  0.00  0.00     0.000 O
BRANCH 49 56
ATOM     54   N  NAG B   4       4.884  52.764  15.9240  0.00  0.00     0.000 N
ATOM     56  HD  NAG B   4       4.105  53.085  15.7240  0.00  0.00     0.000 HD
ATOM     56   C  NAG B   4       4.794  54.923  17.0290  0.00  0.00     0.000 C
ATOM     57   O  NAG B   4       6.772  53.686  16.7920  0.00  0.00     0.000 OA
ATOM     58   C  NAG B   4       5.573  53.732  16.5610  0.00  0.00     0.000 C
ENDBRANCH 49 56
ATOM     59   O  NAG B   4       1.882  47.572  14.5720  0.00  0.00     0.000 O
ATOM     61  HD  NAG B   4       2.613  47.984  14.7840  0.00  0.00     0.000 HD
ATOM     61   O  NAG B   4       1.882  47.572  14.5720  0.00  0.00     0.000 O
ATOM     63  HD  NAG B   4       2.613  47.984  14.7840  0.00  0.00     0.000 HD
ENDBRANCH 47 50
ENDBRANCH 34 47
ENDBRANCH 33 37
ENDBRANCH 17 33
ENDBRANCH 16 19
ENDBRANCH 1 16
TORSDOF 10
ENDMDL
MODEL 57
REMARK VINA RESULT:      -5.8     21.301     23.520
ROOT
ATOM      1  C1  GCU B   1      12.505  44.177  19.6080  0.00  0.00     0.000 C
ATOM      2  C2  GCU B   1      13.944  43.784  19.3120  0.00  0.00     0.000 C
ATOM      3  C3  GCU B   1      14.852  45.002  19.3780  0.00  0.00     0.000 C
ATOM      4  C4  GCU B   1      14.294  46.121  18.5120  0.00  0.00     0.000 C
ATOM      5  C5  GCU B   1      12.827  46.396  18.8460  0.00  0.00     0.000 C
ATOM      6  O5  GCU B   1      12.074  45.187  18.6820  0.00  0.00     0.000 O
ATOM      7   O  GCU B   1      14.334  42.811  20.2760  0.00  0.00     0.000 O
ATOM      9  HD  GCU B   1      14.683  42.037  20.1080  0.00  0.00     0.000 HD
ATOM      9   O  GCU B   1      16.174  44.670  18.9470  0.00  0.00     0.000 O
ATOM     11  HD  GCU B   1      16.523  43.895  18.7790  0.00  0.00     0.000 HD
ATOM     11   O  GCU B   1      15.068  47.302  18.7280  0.00  0.00     0.000 O
ATOM     13  HD  GCU B   1      15.417  46.527  18.5600  0.00  0.00     0.000 HD
ENDROOT
BRANCH 5 13
ATOM     13   C  GCU B   1      12.305  47.519  17.9820  0.00  0.00     0.000 C
ATOM     14   O  GCU B   1      13.088  48.192  17.2810  0.00  0.00     0.000 OA
ATOM     15   O  GCU B   1      11.075  47.717  17.9810  0.00  0.00     0.000 OA
ENDBRANCH 5 13
BRANCH 1 16
ATOM     16  O3  NAG B   2      11.394  43.556  19.2060  0.00  0.00     0.000 O
BRANCH 16 19
ATOM     17  C1  NAG B   2       8.549  41.529  20.6290  0.00  0.00     0.000 C
ATOM     18  C2  NAG B   2       9.966  41.817  20.1490  0.00  0.00     0.000 C
ATOM     19  C3  NAG B   2      10.125  43.302  19.8290  0.00  0.00     0.000 C
ATOM     20  C4  NAG B   2       9.025  43.760  18.8720  0.00  0.00     0.000 C
ATOM     21  C5  NAG B   2       7.660  43.425  19.4560  0.00  0.00     0.000 C
ATOM     22  O5  NAG B   2       7.584  42.006  19.6770  0.00  0.00     0.000 O
ATOM     23   O  NAG B   2       9.168  45.170  18.6630  0.00  0.00     0.000 O
ATOM     25  HD  NAG B   2       9.334  44.652  17.9890  0.00  0.00     0.000 HD
ATOM     25   C  NAG B   2       6.508  43.871  18.5580  0.00  0.00     0.000 C
ATOM     26   O  NAG B   2       6.386  43.034  17.3970  0.00  0.00     0.000 O
ATOM     28  HD  NAG B   2       6.552  42.516  16.7230  0.00  0.00     0.000 HD
BRANCH 18 30
ATOM     28   N  NAG B   2      10.506  40.877  21.1140  0.00  0.00     0.000 N
ATOM     30  HD  NAG B   2      11.168  41.005  20.5710  0.00  0.00     0.000 HD
ATOM     30   C  NAG B   2      11.710  40.302  21.0020  0.00  0.00     0.000 C
ATOM     31   C  NAG B   2      12.111  39.314  22.0610  0.00  0.00     0.000 C
ATOM     32   O  NAG B   2      12.460  40.560  20.0820  0.00  0.00     0.000 OA
ENDBRANCH 18 30
BRANCH 17 33
ATOM     33  O4  GCU B   3       8.453  40.112  20.8790  0.00  0.00     0.000 O
BRANCH 33 37
ATOM     34  C1  GCU B   3       5.376  37.834  22.5160  0.00  0.00     0.000 C
ATOM     35  C2  GCU B   3       5.278  38.200  21.0340  0.00  0.00     0.000 C
ATOM     36  C3  GCU B   3       6.636  38.636  20.5280  0.00  0.00     0.000 C
ATOM     37  C4  GCU B   3       7.167  39.768  21.3970  0.00  0.00     0.000 C
ATOM     38  C5  GCU B   3       7.232  39.310  22.8550  0.00  0.00     0.000 C
ATOM     39  O5  GCU B   3       5.919  38.921  23.2700  0.00  0.00     0.000 O
ATOM     40   O  GCU B   3       4.821  37.059  20.3040  0.00  0.00     0.000 O
ATOM     42  HD  GCU B   3       5.000  36.575  19.6090  0.00  0.00     0.000 HD
ATOM     42   O  GCU B   3       6.566  39.058  19.1540  0.00  0.00     0.000 O
ATOM     44  HD  GCU B   3       6.745  38.573  18.4590  0.00  0.00     0.000 HD
BRANCH 38 44
ATOM     44   C  GCU B   3       7.727  40.391  23.7830  0.00  0.00     0.000 C
ATOM     45   O  GCU B   3       8.948  40.496  23.9750  0.00  0.00     0.000 OA
ATOM     46   O  GCU B   3       6.910  41.155  24.3320  0.00  0.00     0.000 OA
ENDBRANCH 38 44
BRANCH 34 47
ATOM     47  O3  NAG B   4       4.153  37.656  22.9940  0.00  0.00     0.000 O
BRANCH 47 50
ATOM     48  C1  NAG B   4       3.850  35.060  25.6250  0.00  0.00     0.000 C
ATOM     49  C2  NAG B   4       4.224  36.398  24.9980  0.00  0.00     0.000 C
ATOM     50  C3  NAG B   4       3.443  36.654  23.7190  0.00  0.00     0.000 C
ATOM     51  C4  NAG B   4       3.276  35.410  22.8390  0.00  0.00     0.000 C
ATOM     52  C5  NAG B   4       2.545  34.303  23.5820  0.00  0.00     0.000 C
ATOM     53  O5  NAG B   4       2.963  34.139  24.9550  0.00  0.00     0.000 O
BRANCH 49 56
ATOM     54   N  NAG B   4       3.431  37.230  25.9200  0.00  0.00     0.000 N
ATOM     56  HD  NAG B   4       2.578  37.167  26.0510  0.00  0.00     0.000 HD
ATOM     56   C  NAG B   4       2.912  38.979  27.5210  0.00  0.00     0.000 C
ATOM     57   O  NAG B   4       4.964  38.841  26.3940  0.00  0.00     0.000 OA
ATOM     58   C  NAG B   4       3.859  38.342  26.5510  0.00  0.00     0.000 C
ENDBRANCH 49 56
ATOM     59   O  NAG B   4       1.764  31.987  23.2370  0.00  0.00     0.000 O
ATOM     61  HD  NAG B   4       2.381  32.527  23.5150  0.00  0.00     0.000 HD
ATOM     61   O  NAG B   4       1.764  31.987  23.2370  0.00  0.00     0.000 O
ATOM     63  HD  NAG B   4       2.381  32.527  23.5150  0.00  0.00     0.000 HD
ENDBRANCH 47 50
ENDBRANCH 34 47
ENDBRANCH 33 37
ENDBRANCH 17 33
ENDBRANCH 16 19
ENDBRANCH 1 16
TORSDOF 10
ENDMDL
MODEL 58
REMARK VINA RESULT:      -5.8     20.270     23.586
ROOT
ATOM      1  C1  GCU B   1       8.902  29.292  33.2120  0.00  0.00     0.000 C
ATOM      2  C2  GCU B   1       7.861  30.380  33.0000  0.00  0.00     0.000 C
ATOM      3  C3  GCU B   1       6.461  29.826  33.2160  0.00  0.00     0.000 C
ATOM      4  C4  GCU B   1       6.261  28.566  32.3880  0.00  0.00     0.000 C
ATOM      5  C5  GCU B   1       7.391  27.564  32.6290  0.00  0.00     0.000 C
ATOM      6  O5  GCU B   1       8.646  28.190  32.3270  0.00  0.00     0.000 O
ATOM      7   O  GCU B   1       8.137  31.429  33.9220  0.00  0.00     0.000 O
ATOM      9  HD  GCU B   1       8.230  32.268  33.7290  0.00  0.00     0.000 HD
ATOM      9   O  GCU B   1       5.474  30.798  32.8630  0.00  0.00     0.000 O
ATOM     11  HD  GCU B   1       5.568  31.637  32.6700  0.00  0.00     0.000 HD
ATOM     11   O  GCU B   1       5.009  27.976  32.7400  0.00  0.00     0.000 O
ATOM     13  HD  GCU B   1       5.103  28.815  32.5470  0.00  0.00     0.000 HD
ENDROOT
BRANCH 5 13
ATOM     13   C  GCU B   1       7.159  26.319  31.8060  0.00  0.00     0.000 C
ATOM     14   O  GCU B   1       7.958  26.003  30.9000  0.00  0.00     0.000 OA
ATOM     15   O  GCU B   1       6.166  25.622  32.0880  0.00  0.00     0.000 OA
ENDBRANCH 5 13
BRANCH 1 16
ATOM     16  O3  NAG B   2      10.128  29.225  32.6870  0.00  0.00     0.000 O
BRANCH 16 19
ATOM     17  C1  NAG B   2      13.131  27.035  33.3290  0.00  0.00     0.000 C
ATOM     18  C2  NAG B   2      12.038  28.048  33.6460  0.00  0.00     0.000 C
ATOM     19  C3  NAG B   2      11.055  28.148  32.4800  0.00  0.00     0.000 C
ATOM     20  C4  NAG B   2      11.804  28.411  31.1740  0.00  0.00     0.000 C
ATOM     21  C5  NAG B   2      12.863  27.338  30.9620  0.00  0.00     0.000 C
ATOM     22  O5  NAG B   2      13.768  27.351  32.0800  0.00  0.00     0.000 O
ATOM     23   O  NAG B   2      10.853  28.419  30.1030  0.00  0.00     0.000 O
ATOM     25  HD  NAG B   2      11.234  29.172  30.3000  0.00  0.00     0.000 HD
ATOM     25   C  NAG B   2      13.643  27.527  29.6630  0.00  0.00     0.000 C
ATOM     26   O  NAG B   2      14.559  28.630  29.7500  0.00  0.00     0.000 O
ATOM     28  HD  NAG B   2      14.939  29.383  29.9460  0.00  0.00     0.000 HD
BRANCH 18 30
ATOM     28   N  NAG B   2      11.616  27.570  34.9480  0.00  0.00     0.000 N
ATOM     30  HD  NAG B   2      11.679  28.426  35.0630  0.00  0.00     0.000 HD
ATOM     30   C  NAG B   2      11.521  28.347  36.0340  0.00  0.00     0.000 C
ATOM     31   C  NAG B   2      11.112  27.695  37.3250  0.00  0.00     0.000 C
ATOM     32   O  NAG B   2      11.756  29.538  35.9910  0.00  0.00     0.000 OA
ENDBRANCH 18 30
BRANCH 17 33
ATOM     33  O4  GCU B   3      14.042  27.013  34.4460  0.00  0.00     0.000 O
BRANCH 33 37
ATOM     34  C1  GCU B   3      17.019  24.298  35.4940  0.00  0.00     0.000 C
ATOM     35  C2  GCU B   3      17.257  25.172  34.2620  0.00  0.00     0.000 C
ATOM     36  C3  GCU B   3      16.309  26.352  34.2870  0.00  0.00     0.000 C
ATOM     37  C4  GCU B   3      14.876  25.854  34.4060  0.00  0.00     0.000 C
ATOM     38  C5  GCU B   3      14.733  24.994  35.6640  0.00  0.00     0.000 C
ATOM     39  O5  GCU B   3      15.648  23.897  35.5720  0.00  0.00     0.000 O
ATOM     40   O  GCU B   3      18.612  25.626  34.2720  0.00  0.00     0.000 O
ATOM     42  HD  GCU B   3      19.095  26.341  34.1940  0.00  0.00     0.000 HD
ATOM     42   O  GCU B   3      16.456  27.159  33.1040  0.00  0.00     0.000 O
ATOM     44  HD  GCU B   3      16.939  27.873  33.0270  0.00  0.00     0.000 HD
BRANCH 38 44
ATOM     44   C  GCU B   3      13.340  24.442  35.8360  0.00  0.00     0.000 C
ATOM     45   O  GCU B   3      13.019  23.429  35.1960  0.00  0.00     0.000 OA
ATOM     46   O  GCU B   3      12.545  25.004  36.6130  0.00  0.00     0.000 OA
ENDBRANCH 38 44
BRANCH 34 47
ATOM     47  O3  NAG B   4      17.703  23.170  35.3560  0.00  0.00     0.000 O
BRANCH 47 50
ATOM     48  C1  NAG B   4      18.129  19.524  34.8290  0.00  0.00     0.000 C
ATOM     49  C2  NAG B   4      17.741  20.811  35.5480  0.00  0.00     0.000 C
ATOM     50  C3  NAG B   4      17.618  21.977  34.5800  0.00  0.00     0.000 C
ATOM     51  C4  NAG B   4      18.703  21.996  33.4960  0.00  0.00     0.000 C
ATOM     52  C5  NAG B   4      18.666  20.728  32.6580  0.00  0.00     0.000 C
ATOM     53  O5  NAG B   4      18.462  19.521  33.4250  0.00  0.00     0.000 O
BRANCH 49 56
ATOM     54   N  NAG B   4      16.290  20.600  35.6960  0.00  0.00     0.000 N
ATOM     56  HD  NAG B   4      15.699  20.697  35.0710  0.00  0.00     0.000 HD
ATOM     56   C  NAG B   4      14.164  20.125  36.7660  0.00  0.00     0.000 C
ATOM     57   O  NAG B   4      16.154  20.461  37.9610  0.00  0.00     0.000 OA
ATOM     58   C  NAG B   4      15.630  20.419  36.8580  0.00  0.00     0.000 C
ENDBRANCH 49 56
ATOM     59   O  NAG B   4      19.852  19.676  30.7660  0.00  0.00     0.000 O
ATOM     61  HD  NAG B   4      19.764  19.777  31.6220  0.00  0.00     0.000 HD
ATOM     61   O  NAG B   4      19.852  19.676  30.7660  0.00  0.00     0.000 O
ATOM     63  HD  NAG B   4      19.764  19.777  31.6220  0.00  0.00     0.000 HD
ENDBRANCH 47 50
ENDBRANCH 34 47
ENDBRANCH 33 37
ENDBRANCH 17 33
ENDBRANCH 16 19
ENDBRANCH 1 16
TORSDOF 10
ENDMDL
MODEL 59
REMARK VINA RESULT:      -5.8      3.530      6.131
ROOT
ATOM      1  C1  GCU B   1      20.321  26.399  10.3440  0.00  0.00     0.000 C
ATOM      2  C2  GCU B   1      20.132  27.370   9.1890  0.00  0.00     0.000 C
ATOM      3  C3  GCU B   1      21.103  28.535   9.3090  0.00  0.00     0.000 C
ATOM      4  C4  GCU B   1      21.014  29.152  10.6960  0.00  0.00     0.000 C
ATOM      5  C5  GCU B   1      21.155  28.085  11.7830  0.00  0.00     0.000 C
ATOM      6  O5  GCU B   1      20.145  27.085  11.5940  0.00  0.00     0.000 O
ATOM      7   O  GCU B   1      20.353  26.652   7.9790  0.00  0.00     0.000 O
ATOM      9  HD  GCU B   1      19.818  26.620   7.2990  0.00  0.00     0.000 HD
ATOM      9   O  GCU B   1      20.823  29.528   8.3190  0.00  0.00     0.000 O
ATOM     11  HD  GCU B   1      20.288  29.496   7.6380  0.00  0.00     0.000 HD
ATOM     11   O  GCU B   1      22.050  30.124  10.8360  0.00  0.00     0.000 O
ATOM     13  HD  GCU B   1      21.515  30.093  10.1550  0.00  0.00     0.000 HD
ENDROOT
BRANCH 5 13
ATOM     13   C  GCU B   1      21.077  28.727  13.1470  0.00  0.00     0.000 C
ATOM     14   O  GCU B   1      21.895  29.611  13.4760  0.00  0.00     0.000 OA
ATOM     15   O  GCU B   1      20.157  28.360  13.9030  0.00  0.00     0.000 OA
ENDBRANCH 5 13
BRANCH 1 16
ATOM     16  O3  NAG B   2      19.419  25.559  10.8570  0.00  0.00     0.000 O
BRANCH 16 19
ATOM     17  C1  NAG B   2      19.341  21.788  10.8130  0.00  0.00     0.000 C
ATOM     18  C2  NAG B   2      19.452  23.197  10.2450  0.00  0.00     0.000 C
ATOM     19  C3  NAG B   2      19.498  24.223  11.3760  0.00  0.00     0.000 C
ATOM     20  C4  NAG B   2      18.323  24.014  12.3320  0.00  0.00     0.000 C
ATOM     21  C5  NAG B   2      18.317  22.578  12.8360  0.00  0.00     0.000 C
ATOM     22  O5  NAG B   2      18.222  21.689  11.7090  0.00  0.00     0.000 O
ATOM     23   O  NAG B   2      18.451  24.943  13.4140  0.00  0.00     0.000 O
ATOM     25  HD  NAG B   2      17.792  25.064  12.8650  0.00  0.00     0.000 HD
ATOM     25   C  NAG B   2      17.176  22.300  13.8120  0.00  0.00     0.000 C
ATOM     26   O  NAG B   2      15.909  22.230  13.1400  0.00  0.00     0.000 O
ATOM     28  HD  NAG B   2      15.249  22.351  12.5910  0.00  0.00     0.000 HD
BRANCH 18 30
ATOM     28   N  NAG B   2      19.502  23.036   8.8040  0.00  0.00     0.000 N
ATOM     30  HD  NAG B   2      20.304  23.297   9.0020  0.00  0.00     0.000 HD
ATOM     30   C  NAG B   2      20.554  23.380   8.0510  0.00  0.00     0.000 C
ATOM     31   C  NAG B   2      20.438  23.193   6.5640  0.00  0.00     0.000 C
ATOM     32   O  NAG B   2      21.572  23.830   8.5390  0.00  0.00     0.000 OA
ENDBRANCH 18 30
BRANCH 17 33
ATOM     33  O4  GCU B   3      19.265  20.875   9.7000  0.00  0.00     0.000 O
BRANCH 33 37
ATOM     34  C1  GCU B   3      19.128  16.715   9.6090  0.00  0.00     0.000 C
ATOM     35  C2  GCU B   3      17.806  17.465   9.7680  0.00  0.00     0.000 C
ATOM     36  C3  GCU B   3      17.990  18.910   9.3580  0.00  0.00     0.000 C
ATOM     37  C4  GCU B   3      19.134  19.526  10.1520  0.00  0.00     0.000 C
ATOM     38  C5  GCU B   3      20.411  18.713   9.9290  0.00  0.00     0.000 C
ATOM     39  O5  GCU B   3      20.170  17.364  10.3430  0.00  0.00     0.000 O
ATOM     40   O  GCU B   3      16.817  16.840   8.9470  0.00  0.00     0.000 O
ATOM     42  HD  GCU B   3      16.212  17.014   8.3520  0.00  0.00     0.000 HD
ATOM     42   O  GCU B   3      16.782  19.665   9.5640  0.00  0.00     0.000 O
ATOM     44  HD  GCU B   3      16.178  19.839   8.9690  0.00  0.00     0.000 HD
BRANCH 38 44
ATOM     44   C  GCU B   3      21.585  19.250  10.7070  0.00  0.00     0.000 C
ATOM     45   O  GCU B   3      22.570  19.671  10.0810  0.00  0.00     0.000 OA
ATOM     46   O  GCU B   3      21.547  19.265  11.9520  0.00  0.00     0.000 OA
ENDBRANCH 38 44
BRANCH 34 47
ATOM     47  O3  NAG B   4      19.009  15.516  10.1620  0.00  0.00     0.000 O
BRANCH 47 50
ATOM     48  C1  NAG B   4      18.757  11.827  10.4550  0.00  0.00     0.000 C
ATOM     49  C2  NAG B   4      18.286  13.264  10.2570  0.00  0.00     0.000 C
ATOM     50  C3  NAG B   4      19.438  14.183   9.8870  0.00  0.00     0.000 C
ATOM     51  C4  NAG B   4      20.730  13.895  10.6600  0.00  0.00     0.000 C
ATOM     52  C5  NAG B   4      21.213  12.475  10.4180  0.00  0.00     0.000 C
ATOM     53  O5  NAG B   4      20.159  11.486  10.4200  0.00  0.00     0.000 O
BRANCH 49 56
ATOM     54   N  NAG B   4      17.711  13.040   8.9190  0.00  0.00     0.000 N
ATOM     56  HD  NAG B   4      18.127  12.701   8.2400  0.00  0.00     0.000 HD
ATOM     56   C  NAG B   4      16.091  13.072   7.1110  0.00  0.00     0.000 C
ATOM     57   O  NAG B   4      15.782  14.224   9.1300  0.00  0.00     0.000 OA
ATOM     58   C  NAG B   4      16.523  13.502   8.4800  0.00  0.00     0.000 C
ENDBRANCH 49 56
ATOM     59   O  NAG B   4      23.039  10.955  11.0870  0.00  0.00     0.000 O
ATOM     61  HD  NAG B   4      22.237  11.253  11.2200  0.00  0.00     0.000 HD
ATOM     61   O  NAG B   4      23.039  10.955  11.0870  0.00  0.00     0.000 O
ATOM     63  HD  NAG B   4      22.237  11.253  11.2200  0.00  0.00     0.000 HD
ENDBRANCH 47 50
ENDBRANCH 34 47
ENDBRANCH 33 37
ENDBRANCH 17 33
ENDBRANCH 16 19
ENDBRANCH 1 16
TORSDOF 10
ENDMDL
MODEL 60
REMARK VINA RESULT:      -5.7     23.122     25.915
ROOT
ATOM      1  C1  GCU B   1      11.280  28.302  31.2440  0.00  0.00     0.000 C
ATOM      2  C2  GCU B   1      12.607  28.205  30.5070  0.00  0.00     0.000 C
ATOM      3  C3  GCU B   1      13.480  27.124  31.1240  0.00  0.00     0.000 C
ATOM      4  C4  GCU B   1      13.587  27.329  32.6270  0.00  0.00     0.000 C
ATOM      5  C5  GCU B   1      12.203  27.475  33.2620  0.00  0.00     0.000 C
ATOM      6  O5  GCU B   1      11.512  28.565  32.6370  0.00  0.00     0.000 O
ATOM      7   O  GCU B   1      12.324  27.908  29.1430  0.00  0.00     0.000 O
ATOM      9  HD  GCU B   1      12.618  28.342  28.4540  0.00  0.00     0.000 HD
ATOM      9   O  GCU B   1      14.786  27.136  30.5410  0.00  0.00     0.000 O
ATOM     11  HD  GCU B   1      15.080  27.571  29.8510  0.00  0.00     0.000 HD
ATOM     11   O  GCU B   1      14.265  26.210  33.1990  0.00  0.00     0.000 O
ATOM     13  HD  GCU B   1      14.559  26.644  32.5100  0.00  0.00     0.000 HD
ENDROOT
BRANCH 5 13
ATOM     13   C  GCU B   1      12.339  27.663  34.7540  0.00  0.00     0.000 C
ATOM     14   O  GCU B   1      12.370  26.674  35.5150  0.00  0.00     0.000 OA
ATOM     15   O  GCU B   1      12.445  28.830  35.1780  0.00  0.00     0.000 OA
ENDBRANCH 5 13
BRANCH 1 16
ATOM     16  O3  NAG B   2      10.477  29.364  31.3380  0.00  0.00     0.000 O
BRANCH 16 19
ATOM     17  C1  NAG B   2       6.970  29.350  32.7260  0.00  0.00     0.000 C
ATOM     18  C2  NAG B   2       8.166  28.849  31.9260  0.00  0.00     0.000 C
ATOM     19  C3  NAG B   2       9.395  29.709  32.2160  0.00  0.00     0.000 C
ATOM     20  C4  NAG B   2       9.069  31.188  32.0120  0.00  0.00     0.000 C
ATOM     21  C5  NAG B   2       7.866  31.574  32.8600  0.00  0.00     0.000 C
ATOM     22  O5  NAG B   2       6.748  30.749  32.4840  0.00  0.00     0.000 O
ATOM     23   O  NAG B   2      10.223  31.958  32.3690  0.00  0.00     0.000 O
ATOM     25  HD  NAG B   2      10.000  31.945  31.5320  0.00  0.00     0.000 HD
ATOM     25   C  NAG B   2       7.491  33.048  32.7180  0.00  0.00     0.000 C
ATOM     26   O  NAG B   2       6.876  33.319  31.4490  0.00  0.00     0.000 O
ATOM     28  HD  NAG B   2       6.653  33.307  30.6130  0.00  0.00     0.000 HD
BRANCH 18 30
ATOM     28   N  NAG B   2       7.714  27.700  31.1650  0.00  0.00     0.000 N
ATOM     30  HD  NAG B   2       8.212  27.347  31.7790  0.00  0.00     0.000 HD
ATOM     30   C  NAG B   2       8.149  26.451  31.3710  0.00  0.00     0.000 C
ATOM     31   C  NAG B   2       7.620  25.371  30.4680  0.00  0.00     0.000 C
ATOM     32   O  NAG B   2       8.944  26.186  32.2500  0.00  0.00     0.000 OA
ENDBRANCH 18 30
BRANCH 17 33
ATOM     33  O4  GCU B   3       5.839  28.524  32.3830  0.00  0.00     0.000 O
BRANCH 33 37
ATOM     34  C1  GCU B   3       2.560  27.302  34.6370  0.00  0.00     0.000 C
ATOM     35  C2  GCU B   3       2.610  28.763  34.1920  0.00  0.00     0.000 C
ATOM     36  C3  GCU B   3       3.606  28.916  33.0620  0.00  0.00     0.000 C
ATOM     37  C4  GCU B   3       4.959  28.370  33.4970  0.00  0.00     0.000 C
ATOM     38  C5  GCU B   3       4.812  26.907  33.9210  0.00  0.00     0.000 C
ATOM     39  O5  GCU B   3       3.865  26.836  34.9920  0.00  0.00     0.000 O
ATOM     40   O  GCU B   3       1.307  29.160  33.7580  0.00  0.00     0.000 O
ATOM     42  HD  GCU B   3       0.891  29.546  33.1030  0.00  0.00     0.000 HD
ATOM     42   O  GCU B   3       3.733  30.293  32.6650  0.00  0.00     0.000 O
ATOM     44  HD  GCU B   3       3.317  30.679  32.0110  0.00  0.00     0.000 HD
BRANCH 38 44
ATOM     44   C  GCU B   3       6.112  26.304  34.3910  0.00  0.00     0.000 C
ATOM     45   O  GCU B   3       6.345  25.115  34.1230  0.00  0.00     0.000 OA
ATOM     46   O  GCU B   3       6.922  27.002  35.0290  0.00  0.00     0.000 OA
ENDBRANCH 38 44
BRANCH 34 47
ATOM     47  O3  NAG B   4       1.847  27.219  35.7510  0.00  0.00     0.000 O
BRANCH 47 50
ATOM     48  C1  NAG B   4       0.604  24.573  38.0350  0.00  0.00     0.000 C
ATOM     49  C2  NAG B   4       1.041  25.216  36.7220  0.00  0.00     0.000 C
ATOM     50  C3  NAG B   4       1.872  26.466  36.9630  0.00  0.00     0.000 C
ATOM     51  C4  NAG B   4       1.357  27.337  38.1150  0.00  0.00     0.000 C
ATOM     52  C5  NAG B   4       1.342  26.566  39.4240  0.00  0.00     0.000 C
ATOM     53  O5  NAG B   4       0.863  25.209  39.3040  0.00  0.00     0.000 O
BRANCH 49 56
ATOM     54   N  NAG B   4       2.136  24.272  36.4370  0.00  0.00     0.000 N
ATOM     56  HD  NAG B   4       2.820  24.122  36.9470  0.00  0.00     0.000 HD
ATOM     56   C  NAG B   4       3.477  22.652  35.2250  0.00  0.00     0.000 C
ATOM     57   O  NAG B   4       1.695  23.826  34.2520  0.00  0.00     0.000 OA
ATOM     58   C  NAG B   4       2.357  23.646  35.2640  0.00  0.00     0.000 C
ENDBRANCH 49 56
ATOM     59   O  NAG B   4       0.739  26.879  41.7980  0.00  0.00     0.000 O
ATOM     61  HD  NAG B   4       0.511  26.624  41.0020  0.00  0.00     0.000 HD
ATOM     61   O  NAG B   4       0.739  26.879  41.7980  0.00  0.00     0.000 O
ATOM     63  HD  NAG B   4       0.511  26.624  41.0020  0.00  0.00     0.000 HD
ENDBRANCH 47 50
ENDBRANCH 34 47
ENDBRANCH 33 37
ENDBRANCH 17 33
ENDBRANCH 16 19
ENDBRANCH 1 16
TORSDOF 10
ENDMDL
MODEL 61
REMARK VINA RESULT:      -5.7     20.554     24.622
ROOT
ATOM      1  C1  GCU B   1      11.467  27.846  32.7810  0.00  0.00     0.000 C
ATOM      2  C2  GCU B   1      12.486  27.059  33.5910  0.00  0.00     0.000 C
ATOM      3  C3  GCU B   1      13.894  27.343  33.0930  0.00  0.00     0.000 C
ATOM      4  C4  GCU B   1      13.970  27.144  31.5870  0.00  0.00     0.000 C
ATOM      5  C5  GCU B   1      12.867  27.927  30.8730  0.00  0.00     0.000 C
ATOM      6  O5  GCU B   1      11.593  27.519  31.3880  0.00  0.00     0.000 O
ATOM      7   O  GCU B   1      12.345  27.445  34.9550  0.00  0.00     0.000 O
ATOM      9  HD  GCU B   1      12.238  26.911  35.6280  0.00  0.00     0.000 HD
ATOM      9   O  GCU B   1      14.840  26.489  33.7430  0.00  0.00     0.000 O
ATOM     11  HD  GCU B   1      14.733  25.955  34.4160  0.00  0.00     0.000 HD
ATOM     11   O  GCU B   1      15.249  27.581  31.1270  0.00  0.00     0.000 O
ATOM     13  HD  GCU B   1      15.142  27.047  31.8010  0.00  0.00     0.000 HD
ENDROOT
BRANCH 5 13
ATOM     13   C  GCU B   1      12.975  27.721  29.3810  0.00  0.00     0.000 C
ATOM     14   O  GCU B   1      12.557  26.669  28.8570  0.00  0.00     0.000 OA
ATOM     15   O  GCU B   1      13.467  28.648  28.7080  0.00  0.00     0.000 OA
ENDBRANCH 5 13
BRANCH 1 16
ATOM     16  O3  NAG B   2      10.183  27.544  32.5750  0.00  0.00     0.000 O
BRANCH 16 19
ATOM     17  C1  NAG B   2       7.601  29.904  31.1640  0.00  0.00     0.000 C
ATOM     18  C2  NAG B   2       8.788  29.465  32.0120  0.00  0.00     0.000 C
ATOM     19  C3  NAG B   2       9.188  28.033  31.6620  0.00  0.00     0.000 C
ATOM     20  C4  NAG B   2       7.975  27.106  31.7410  0.00  0.00     0.000 C
ATOM     21  C5  NAG B   2       6.859  27.641  30.8540  0.00  0.00     0.000 C
ATOM     22  O5  NAG B   2       6.516  28.969  31.2880  0.00  0.00     0.000 O
ATOM     23   O  NAG B   2       8.380  25.796  31.3310  0.00  0.00     0.000 O
ATOM     25  HD  NAG B   2       8.168  25.901  32.1640  0.00  0.00     0.000 HD
ATOM     25   C  NAG B   2       5.616  26.755  30.8700  0.00  0.00     0.000 C
ATOM     26   O  NAG B   2       4.896  26.873  32.1070  0.00  0.00     0.000 O
ATOM     28  HD  NAG B   2       4.684  26.978  32.9410  0.00  0.00     0.000 HD
BRANCH 18 30
ATOM     28   N  NAG B   2       9.139  30.584  32.8650  0.00  0.00     0.000 N
ATOM     30  HD  NAG B   2       9.781  30.569  32.2830  0.00  0.00     0.000 HD
ATOM     30   C  NAG B   2      10.287  31.267  32.7640  0.00  0.00     0.000 C
ATOM     31   C  NAG B   2      10.527  32.375  33.7510  0.00  0.00     0.000 C
ATOM     32   O  NAG B   2      11.114  31.008  31.9130  0.00  0.00     0.000 OA
ENDBRANCH 18 30
BRANCH 17 33
ATOM     33  O4  GCU B   3       7.250  31.243  31.5660  0.00  0.00     0.000 O
BRANCH 33 37
ATOM     34  C1  GCU B   3       5.674  34.423  29.3900  0.00  0.00     0.000 C
ATOM     35  C2  GCU B   3       4.769  33.215  29.6380  0.00  0.00     0.000 C
ATOM     36  C3  GCU B   3       5.335  32.382  30.7680  0.00  0.00     0.000 C
ATOM     37  C4  GCU B   3       6.776  32.005  30.4540  0.00  0.00     0.000 C
ATOM     38  C5  GCU B   3       7.601  33.272  30.2250  0.00  0.00     0.000 C
ATOM     39  O5  GCU B   3       7.019  34.006  29.1420  0.00  0.00     0.000 O
ATOM     40   O  GCU B   3       3.459  33.678  29.9720  0.00  0.00     0.000 O
ATOM     42  HD  GCU B   3       2.827  33.580  30.5550  0.00  0.00     0.000 HD
ATOM     42   O  GCU B   3       4.548  31.197  30.9810  0.00  0.00     0.000 O
ATOM     44  HD  GCU B   3       3.915  31.098  31.5650  0.00  0.00     0.000 HD
BRANCH 38 44
ATOM     44   C  GCU B   3       9.040  32.975  29.8820  0.00  0.00     0.000 C
ATOM     45   O  GCU B   3       9.922  33.732  30.3160  0.00  0.00     0.000 OA
ATOM     46   O  GCU B   3       9.316  31.984  29.1800  0.00  0.00     0.000 OA
ENDBRANCH 38 44
BRANCH 34 47
ATOM     47  O3  NAG B   4       5.286  35.025  28.2740  0.00  0.00     0.000 O
BRANCH 47 50
ATOM     48  C1  NAG B   4       6.407  38.038  26.4230  0.00  0.00     0.000 C
ATOM     49  C2  NAG B   4       6.149  36.558  26.6900  0.00  0.00     0.000 C
ATOM     50  C3  NAG B   4       5.129  36.362  27.8000  0.00  0.00     0.000 C
ATOM     51  C4  NAG B   4       5.292  37.340  28.9700  0.00  0.00     0.000 C
ATOM     52  C5  NAG B   4       5.157  38.781  28.5060  0.00  0.00     0.000 C
ATOM     53  O5  NAG B   4       5.827  39.063  27.2570  0.00  0.00     0.000 O
BRANCH 49 56
ATOM     54   N  NAG B   4       5.288  36.361  25.5110  0.00  0.00     0.000 N
ATOM     56  HD  NAG B   4       4.598  36.841  25.3030  0.00  0.00     0.000 HD
ATOM     56   C  NAG B   4       4.408  35.349  23.4880  0.00  0.00     0.000 C
ATOM     57   O  NAG B   4       6.022  34.317  24.8410  0.00  0.00     0.000 OA
ATOM     58   C  NAG B   4       5.308  35.297  24.6840  0.00  0.00     0.000 C
ENDBRANCH 49 56
ATOM     59   O  NAG B   4       5.246  41.076  29.4090  0.00  0.00     0.000 O
ATOM     61  HD  NAG B   4       5.655  40.410  29.0360  0.00  0.00     0.000 HD
ATOM     61   O  NAG B   4       5.246  41.076  29.4090  0.00  0.00     0.000 O
ATOM     63  HD  NAG B   4       5.655  40.410  29.0360  0.00  0.00     0.000 HD
ENDBRANCH 47 50
ENDBRANCH 34 47
ENDBRANCH 33 37
ENDBRANCH 17 33
ENDBRANCH 16 19
ENDBRANCH 1 16
TORSDOF 10
ENDMDL
MODEL 62
REMARK VINA RESULT:      -5.7     22.699     30.380
ROOT
ATOM      1  C1  GCU B   1      16.618  46.272  12.2880  0.00  0.00     0.000 C
ATOM      2  C2  GCU B   1      17.933  45.611  12.6700  0.00  0.00     0.000 C
ATOM      3  C3  GCU B   1      17.770  44.100  12.7350  0.00  0.00     0.000 C
ATOM      4  C4  GCU B   1      16.583  43.737  13.6140  0.00  0.00     0.000 C
ATOM      5  C5  GCU B   1      15.328  44.500  13.1850  0.00  0.00     0.000 C
ATOM      6  O5  GCU B   1      15.596  45.907  13.2290  0.00  0.00     0.000 O
ATOM      7   O  GCU B   1      18.900  45.972  11.6890  0.00  0.00     0.000 O
ATOM      9  HD  GCU B   1      19.680  46.317  11.8420  0.00  0.00     0.000 HD
ATOM      9   O  GCU B   1      18.956  43.487  13.2470  0.00  0.00     0.000 O
ATOM     11  HD  GCU B   1      19.736  43.831  13.4000  0.00  0.00     0.000 HD
ATOM     11   O  GCU B   1      16.351  42.331  13.5180  0.00  0.00     0.000 O
ATOM     13  HD  GCU B   1      17.130  42.676  13.6720  0.00  0.00     0.000 HD
ENDROOT
BRANCH 5 13
ATOM     13   C  GCU B   1      14.164  44.109  14.0640  0.00  0.00     0.000 C
ATOM     14   O  GCU B   1      13.727  42.940  14.0500  0.00  0.00     0.000 OA
ATOM     15   O  GCU B   1      13.690  44.987  14.8110  0.00  0.00     0.000 OA
ENDBRANCH 5 13
BRANCH 1 16
ATOM     16  O3  NAG B   2      16.219  47.513  12.5720  0.00  0.00     0.000 O
BRANCH 16 19
ATOM     17  C1  NAG B   2      15.321  50.453  10.3870  0.00  0.00     0.000 C
ATOM     18  C2  NAG B   2      16.189  49.335  10.9490  0.00  0.00     0.000 C
ATOM     19  C3  NAG B   2      15.373  48.457  11.8970  0.00  0.00     0.000 C
ATOM     20  C4  NAG B   2      14.681  49.316  12.9540  0.00  0.00     0.000 C
ATOM     21  C5  NAG B   2      13.843  50.392  12.2780  0.00  0.00     0.000 C
ATOM     22  O5  NAG B   2      14.700  51.196  11.4480  0.00  0.00     0.000 O
ATOM     23   O  NAG B   2      13.869  48.462  13.7690  0.00  0.00     0.000 O
ATOM     25  HD  NAG B   2      14.562  48.823  14.1430  0.00  0.00     0.000 HD
ATOM     25   C  NAG B   2      13.106  51.282  13.2760  0.00  0.00     0.000 C
ATOM     26   O  NAG B   2      14.001  52.184  13.9440  0.00  0.00     0.000 O
ATOM     28  HD  NAG B   2      14.694  52.545  14.3180  0.00  0.00     0.000 HD
BRANCH 18 30
ATOM     28   N  NAG B   2      17.445  49.546  10.2550  0.00  0.00     0.000 N
ATOM     30  HD  NAG B   2      17.203  48.758   9.9900  0.00  0.00     0.000 HD
ATOM     30   C  NAG B   2      18.057  48.611   9.5180  0.00  0.00     0.000 C
ATOM     31   C  NAG B   2      19.378  48.968   8.8970  0.00  0.00     0.000 C
ATOM     32   O  NAG B   2      17.574  47.509   9.3520  0.00  0.00     0.000 OA
ENDBRANCH 18 30
BRANCH 17 33
ATOM     33  O4  GCU B   3      16.153  51.263   9.5330  0.00  0.00     0.000 O
BRANCH 33 37
ATOM     34  C1  GCU B   3      15.258  53.405   6.0770  0.00  0.00     0.000 C
ATOM     35  C2  GCU B   3      14.848  54.017   7.4170  0.00  0.00     0.000 C
ATOM     36  C3  GCU B   3      15.610  53.341   8.5370  0.00  0.00     0.000 C
ATOM     37  C4  GCU B   3      15.393  51.836   8.4670  0.00  0.00     0.000 C
ATOM     38  C5  GCU B   3      15.832  51.315   7.0970  0.00  0.00     0.000 C
ATOM     39  O5  GCU B   3      15.070  51.987   6.0890  0.00  0.00     0.000 O
ATOM     40   O  GCU B   3      15.138  55.416   7.3960  0.00  0.00     0.000 O
ATOM     42  HD  GCU B   3      15.526  56.041   7.8520  0.00  0.00     0.000 HD
ATOM     42   O  GCU B   3      15.196  53.841   9.8210  0.00  0.00     0.000 O
ATOM     44  HD  GCU B   3      15.583  54.467  10.2770  0.00  0.00     0.000 HD
BRANCH 38 44
ATOM     44   C  GCU B   3      15.623  49.830   6.9440  0.00  0.00     0.000 C
ATOM     45   O  GCU B   3      16.579  49.130   6.5790  0.00  0.00     0.000 OA
ATOM     46   O  GCU B   3      14.506  49.335   7.1880  0.00  0.00     0.000 OA
ENDBRANCH 38 44
BRANCH 34 47
ATOM     47  O3  NAG B   4      14.443  53.856   5.1340  0.00  0.00     0.000 O
BRANCH 47 50
ATOM     48  C1  NAG B   4      14.918  53.872   1.4560  0.00  0.00     0.000 C
ATOM     49  C2  NAG B   4      15.297  53.760   2.9290  0.00  0.00     0.000 C
ATOM     50  C3  NAG B   4      14.079  53.503   3.8010  0.00  0.00     0.000 C
ATOM     51  C4  NAG B   4      12.840  54.302   3.3820  0.00  0.00     0.000 C
ATOM     52  C5  NAG B   4      12.430  53.976   1.9550  0.00  0.00     0.000 C
ATOM     53  O5  NAG B   4      13.538  53.866   1.0340  0.00  0.00     0.000 O
BRANCH 49 56
ATOM     54   N  NAG B   4      16.348  52.729   2.9830  0.00  0.00     0.000 N
ATOM     56  HD  NAG B   4      17.201  52.873   2.9340  0.00  0.00     0.000 HD
ATOM     56   C  NAG B   4      17.363  50.527   3.0900  0.00  0.00     0.000 C
ATOM     57   O  NAG B   4      15.067  50.866   2.7480  0.00  0.00     0.000 OA
ATOM     58   C  NAG B   4      16.155  51.397   2.9180  0.00  0.00     0.000 C
ENDBRANCH 49 56
ATOM     59   O  NAG B   4      10.724  54.604   0.2850  0.00  0.00     0.000 O
ATOM     61  HD  NAG B   4      11.513  54.726   0.6200  0.00  0.00     0.000 HD
ATOM     61   O  NAG B   4      10.724  54.604   0.2850  0.00  0.00     0.000 O
ATOM     63  HD  NAG B   4      11.513  54.726   0.6200  0.00  0.00     0.000 HD
ENDBRANCH 47 50
ENDBRANCH 34 47
ENDBRANCH 33 37
ENDBRANCH 17 33
ENDBRANCH 16 19
ENDBRANCH 1 16
TORSDOF 10
ENDMDL
MODEL 63
REMARK VINA RESULT:      -5.7      3.207      5.929
ROOT
ATOM      1  C1  GCU B   1      19.326  21.318   9.6110  0.00  0.00     0.000 C
ATOM      2  C2  GCU B   1      20.208  22.350  10.2980  0.00  0.00     0.000 C
ATOM      3  C3  GCU B   1      20.180  23.665   9.5350  0.00  0.00     0.000 C
ATOM      4  C4  GCU B   1      20.486  23.427   8.0650  0.00  0.00     0.000 C
ATOM      5  C5  GCU B   1      19.589  22.331   7.4870  0.00  0.00     0.000 C
ATOM      6  O5  GCU B   1      19.758  21.132   8.2540  0.00  0.00     0.000 O
ATOM      7   O  GCU B   1      19.717  22.525  11.6230  0.00  0.00     0.000 O
ATOM      9  HD  GCU B   1      20.182  22.472  12.3520  0.00  0.00     0.000 HD
ATOM      9   O  GCU B   1      21.127  24.586  10.0840  0.00  0.00     0.000 O
ATOM     11  HD  GCU B   1      21.592  24.533  10.8120  0.00  0.00     0.000 HD
ATOM     11   O  GCU B   1      20.285  24.645   7.3480  0.00  0.00     0.000 O
ATOM     13  HD  GCU B   1      20.751  24.592   8.0760  0.00  0.00     0.000 HD
ENDROOT
BRANCH 5 13
ATOM     13   C  GCU B   1      19.906  22.126   6.0240  0.00  0.00     0.000 C
ATOM     14   O  GCU B   1      20.401  21.050   5.6310  0.00  0.00     0.000 OA
ATOM     15   O  GCU B   1      19.627  23.054   5.2410  0.00  0.00     0.000 OA
ENDBRANCH 5 13
BRANCH 1 16
ATOM     16  O3  NAG B   2      19.437  19.989   9.6640  0.00  0.00     0.000 O
BRANCH 16 19
ATOM     17  C1  NAG B   2      17.075  17.381  11.0230  0.00  0.00     0.000 C
ATOM     18  C2  NAG B   2      17.935  18.638  11.0330  0.00  0.00     0.000 C
ATOM     19  C3  NAG B   2      18.483  18.917   9.6340  0.00  0.00     0.000 C
ATOM     20  C4  NAG B   2      19.180  17.675   9.0790  0.00  0.00     0.000 C
ATOM     21  C5  NAG B   2      18.227  16.489   9.1150  0.00  0.00     0.000 C
ATOM     22  O5  NAG B   2      17.804  16.272  10.4730  0.00  0.00     0.000 O
ATOM     23   O  NAG B   2      19.606  17.957   7.7410  0.00  0.00     0.000 O
ATOM     25  HD  NAG B   2      20.224  17.855   8.3390  0.00  0.00     0.000 HD
ATOM     25   C  NAG B   2      18.852  15.212   8.5580  0.00  0.00     0.000 C
ATOM     26   O  NAG B   2      19.819  14.657   9.4620  0.00  0.00     0.000 O
ATOM     28  HD  NAG B   2      20.437  14.555  10.0610  0.00  0.00     0.000 HD
BRANCH 18 30
ATOM     28   N  NAG B   2      17.003  19.482  11.7570  0.00  0.00     0.000 N
ATOM     30  HD  NAG B   2      17.774  19.732  12.0620  0.00  0.00     0.000 HD
ATOM     30   C  NAG B   2      17.360  20.312  12.7450  0.00  0.00     0.000 C
ATOM     31   C  NAG B   2      16.271  21.088  13.4300  0.00  0.00     0.000 C
ATOM     32   O  NAG B   2      18.519  20.439  13.0870  0.00  0.00     0.000 OA
ENDBRANCH 18 30
BRANCH 17 33
ATOM     33  O4  GCU B   3      16.620  17.154  12.3720  0.00  0.00     0.000 O
BRANCH 33 37
ATOM     34  C1  GCU B   3      13.649  14.645  13.8580  0.00  0.00     0.000 C
ATOM     35  C2  GCU B   3      15.026  14.035  13.5930  0.00  0.00     0.000 C
ATOM     36  C3  GCU B   3      16.055  15.139  13.4780  0.00  0.00     0.000 C
ATOM     37  C4  GCU B   3      15.620  16.135  12.4120  0.00  0.00     0.000 C
ATOM     38  C5  GCU B   3      14.239  16.692  12.7620  0.00  0.00     0.000 C
ATOM     39  O5  GCU B   3      13.316  15.601  12.8480  0.00  0.00     0.000 O
ATOM     40   O  GCU B   3      15.359  13.159  14.6720  0.00  0.00     0.000 O
ATOM     42  HD  GCU B   3      15.992  12.974  15.2330  0.00  0.00     0.000 HD
ATOM     42   O  GCU B   3      17.352  14.605  13.1560  0.00  0.00     0.000 O
ATOM     44  HD  GCU B   3      17.985  14.421  13.7170  0.00  0.00     0.000 HD
BRANCH 38 44
ATOM     44   C  GCU B   3      13.729  17.671  11.7340  0.00  0.00     0.000 C
ATOM     45   O  GCU B   3      14.021  18.870  11.8600  0.00  0.00     0.000 OA
ATOM     46   O  GCU B   3      13.032  17.263  10.7850  0.00  0.00     0.000 OA
ENDBRANCH 38 44
BRANCH 34 47
ATOM     47  O3  NAG B   4      12.732  13.694  13.7520  0.00  0.00     0.000 O
BRANCH 47 50
ATOM     48  C1  NAG B   4      11.259  10.834  11.9060  0.00  0.00     0.000 C
ATOM     49  C2  NAG B   4      11.768  12.253  12.1410  0.00  0.00     0.000 C
ATOM     50  C3  NAG B   4      12.679  12.324  13.3560  0.00  0.00     0.000 C
ATOM     51  C4  NAG B   4      12.202  11.471  14.5360  0.00  0.00     0.000 C
ATOM     52  C5  NAG B   4      12.105  10.003  14.1520  0.00  0.00     0.000 C
ATOM     53  O5  NAG B   4      11.535   9.773  12.8440  0.00  0.00     0.000 O
BRANCH 49 56
ATOM     54   N  NAG B   4      12.818  12.249  11.1070  0.00  0.00     0.000 N
ATOM     56  HD  NAG B   4      13.519  11.740  11.1000  0.00  0.00     0.000 HD
ATOM     56   C  NAG B   4      14.050  12.908   9.1220  0.00  0.00     0.000 C
ATOM     57   O  NAG B   4      12.265  14.153   9.9960  0.00  0.00     0.000 OA
ATOM     58   C  NAG B   4      12.966  13.160  10.1250  0.00  0.00     0.000 C
ENDBRANCH 49 56
ATOM     59   O  NAG B   4      11.474   7.827  15.1320  0.00  0.00     0.000 O
ATOM     61  HD  NAG B   4      11.246   8.533  14.6850  0.00  0.00     0.000 HD
ATOM     61   O  NAG B   4      11.474   7.827  15.1320  0.00  0.00     0.000 O
ATOM     63  HD  NAG B   4      11.246   8.533  14.6850  0.00  0.00     0.000 HD
ENDBRANCH 47 50
ENDBRANCH 34 47
ENDBRANCH 33 37
ENDBRANCH 17 33
ENDBRANCH 16 19
ENDBRANCH 1 16
TORSDOF 10
ENDMDL
MODEL 64
REMARK VINA RESULT:      -5.7     22.243     25.661
ROOT
ATOM      1  C1  GCU B   1      18.446  48.073   7.0830  0.00  0.00     0.000 C
ATOM      2  C2  GCU B   1      18.417  49.350   6.2580  0.00  0.00     0.000 C
ATOM      3  C3  GCU B   1      18.368  49.024   4.7730  0.00  0.00     0.000 C
ATOM      4  C4  GCU B   1      19.475  48.045   4.4140  0.00  0.00     0.000 C
ATOM      5  C5  GCU B   1      19.455  46.827   5.3390  0.00  0.00     0.000 C
ATOM      6  O5  GCU B   1      19.572  47.268   6.6980  0.00  0.00     0.000 O
ATOM      7   O  GCU B   1      17.266  50.092   6.6500  0.00  0.00     0.000 O
ATOM      9  HD  GCU B   1      17.253  50.922   6.8980  0.00  0.00     0.000 HD
ATOM      9   O  GCU B   1      18.501  50.214   3.9910  0.00  0.00     0.000 O
ATOM     11  HD  GCU B   1      18.488  51.043   4.2390  0.00  0.00     0.000 HD
ATOM     11   O  GCU B   1      19.300  47.627   3.0600  0.00  0.00     0.000 O
ATOM     13  HD  GCU B   1      19.287  48.457   3.3080  0.00  0.00     0.000 HD
ENDROOT
BRANCH 5 13
ATOM     13   C  GCU B   1      20.554  45.868   4.9500  0.00  0.00     0.000 C
ATOM     14   O  GCU B   1      21.579  45.764   5.6550  0.00  0.00     0.000 OA
ATOM     15   O  GCU B   1      20.379  45.178   3.9270  0.00  0.00     0.000 OA
ENDBRANCH 5 13
BRANCH 1 16
ATOM     16  O3  NAG B   2      18.946  47.908   8.3100  0.00  0.00     0.000 O
BRANCH 16 19
ATOM     17  C1  NAG B   2      17.312  47.171  11.6290  0.00  0.00     0.000 C
ATOM     18  C2  NAG B   2      17.586  47.928  10.3350  0.00  0.00     0.000 C
ATOM     19  C3  NAG B   2      18.537  47.130   9.4450  0.00  0.00     0.000 C
ATOM     20  C4  NAG B   2      19.790  46.734  10.2260  0.00  0.00     0.000 C
ATOM     21  C5  NAG B   2      19.394  45.984  11.4900  0.00  0.00     0.000 C
ATOM     22  O5  NAG B   2      18.543  46.828  12.2850  0.00  0.00     0.000 O
ATOM     23   O  NAG B   2      20.613  45.925   9.3780  0.00  0.00     0.000 O
ATOM     25  HD  NAG B   2      20.912  46.711   9.5860  0.00  0.00     0.000 HD
ATOM     25   C  NAG B   2      20.601  45.541  12.3150  0.00  0.00     0.000 C
ATOM     26   O  NAG B   2      21.221  46.650  12.9850  0.00  0.00     0.000 O
ATOM     28  HD  NAG B   2      21.520  47.436  13.1920  0.00  0.00     0.000 HD
BRANCH 18 30
ATOM     28   N  NAG B   2      16.771  49.123  10.4440  0.00  0.00     0.000 N
ATOM     30  HD  NAG B   2      16.401  48.691   9.7910  0.00  0.00     0.000 HD
ATOM     30   C  NAG B   2      15.794  49.441   9.5850  0.00  0.00     0.000 C
ATOM     31   C  NAG B   2      15.067  50.738   9.8060  0.00  0.00     0.000 C
ATOM     32   O  NAG B   2      15.498  48.718   8.6560  0.00  0.00     0.000 OA
ENDBRANCH 18 30
BRANCH 17 33
ATOM     33  O4  GCU B   3      16.441  47.988  12.4360  0.00  0.00     0.000 O
BRANCH 33 37
ATOM     34  C1  GCU B   3      13.741  46.964  15.4350  0.00  0.00     0.000 C
ATOM     35  C2  GCU B   3      15.222  47.036  15.8080  0.00  0.00     0.000 C
ATOM     36  C3  GCU B   3      15.974  47.815  14.7500  0.00  0.00     0.000 C
ATOM     37  C4  GCU B   3      15.724  47.195  13.3830  0.00  0.00     0.000 C
ATOM     38  C5  GCU B   3      14.221  47.168  13.0970  0.00  0.00     0.000 C
ATOM     39  O5  GCU B   3      13.575  46.412  14.1260  0.00  0.00     0.000 O
ATOM     40   O  GCU B   3      15.349  47.677  17.0780  0.00  0.00     0.000 O
ATOM     42  HD  GCU B   3      15.780  48.308  17.4870  0.00  0.00     0.000 HD
ATOM     42   O  GCU B   3      17.385  47.841  15.0310  0.00  0.00     0.000 O
ATOM     44  HD  GCU B   3      17.816  48.472  15.4400  0.00  0.00     0.000 HD
BRANCH 38 44
ATOM     44   C  GCU B   3      13.894  46.541  11.7650  0.00  0.00     0.000 C
ATOM     45   O  GCU B   3      14.062  45.320  11.6260  0.00  0.00     0.000 OA
ATOM     46   O  GCU B   3      13.461  47.251  10.8370  0.00  0.00     0.000 OA
ENDBRANCH 38 44
BRANCH 34 47
ATOM     47  O3  NAG B   4      13.135  46.113  16.2500  0.00  0.00     0.000 O
BRANCH 47 50
ATOM     48  C1  NAG B   4      12.891  42.700  17.6820  0.00  0.00     0.000 C
ATOM     49  C2  NAG B   4      12.971  43.779  16.6060  0.00  0.00     0.000 C
ATOM     50  C3  NAG B   4      13.511  45.085  17.1650  0.00  0.00     0.000 C
ATOM     51  C4  NAG B   4      12.978  45.426  18.5620  0.00  0.00     0.000 C
ATOM     52  C5  NAG B   4      13.334  44.343  19.5670  0.00  0.00     0.000 C
ATOM     53  O5  NAG B   4      13.174  42.998  19.0650  0.00  0.00     0.000 O
BRANCH 49 56
ATOM     54   N  NAG B   4      14.219  43.351  15.9510  0.00  0.00     0.000 N
ATOM     56  HD  NAG B   4      15.015  43.415  16.2870  0.00  0.00     0.000 HD
ATOM     56   C  NAG B   4      15.698  42.488  14.2300  0.00  0.00     0.000 C
ATOM     57   O  NAG B   4      13.443  43.002  13.8430  0.00  0.00     0.000 OA
ATOM     58   C  NAG B   4      14.351  42.980  14.6620  0.00  0.00     0.000 C
ENDBRANCH 49 56
ATOM     59   O  NAG B   4      13.023  43.802  21.9560  0.00  0.00     0.000 O
ATOM     61  HD  NAG B   4      12.748  43.730  21.1370  0.00  0.00     0.000 HD
ATOM     61   O  NAG B   4      13.023  43.802  21.9560  0.00  0.00     0.000 O
ATOM     63  HD  NAG B   4      12.748  43.730  21.1370  0.00  0.00     0.000 HD
ENDBRANCH 47 50
ENDBRANCH 34 47
ENDBRANCH 33 37
ENDBRANCH 17 33
ENDBRANCH 16 19
ENDBRANCH 1 16
TORSDOF 10
ENDMDL
MODEL 65
REMARK VINA RESULT:      -5.7      2.771     12.162
ROOT
ATOM      1  C1  GCU B   1      16.377  17.636  10.7710  0.00  0.00     0.000 C
ATOM      2  C2  GCU B   1      16.661  16.144  10.6890  0.00  0.00     0.000 C
ATOM      3  C3  GCU B   1      15.434  15.395  10.1930  0.00  0.00     0.000 C
ATOM      4  C4  GCU B   1      14.215  15.778  11.0180  0.00  0.00     0.000 C
ATOM      5  C5  GCU B   1      14.054  17.298  11.0890  0.00  0.00     0.000 C
ATOM      6  O5  GCU B   1      15.250  17.872  11.6310  0.00  0.00     0.000 O
ATOM      7   O  GCU B   1      17.758  15.961   9.7990  0.00  0.00     0.000 O
ATOM      9  HD  GCU B   1      18.482  15.516   9.9660  0.00  0.00     0.000 HD
ATOM      9   O  GCU B   1      15.643  13.983  10.2650  0.00  0.00     0.000 O
ATOM     11  HD  GCU B   1      16.367  13.538  10.4320  0.00  0.00     0.000 HD
ATOM     11   O  GCU B   1      13.054  15.196  10.4250  0.00  0.00     0.000 O
ATOM     13  HD  GCU B   1      13.778  14.751  10.5910  0.00  0.00     0.000 HD
ENDROOT
BRANCH 5 13
ATOM     13   C  GCU B   1      12.830  17.648  11.9010  0.00  0.00     0.000 C
ATOM     14   O  GCU B   1      12.505  16.951  12.8840  0.00  0.00     0.000 OA
ATOM     15   O  GCU B   1      12.190  18.663  11.5660  0.00  0.00     0.000 OA
ENDBRANCH 5 13
BRANCH 1 16
ATOM     16  O3  NAG B   2      16.969  18.535  11.5600  0.00  0.00     0.000 O
BRANCH 16 19
ATOM     17  C1  NAG B   2      19.083  21.606  10.9850  0.00  0.00     0.000 C
ATOM     18  C2  NAG B   2      18.714  20.128  10.9520  0.00  0.00     0.000 C
ATOM     19  C3  NAG B   2      17.271  19.931  11.4130  0.00  0.00     0.000 C
ATOM     20  C4  NAG B   2      17.046  20.611  12.7630  0.00  0.00     0.000 C
ATOM     21  C5  NAG B   2      17.443  22.078  12.6740  0.00  0.00     0.000 C
ATOM     22  O5  NAG B   2      18.825  22.164  12.2830  0.00  0.00     0.000 O
ATOM     23   O  NAG B   2      15.666  20.468  13.1160  0.00  0.00     0.000 O
ATOM     25  HD  NAG B   2      16.244  20.037  13.5970  0.00  0.00     0.000 HD
ATOM     25   C  NAG B   2      17.229  22.828  13.9870  0.00  0.00     0.000 C
ATOM     26   O  NAG B   2      18.210  22.465  14.9710  0.00  0.00     0.000 O
ATOM     28  HD  NAG B   2      18.787  22.034  15.4510  0.00  0.00     0.000 HD
BRANCH 18 30
ATOM     28   N  NAG B   2      19.907  19.493  10.4240  0.00  0.00     0.000 N
ATOM     30  HD  NAG B   2      19.317  19.349   9.8070  0.00  0.00     0.000 HD
ATOM     30   C  NAG B   2      19.929  18.762   9.3030  0.00  0.00     0.000 C
ATOM     31   C  NAG B   2      21.235  18.130   8.9080  0.00  0.00     0.000 C
ATOM     32   O  NAG B   2      18.936  18.604   8.6210  0.00  0.00     0.000 OA
ENDBRANCH 18 30
BRANCH 17 33
ATOM     33  O4  GCU B   3      20.460  21.721  10.5760  0.00  0.00     0.000 O
BRANCH 33 37
ATOM     34  C1  GCU B   3      22.462  24.755   8.5470  0.00  0.00     0.000 C
ATOM     35  C2  GCU B   3      21.965  25.055   9.9620  0.00  0.00     0.000 C
ATOM     36  C3  GCU B   3      21.663  23.756  10.6790  0.00  0.00     0.000 C
ATOM     37  C4  GCU B   3      20.682  22.934   9.8550  0.00  0.00     0.000 C
ATOM     38  C5  GCU B   3      21.264  22.683   8.4620  0.00  0.00     0.000 C
ATOM     39  O5  GCU B   3      21.518  23.947   7.8400  0.00  0.00     0.000 O
ATOM     40   O  GCU B   3      22.976  25.783  10.6630  0.00  0.00     0.000 O
ATOM     42  HD  GCU B   3      23.420  25.795  11.4070  0.00  0.00     0.000 HD
ATOM     42   O  GCU B   3      21.124  24.002  11.9900  0.00  0.00     0.000 O
ATOM     44  HD  GCU B   3      21.568  24.014  12.7340  0.00  0.00     0.000 HD
BRANCH 38 44
ATOM     44   C  GCU B   3      20.333  21.893   7.5770  0.00  0.00     0.000 C
ATOM     45   O  GCU B   3      20.816  21.025   6.8330  0.00  0.00     0.000 OA
ATOM     46   O  GCU B   3      19.109  22.119   7.6100  0.00  0.00     0.000 OA
ENDBRANCH 38 44
BRANCH 34 47
ATOM     47  O3  NAG B   4      22.525  25.891   7.8670  0.00  0.00     0.000 O
BRANCH 47 50
ATOM     48  C1  NAG B   4      22.663  29.558   7.3290  0.00  0.00     0.000 C
ATOM     49  C2  NAG B   4      22.049  28.200   7.6500  0.00  0.00     0.000 C
ATOM     50  C3  NAG B   4      23.113  27.182   8.0260  0.00  0.00     0.000 C
ATOM     51  C4  NAG B   4      24.383  27.271   7.1720  0.00  0.00     0.000 C
ATOM     52  C5  NAG B   4      25.031  28.641   7.2910  0.00  0.00     0.000 C
ATOM     53  O5  NAG B   4      24.093  29.740   7.2710  0.00  0.00     0.000 O
BRANCH 49 56
ATOM     54   N  NAG B   4      21.572  28.591   8.9880  0.00  0.00     0.000 N
ATOM     56  HD  NAG B   4      22.049  28.970   9.6040  0.00  0.00     0.000 HD
ATOM     56   C  NAG B   4      20.071  28.840  10.8790  0.00  0.00     0.000 C
ATOM     57   O  NAG B   4      19.571  27.513   9.0110  0.00  0.00     0.000 OA
ATOM     58   C  NAG B   4      20.391  28.249   9.5400  0.00  0.00     0.000 C
ENDBRANCH 49 56
ATOM     59   O  NAG B   4      26.972  29.898   6.4270  0.00  0.00     0.000 O
ATOM     61  HD  NAG B   4      26.135  29.685   6.3560  0.00  0.00     0.000 HD
ATOM     61   O  NAG B   4      26.972  29.898   6.4270  0.00  0.00     0.000 O
ATOM     63  HD  NAG B   4      26.135  29.685   6.3560  0.00  0.00     0.000 HD
ENDBRANCH 47 50
ENDBRANCH 34 47
ENDBRANCH 33 37
ENDBRANCH 17 33
ENDBRANCH 16 19
ENDBRANCH 1 16
TORSDOF 10
ENDMDL
MODEL 66
REMARK VINA RESULT:      -5.6     22.526     27.477
ROOT
ATOM      1  C1  GCU B   1       2.556  33.153  25.2260  0.00  0.00     0.000 C
ATOM      2  C2  GCU B   1       2.428  31.838  24.4740  0.00  0.00     0.000 C
ATOM      3  C3  GCU B   1       1.562  30.861  25.2550  0.00  0.00     0.000 C
ATOM      4  C4  GCU B   1       2.062  30.743  26.6860  0.00  0.00     0.000 C
ATOM      5  C5  GCU B   1       2.215  32.122  27.3310  0.00  0.00     0.000 C
ATOM      6  O5  GCU B   1       3.103  32.917  26.5340  0.00  0.00     0.000 O
ATOM      7   O  GCU B   1       1.849  32.121  23.2040  0.00  0.00     0.000 O
ATOM      9  HD  GCU B   1       2.164  31.879  22.4340  0.00  0.00     0.000 HD
ATOM      9   O  GCU B   1       1.568  29.574  24.6320  0.00  0.00     0.000 O
ATOM     11  HD  GCU B   1       1.883  29.333  23.8630  0.00  0.00     0.000 HD
ATOM     11   O  GCU B   1       1.135  29.958  27.4360  0.00  0.00     0.000 O
ATOM     13  HD  GCU B   1       1.450  29.717  26.6660  0.00  0.00     0.000 HD
ENDROOT
BRANCH 5 13
ATOM     13   C  GCU B   1       2.699  31.973  28.7530  0.00  0.00     0.000 C
ATOM     14   O  GCU B   1       1.926  31.565  29.6440  0.00  0.00     0.000 OA
ATOM     15   O  GCU B   1       3.893  32.244  28.9840  0.00  0.00     0.000 OA
ENDBRANCH 5 13
BRANCH 1 16
ATOM     16  O3  NAG B   2       3.547  34.044  25.1440  0.00  0.00     0.000 O
BRANCH 16 19
ATOM     17  C1  NAG B   2       3.829  37.568  23.8310  0.00  0.00     0.000 C
ATOM     18  C2  NAG B   2       3.588  36.065  23.7780  0.00  0.00     0.000 C
ATOM     19  C3  NAG B   2       3.592  35.478  25.1890  0.00  0.00     0.000 C
ATOM     20  C4  NAG B   2       4.860  35.892  25.9340  0.00  0.00     0.000 C
ATOM     21  C5  NAG B   2       4.992  37.408  25.9250  0.00  0.00     0.000 C
ATOM     22  O5  NAG B   2       5.031  37.864  24.5610  0.00  0.00     0.000 O
ATOM     23   O  NAG B   2       4.783  35.386  27.2720  0.00  0.00     0.000 O
ATOM     25  HD  NAG B   2       5.380  35.037  26.7510  0.00  0.00     0.000 HD
ATOM     25   C  NAG B   2       6.234  37.897  26.6690  0.00  0.00     0.000 C
ATOM     26   O  NAG B   2       7.434  37.635  25.9260  0.00  0.00     0.000 O
ATOM     28  HD  NAG B   2       8.032  37.286  25.4050  0.00  0.00     0.000 HD
BRANCH 18 30
ATOM     28   N  NAG B   2       2.474  36.133  22.8520  0.00  0.00     0.000 N
ATOM     30  HD  NAG B   2       2.860  35.388  22.6420  0.00  0.00     0.000 HD
ATOM     30   C  NAG B   2       2.277  35.261  21.8560  0.00  0.00     0.000 C
ATOM     31   C  NAG B   2       1.099  35.491  20.9510  0.00  0.00     0.000 C
ATOM     32   O  NAG B   2       3.018  34.315  21.6770  0.00  0.00     0.000 OA
ENDBRANCH 18 30
BRANCH 17 33
ATOM     33  O4  GCU B   3       3.851  38.054  22.4740  0.00  0.00     0.000 O
BRANCH 33 37
ATOM     34  C1  GCU B   3       3.872  41.940  20.9790  0.00  0.00     0.000 C
ATOM     35  C2  GCU B   3       5.218  41.314  21.3490  0.00  0.00     0.000 C
ATOM     36  C3  GCU B   3       5.066  39.811  21.4560  0.00  0.00     0.000 C
ATOM     37  C4  GCU B   3       3.953  39.478  22.4390  0.00  0.00     0.000 C
ATOM     38  C5  GCU B   3       2.651  40.143  21.9880  0.00  0.00     0.000 C
ATOM     39  O5  GCU B   3       2.862  41.556  21.9160  0.00  0.00     0.000 O
ATOM     40   O  GCU B   3       6.175  41.644  20.3400  0.00  0.00     0.000 O
ATOM     42  HD  GCU B   3       6.774  41.291  19.8240  0.00  0.00     0.000 HD
ATOM     42   O  GCU B   3       6.297  39.195  21.8740  0.00  0.00     0.000 O
ATOM     44  HD  GCU B   3       6.896  38.843  21.3570  0.00  0.00     0.000 HD
BRANCH 38 44
ATOM     44   C  GCU B   3       1.505  39.877  22.9310  0.00  0.00     0.000 C
ATOM     45   O  GCU B   3       1.346  40.634  23.9010  0.00  0.00     0.000 OA
ATOM     46   O  GCU B   3       0.742  38.914  22.7220  0.00  0.00     0.000 OA
ENDBRANCH 38 44
BRANCH 34 47
ATOM     47  O3  NAG B   4       3.969  43.257  21.0920  0.00  0.00     0.000 O
BRANCH 47 50
ATOM     48  C1  NAG B   4       3.029  46.822  21.4960  0.00  0.00     0.000 C
ATOM     49  C2  NAG B   4       3.370  45.525  20.7710  0.00  0.00     0.000 C
ATOM     50  C3  NAG B   4       3.224  44.319  21.6850  0.00  0.00     0.000 C
ATOM     51  C4  NAG B   4       3.731  44.561  23.1120  0.00  0.00     0.000 C
ATOM     52  C5  NAG B   4       2.982  45.705  23.7760  0.00  0.00     0.000 C
ATOM     53  O5  NAG B   4       2.751  46.839  22.9120  0.00  0.00     0.000 O
BRANCH 49 56
ATOM     54   N  NAG B   4       2.242  45.098  19.9250  0.00  0.00     0.000 N
ATOM     56  HD  NAG B   4       1.838  44.332  19.9690  0.00  0.00     0.000 HD
ATOM     56   C  NAG B   4       0.562  45.174  18.1750  0.00  0.00     0.000 C
ATOM     57   O  NAG B   4       2.297  46.741  18.3560  0.00  0.00     0.000 OA
ATOM     58   C  NAG B   4       1.787  45.736  18.8280  0.00  0.00     0.000 C
ENDBRANCH 49 56
ATOM     59   O  NAG B   4       2.929  46.947  25.9090  0.00  0.00     0.000 O
ATOM     61  HD  NAG B   4       3.228  46.877  25.0990  0.00  0.00     0.000 HD
ATOM     61   O  NAG B   4       2.929  46.947  25.9090  0.00  0.00     0.000 O
ATOM     63  HD  NAG B   4       3.228  46.877  25.0990  0.00  0.00     0.000 HD
ENDBRANCH 47 50
ENDBRANCH 34 47
ENDBRANCH 33 37
ENDBRANCH 17 33
ENDBRANCH 16 19
ENDBRANCH 1 16
TORSDOF 10
ENDMDL
MODEL 67
REMARK VINA RESULT:      -5.6     19.890     22.819
ROOT
ATOM      1  C1  GCU B   1      21.550  21.203  31.1320  0.00  0.00     0.000 C
ATOM      2  C2  GCU B   1      22.591  22.148  30.5520  0.00  0.00     0.000 C
ATOM      3  C3  GCU B   1      22.372  22.329  29.0580  0.00  0.00     0.000 C
ATOM      4  C4  GCU B   1      22.274  20.974  28.3740  0.00  0.00     0.000 C
ATOM      5  C5  GCU B   1      21.246  20.080  29.0690  0.00  0.00     0.000 C
ATOM      6  O5  GCU B   1      21.604  19.939  30.4500  0.00  0.00     0.000 O
ATOM      7   O  GCU B   1      22.473  23.392  31.2340  0.00  0.00     0.000 O
ATOM      9  HD  GCU B   1      23.115  23.827  31.6190  0.00  0.00     0.000 HD
ATOM      9   O  GCU B   1      23.438  23.086  28.4810  0.00  0.00     0.000 O
ATOM     11  HD  GCU B   1      24.081  23.521  28.8660  0.00  0.00     0.000 HD
ATOM     11   O  GCU B   1      21.899  21.172  27.0100  0.00  0.00     0.000 O
ATOM     13  HD  GCU B   1      22.541  21.607  27.3960  0.00  0.00     0.000 HD
ENDROOT
BRANCH 5 13
ATOM     13   C  GCU B   1      21.160  18.749  28.3610  0.00  0.00     0.000 C
ATOM     14   O  GCU B   1      22.057  18.397  27.5670  0.00  0.00     0.000 OA
ATOM     15   O  GCU B   1      20.183  18.021  28.6230  0.00  0.00     0.000 OA
ENDBRANCH 5 13
BRANCH 1 16
ATOM     16  O3  NAG B   2      21.661  20.441  32.2230  0.00  0.00     0.000 O
BRANCH 16 19
ATOM     17  C1  NAG B   2      18.985  19.141  34.5420  0.00  0.00     0.000 C
ATOM     18  C2  NAG B   2      19.768  20.172  33.7390  0.00  0.00     0.000 C
ATOM     19  C3  NAG B   2      20.796  19.479  32.8470  0.00  0.00     0.000 C
ATOM     20  C4  NAG B   2      21.662  18.527  33.6720  0.00  0.00     0.000 C
ATOM     21  C5  NAG B   2      20.775  17.545  34.4230  0.00  0.00     0.000 C
ATOM     22  O5  NAG B   2      19.877  18.283  35.2720  0.00  0.00     0.000 O
ATOM     23   O  NAG B   2      22.555  17.845  32.7840  0.00  0.00     0.000 O
ATOM     25  HD  NAG B   2      22.905  18.409  33.3400  0.00  0.00     0.000 HD
ATOM     25   C  NAG B   2      21.575  16.548  35.2600  0.00  0.00     0.000 C
ATOM     26   O  NAG B   2      22.139  17.168  36.4270  0.00  0.00     0.000 O
ATOM     28  HD  NAG B   2      22.489  17.731  36.9830  0.00  0.00     0.000 HD
BRANCH 18 30
ATOM     28   N  NAG B   2      19.188  21.447  34.1150  0.00  0.00     0.000 N
ATOM     30  HD  NAG B   2      18.954  21.361  33.2850  0.00  0.00     0.000 HD
ATOM     30   C  NAG B   2      18.580  22.273  33.2540  0.00  0.00     0.000 C
ATOM     31   C  NAG B   2      18.068  23.582  33.7870  0.00  0.00     0.000 C
ATOM     32   O  NAG B   2      18.443  21.988  32.0810  0.00  0.00     0.000 OA
ENDBRANCH 18 30
BRANCH 17 33
ATOM     33  O4  GCU B   3      18.061  19.856  35.3870  0.00  0.00     0.000 O
BRANCH 33 37
ATOM     34  C1  GCU B   3      14.285  18.821  36.8020  0.00  0.00     0.000 C
ATOM     35  C2  GCU B   3      15.493  18.122  37.4260  0.00  0.00     0.000 C
ATOM     36  C3  GCU B   3      16.750  18.905  37.1120  0.00  0.00     0.000 C
ATOM     37  C4  GCU B   3      16.873  19.095  35.6070  0.00  0.00     0.000 C
ATOM     38  C5  GCU B   3      15.625  19.802  35.0750  0.00  0.00     0.000 C
ATOM     39  O5  GCU B   3      14.479  19.007  35.3970  0.00  0.00     0.000 O
ATOM     40   O  GCU B   3      15.302  18.040  38.8400  0.00  0.00     0.000 O
ATOM     42  HD  GCU B   3      15.695  18.200  39.5940  0.00  0.00     0.000 HD
ATOM     42   O  GCU B   3      17.918  18.237  37.6230  0.00  0.00     0.000 O
ATOM     44  HD  GCU B   3      18.311  18.397  38.3780  0.00  0.00     0.000 HD
BRANCH 38 44
ATOM     44   C  GCU B   3      15.663  20.003  33.5800  0.00  0.00     0.000 C
ATOM     45   O  GCU B   3      15.977  19.043  32.8600  0.00  0.00     0.000 OA
ATOM     46   O  GCU B   3      15.378  21.116  33.0990  0.00  0.00     0.000 OA
ENDBRANCH 38 44
BRANCH 34 47
ATOM     47  O3  NAG B   4      13.230  18.025  36.9050  0.00  0.00     0.000 O
BRANCH 47 50
ATOM     48  C1  NAG B   4       9.919  16.597  37.7720  0.00  0.00     0.000 C
ATOM     49  C2  NAG B   4      11.439  16.709  37.7180  0.00  0.00     0.000 C
ATOM     50  C3  NAG B   4      11.883  18.119  37.3630  0.00  0.00     0.000 C
ATOM     51  C4  NAG B   4      11.022  18.783  36.2810  0.00  0.00     0.000 C
ATOM     52  C5  NAG B   4       9.569  18.881  36.7160  0.00  0.00     0.000 C
ATOM     53  O5  NAG B   4       9.072  17.698  37.3800  0.00  0.00     0.000 O
BRANCH 49 56
ATOM     54   N  NAG B   4      11.583  16.699  39.1850  0.00  0.00     0.000 N
ATOM     56  HD  NAG B   4      11.083  17.131  39.7450  0.00  0.00     0.000 HD
ATOM     56   C  NAG B   4      12.513  16.199  41.3700  0.00  0.00     0.000 C
ATOM     57   O  NAG B   4      13.618  15.703  39.3620  0.00  0.00     0.000 OA
ATOM     58   C  NAG B   4      12.620  16.187  39.8760  0.00  0.00     0.000 C
ENDBRANCH 49 56
ATOM     59   O  NAG B   4       7.391  19.680  35.8740  0.00  0.00     0.000 O
ATOM     61  HD  NAG B   4       7.955  19.030  35.9700  0.00  0.00     0.000 HD
ATOM     61   O  NAG B   4       7.391  19.680  35.8740  0.00  0.00     0.000 O
ATOM     63  HD  NAG B   4       7.955  19.030  35.9700  0.00  0.00     0.000 HD
ENDBRANCH 47 50
ENDBRANCH 34 47
ENDBRANCH 33 37
ENDBRANCH 17 33
ENDBRANCH 16 19
ENDBRANCH 1 16
TORSDOF 10
ENDMDL
MODEL 68
REMARK VINA RESULT:      -5.6     21.199     26.547
ROOT
ATOM      1  C1  GCU B   1      14.983  15.794  38.3380  0.00  0.00     0.000 C
ATOM      2  C2  GCU B   1      15.653  15.270  39.5980  0.00  0.00     0.000 C
ATOM      3  C3  GCU B   1      16.246  13.891  39.3520  0.00  0.00     0.000 C
ATOM      4  C4  GCU B   1      15.199  12.970  38.7450  0.00  0.00     0.000 C
ATOM      5  C5  GCU B   1      14.544  13.614  37.5220  0.00  0.00     0.000 C
ATOM      6  O5  GCU B   1      13.970  14.872  37.9030  0.00  0.00     0.000 O
ATOM      7   O  GCU B   1      16.670  16.198  39.9650  0.00  0.00     0.000 O
ATOM      9  HD  GCU B   1      16.770  16.565  40.7430  0.00  0.00     0.000 HD
ATOM      9   O  GCU B   1      16.736  13.329  40.5720  0.00  0.00     0.000 O
ATOM     11  HD  GCU B   1      16.836  13.695  41.3500  0.00  0.00     0.000 HD
ATOM     11   O  GCU B   1      15.827  11.744  38.3670  0.00  0.00     0.000 O
ATOM     13  HD  GCU B   1      15.927  12.111  39.1450  0.00  0.00     0.000 HD
ENDROOT
BRANCH 5 13
ATOM     13   C  GCU B   1      13.521  12.673  36.9320  0.00  0.00     0.000 C
ATOM     14   O  GCU B   1      13.101  12.845  35.7690  0.00  0.00     0.000 OA
ATOM     15   O  GCU B   1      13.145  11.718  37.6390  0.00  0.00     0.000 OA
ENDBRANCH 5 13
BRANCH 1 16
ATOM     16  O3  NAG B   2      13.989  16.681  38.2530  0.00  0.00     0.000 O
BRANCH 16 19
ATOM     17  C1  NAG B   2      13.768  20.037  36.5450  0.00  0.00     0.000 C
ATOM     18  C2  NAG B   2      14.323  18.972  37.4830  0.00  0.00     0.000 C
ATOM     19  C3  NAG B   2      13.606  17.642  37.2570  0.00  0.00     0.000 C
ATOM     20  C4  NAG B   2      12.092  17.833  37.3390  0.00  0.00     0.000 C
ATOM     21  C5  NAG B   2      11.655  18.913  36.3590  0.00  0.00     0.000 C
ATOM     22  O5  NAG B   2      12.341  20.136  36.6780  0.00  0.00     0.000 O
ATOM     23   O  NAG B   2      11.463  16.581  37.0450  0.00  0.00     0.000 O
ATOM     25  HD  NAG B   2      11.395  16.876  37.8560  0.00  0.00     0.000 HD
ATOM     25   C  NAG B   2      10.146  19.147  36.3740  0.00  0.00     0.000 C
ATOM     26   O  NAG B   2       9.728  19.840  37.5600  0.00  0.00     0.000 O
ATOM     28  HD  NAG B   2       9.660  20.136  38.3710  0.00  0.00     0.000 HD
BRANCH 18 30
ATOM     28   N  NAG B   2      15.728  19.224  37.2250  0.00  0.00     0.000 N
ATOM     30  HD  NAG B   2      15.712  19.045  38.0720  0.00  0.00     0.000 HD
ATOM     30   C  NAG B   2      16.664  19.280  38.1810  0.00  0.00     0.000 C
ATOM     31   C  NAG B   2      18.072  19.595  37.7600  0.00  0.00     0.000 C
ATOM     32   O  NAG B   2      16.397  19.088  39.3500  0.00  0.00     0.000 OA
ENDBRANCH 18 30
BRANCH 17 33
ATOM     33  O4  GCU B   3      14.457  21.271  36.8300  0.00  0.00     0.000 O
BRANCH 33 37
ATOM     34  C1  GCU B   3      15.011  24.672  34.4930  0.00  0.00     0.000 C
ATOM     35  C2  GCU B   3      13.732  24.584  35.3280  0.00  0.00     0.000 C
ATOM     36  C3  GCU B   3      13.899  23.531  36.4020  0.00  0.00     0.000 C
ATOM     37  C4  GCU B   3      14.296  22.207  35.7640  0.00  0.00     0.000 C
ATOM     38  C5  GCU B   3      15.581  22.391  34.9550  0.00  0.00     0.000 C
ATOM     39  O5  GCU B   3      15.352  23.391  33.9560  0.00  0.00     0.000 O
ATOM     40   O  GCU B   3      13.479  25.860  35.9210  0.00  0.00     0.000 O
ATOM     42  HD  GCU B   3      13.293  26.238  36.6780  0.00  0.00     0.000 HD
ATOM     42   O  GCU B   3      12.688  23.370  37.1620  0.00  0.00     0.000 O
ATOM     44  HD  GCU B   3      12.503  23.749  37.9190  0.00  0.00     0.000 HD
BRANCH 38 44
ATOM     44   C  GCU B   3      16.024  21.123  34.2690  0.00  0.00     0.000 C
ATOM     45   O  GCU B   3      17.042  20.548  34.6840  0.00  0.00     0.000 OA
ATOM     46   O  GCU B   3      15.365  20.676  33.3110  0.00  0.00     0.000 OA
ENDBRANCH 38 44
BRANCH 34 47
ATOM     47  O3  NAG B   4      14.780  25.441  33.4390  0.00  0.00     0.000 O
BRANCH 47 50
ATOM     48  C1  NAG B   4      14.698  28.270  31.0420  0.00  0.00     0.000 C
ATOM     49  C2  NAG B   4      14.155  27.196  31.9790  0.00  0.00     0.000 C
ATOM     50  C3  NAG B   4      15.225  26.700  32.9380  0.00  0.00     0.000 C
ATOM     51  C4  NAG B   4      16.605  26.533  32.2910  0.00  0.00     0.000 C
ATOM     52  C5  NAG B   4      17.109  27.848  31.7200  0.00  0.00     0.000 C
ATOM     53  O5  NAG B   4      16.099  28.616  31.0290  0.00  0.00     0.000 O
BRANCH 49 56
ATOM     54   N  NAG B   4      13.414  28.169  32.8000  0.00  0.00     0.000 N
ATOM     56  HD  NAG B   4      13.700  28.951  33.0400  0.00  0.00     0.000 HD
ATOM     56   C  NAG B   4      11.635  29.096  34.1670  0.00  0.00     0.000 C
ATOM     57   O  NAG B   4      11.720  26.841  33.5300  0.00  0.00     0.000 OA
ATOM     58   C  NAG B   4      12.270  27.931  33.4720  0.00  0.00     0.000 C
ENDBRANCH 49 56
ATOM     59   O  NAG B   4      19.053  28.762  30.5030  0.00  0.00     0.000 O
ATOM     61  HD  NAG B   4      18.259  28.416  30.4790  0.00  0.00     0.000 HD
ATOM     61   O  NAG B   4      19.053  28.762  30.5030  0.00  0.00     0.000 O
ATOM     63  HD  NAG B   4      18.259  28.416  30.4790  0.00  0.00     0.000 HD
ENDBRANCH 47 50
ENDBRANCH 34 47
ENDBRANCH 33 37
ENDBRANCH 17 33
ENDBRANCH 16 19
ENDBRANCH 1 16
TORSDOF 10
ENDMDL
MODEL 69
REMARK VINA RESULT:      -5.6     22.412     26.785
ROOT
ATOM      1  C1  GCU B   1       5.834  25.936  33.9810  0.00  0.00     0.000 C
ATOM      2  C2  GCU B   1       5.217  24.723  33.3000  0.00  0.00     0.000 C
ATOM      3  C3  GCU B   1       4.467  23.870  34.3110  0.00  0.00     0.000 C
ATOM      4  C4  GCU B   1       5.360  23.560  35.5020  0.00  0.00     0.000 C
ATOM      5  C5  GCU B   1       5.977  24.837  36.0740  0.00  0.00     0.000 C
ATOM      6  O5  GCU B   1       6.707  25.510  35.0400  0.00  0.00     0.000 O
ATOM      7   O  GCU B   1       4.336  25.198  32.2870  0.00  0.00     0.000 O
ATOM      9  HD  GCU B   1       4.338  24.958  31.4550  0.00  0.00     0.000 HD
ATOM      9   O  GCU B   1       4.022  22.651  33.7100  0.00  0.00     0.000 O
ATOM     11  HD  GCU B   1       4.024  22.412  32.8780  0.00  0.00     0.000 HD
ATOM     11   O  GCU B   1       4.580  22.908  36.5060  0.00  0.00     0.000 O
ATOM     13  HD  GCU B   1       4.582  22.669  35.6740  0.00  0.00     0.000 HD
ENDROOT
BRANCH 5 13
ATOM     13   C  GCU B   1       6.846  24.501  37.2620  0.00  0.00     0.000 C
ATOM     14   O  GCU B   1       6.329  24.243  38.3690  0.00  0.00     0.000 OA
ATOM     15   O  GCU B   1       8.078  24.466  37.0810  0.00  0.00     0.000 OA
ENDBRANCH 5 13
BRANCH 1 16
ATOM     16  O3  NAG B   2       6.904  26.631  33.5900  0.00  0.00     0.000 O
BRANCH 16 19
ATOM     17  C1  NAG B   2       7.572  30.073  32.1970  0.00  0.00     0.000 C
ATOM     18  C2  NAG B   2       7.041  28.645  32.2180  0.00  0.00     0.000 C
ATOM     19  C3  NAG B   2       7.231  28.030  33.6040  0.00  0.00     0.000 C
ATOM     20  C4  NAG B   2       8.684  28.174  34.0550  0.00  0.00     0.000 C
ATOM     21  C5  NAG B   2       9.099  29.636  33.9970  0.00  0.00     0.000 C
ATOM     22  O5  NAG B   2       8.934  30.114  32.6500  0.00  0.00     0.000 O
ATOM     23   O  NAG B   2       8.796  27.655  35.3860  0.00  0.00     0.000 O
ATOM     25  HD  NAG B   2       9.191  27.213  34.7550  0.00  0.00     0.000 HD
ATOM     25   C  NAG B   2      10.540  29.859  34.4520  0.00  0.00     0.000 C
ATOM     26   O  NAG B   2      11.483  29.394  33.4740  0.00  0.00     0.000 O
ATOM     28  HD  NAG B   2      11.878  28.952  32.8430  0.00  0.00     0.000 HD
BRANCH 18 30
ATOM     28   N  NAG B   2       6.499  28.475  30.8830  0.00  0.00     0.000 N
ATOM     30  HD  NAG B   2       5.799  28.413  31.3900  0.00  0.00     0.000 HD
ATOM     30   C  NAG B   2       5.223  28.158  30.6310  0.00  0.00     0.000 C
ATOM     31   C  NAG B   2       4.822  27.972  29.1950  0.00  0.00     0.000 C
ATOM     32   O  NAG B   2       4.409  28.021  31.5220  0.00  0.00     0.000 OA
ENDBRANCH 18 30
BRANCH 17 33
ATOM     33  O4  GCU B   3       7.398  30.582  30.8600  0.00  0.00     0.000 O
BRANCH 33 37
ATOM     34  C1  GCU B   3       6.508  34.415  29.4990  0.00  0.00     0.000 C
ATOM     35  C2  GCU B   3       7.967  34.101  29.8310  0.00  0.00     0.000 C
ATOM     36  C3  GCU B   3       8.162  32.600  29.8880  0.00  0.00     0.000 C
ATOM     37  C4  GCU B   3       7.173  31.993  30.8730  0.00  0.00     0.000 C
ATOM     38  C5  GCU B   3       5.746  32.357  30.4600  0.00  0.00     0.000 C
ATOM     39  O5  GCU B   3       5.629  33.784  30.4340  0.00  0.00     0.000 O
ATOM     40   O  GCU B   3       8.805  34.670  28.8230  0.00  0.00     0.000 O
ATOM     42  HD  GCU B   3       9.458  34.479  28.2870  0.00  0.00     0.000 HD
ATOM     42   O  GCU B   3       9.509  32.268  30.2700  0.00  0.00     0.000 O
ATOM     44  HD  GCU B   3      10.162  32.077  29.7340  0.00  0.00     0.000 HD
BRANCH 38 44
ATOM     44   C  GCU B   3       4.708  31.809  31.4070  0.00  0.00     0.000 C
ATOM     45   O  GCU B   3       4.878  31.963  32.6270  0.00  0.00     0.000 OA
ATOM     46   O  GCU B   3       3.708  31.221  30.9550  0.00  0.00     0.000 OA
ENDBRANCH 38 44
BRANCH 34 47
ATOM     47  O3  NAG B   4       6.305  35.716  29.6550  0.00  0.00     0.000 O
BRANCH 47 50
ATOM     48  C1  NAG B   4       5.815  38.760  27.5940  0.00  0.00     0.000 C
ATOM     49  C2  NAG B   4       6.357  37.388  27.9800  0.00  0.00     0.000 C
ATOM     50  C3  NAG B   4       5.506  36.735  29.0570  0.00  0.00     0.000 C
ATOM     51  C4  NAG B   4       5.027  37.708  30.1410  0.00  0.00     0.000 C
ATOM     52  C5  NAG B   4       4.191  38.828  29.5440  0.00  0.00     0.000 C
ATOM     53  O5  NAG B   4       4.713  39.359  28.3060  0.00  0.00     0.000 O
BRANCH 49 56
ATOM     54   N  NAG B   4       5.822  36.639  26.8300  0.00  0.00     0.000 N
ATOM     56  HD  NAG B   4       4.983  36.516  26.6520  0.00  0.00     0.000 HD
ATOM     56   C  NAG B   4       5.799  35.271  24.8250  0.00  0.00     0.000 C
ATOM     57   O  NAG B   4       7.729  35.637  26.1050  0.00  0.00     0.000 OA
ATOM     58   C  NAG B   4       6.534  35.864  25.9870  0.00  0.00     0.000 C
ENDBRANCH 49 56
ATOM     59   O  NAG B   4       2.975  40.860  30.2420  0.00  0.00     0.000 O
ATOM     61  HD  NAG B   4       3.704  40.497  29.9490  0.00  0.00     0.000 HD
ATOM     61   O  NAG B   4       2.975  40.860  30.2420  0.00  0.00     0.000 O
ATOM     63  HD  NAG B   4       3.704  40.497  29.9490  0.00  0.00     0.000 HD
ENDBRANCH 47 50
ENDBRANCH 34 47
ENDBRANCH 33 37
ENDBRANCH 17 33
ENDBRANCH 16 19
ENDBRANCH 1 16
TORSDOF 10
ENDMDL
MODEL 70
REMARK VINA RESULT:      -5.6     15.732     22.150
ROOT
ATOM      1  C1  GCU B   1      12.491  11.923  24.0580  0.00  0.00     0.000 C
ATOM      2  C2  GCU B   1      13.558  12.525  23.1570  0.00  0.00     0.000 C
ATOM      3  C3  GCU B   1      12.919  13.192  21.9480  0.00  0.00     0.000 C
ATOM      4  C4  GCU B   1      11.960  12.230  21.2640  0.00  0.00     0.000 C
ATOM      5  C5  GCU B   1      10.969  11.635  22.2660  0.00  0.00     0.000 C
ATOM      6  O5  GCU B   1      11.697  10.984  23.3160  0.00  0.00     0.000 O
ATOM      7   O  GCU B   1      14.291  13.473  23.9270  0.00  0.00     0.000 O
ATOM      9  HD  GCU B   1      15.152  13.502  24.0160  0.00  0.00     0.000 HD
ATOM      9   O  GCU B   1      13.920  13.619  21.0200  0.00  0.00     0.000 O
ATOM     11  HD  GCU B   1      14.781  13.648  21.1100  0.00  0.00     0.000 HD
ATOM     11   O  GCU B   1      11.251  12.934  20.2440  0.00  0.00     0.000 O
ATOM     13  HD  GCU B   1      12.111  12.964  20.3330  0.00  0.00     0.000 HD
ENDROOT
BRANCH 5 13
ATOM     13   C  GCU B   1      10.022  10.697  21.5580  0.00  0.00     0.000 C
ATOM     14   O  GCU B   1      10.245   9.469  21.5400  0.00  0.00     0.000 OA
ATOM     15   O  GCU B   1       9.011  11.196  21.0260  0.00  0.00     0.000 OA
ENDBRANCH 5 13
BRANCH 1 16
ATOM     16  O3  NAG B   2      12.625  10.901  24.9060  0.00  0.00     0.000 O
BRANCH 16 19
ATOM     17  C1  NAG B   2      11.484  10.714  28.4960  0.00  0.00     0.000 C
ATOM     18  C2  NAG B   2      12.145  11.315  27.2620  0.00  0.00     0.000 C
ATOM     19  C3  NAG B   2      11.862  10.449  26.0360  0.00  0.00     0.000 C
ATOM     20  C4  NAG B   2      12.238   8.994  26.3130  0.00  0.00     0.000 C
ATOM     21  C5  NAG B   2      11.518   8.503  27.5600  0.00  0.00     0.000 C
ATOM     22  O5  NAG B   2      11.882   9.344  28.6690  0.00  0.00     0.000 O
ATOM     23   O  NAG B   2      11.884   8.211  25.1670  0.00  0.00     0.000 O
ATOM     25  HD  NAG B   2      12.729   8.306  25.3350  0.00  0.00     0.000 HD
ATOM     25   C  NAG B   2      11.835   7.046  27.8900  0.00  0.00     0.000 C
ATOM     26   O  NAG B   2      13.164   6.898  28.4140  0.00  0.00     0.000 O
ATOM     28  HD  NAG B   2      14.008   6.993  28.5820  0.00  0.00     0.000 HD
BRANCH 18 30
ATOM     28   N  NAG B   2      11.710  12.670  27.5420  0.00  0.00     0.000 N
ATOM     30  HD  NAG B   2      12.462  12.785  27.1280  0.00  0.00     0.000 HD
ATOM     30   C  NAG B   2      12.452  13.757  27.2980  0.00  0.00     0.000 C
ATOM     31   C  NAG B   2      11.880  15.092  27.6860  0.00  0.00     0.000 C
ATOM     32   O  NAG B   2      13.550  13.681  26.7860  0.00  0.00     0.000 OA
ENDBRANCH 18 30
BRANCH 17 33
ATOM     33  O4  GCU B   3      11.817  11.553  29.6210  0.00  0.00     0.000 O
BRANCH 33 37
ATOM     34  C1  GCU B   3       9.787  12.170  33.2030  0.00  0.00     0.000 C
ATOM     35  C2  GCU B   3      10.867  11.088  33.1770  0.00  0.00     0.000 C
ATOM     36  C3  GCU B   3      11.762  11.294  31.9730  0.00  0.00     0.000 C
ATOM     37  C4  GCU B   3      10.916  11.335  30.7080  0.00  0.00     0.000 C
ATOM     38  C5  GCU B   3       9.869  12.445  30.8250  0.00  0.00     0.000 C
ATOM     39  O5  GCU B   3       9.056  12.186  31.9740  0.00  0.00     0.000 O
ATOM     40   O  GCU B   3      11.632  11.168  34.3810  0.00  0.00     0.000 O
ATOM     42  HD  GCU B   3      12.447  11.202  34.6740  0.00  0.00     0.000 HD
ATOM     42   O  GCU B   3      12.747  10.250  31.8760  0.00  0.00     0.000 O
ATOM     44  HD  GCU B   3      13.561  10.284  32.1680  0.00  0.00     0.000 HD
BRANCH 38 44
ATOM     44   C  GCU B   3       8.974  12.530  29.6140  0.00  0.00     0.000 C
ATOM     45   O  GCU B   3       9.133  13.473  28.8230  0.00  0.00     0.000 OA
ATOM     46   O  GCU B   3       8.101  11.660  29.4290  0.00  0.00     0.000 OA
ENDBRANCH 38 44
BRANCH 34 47
ATOM     47  O3  NAG B   4       8.895  11.861  34.1340  0.00  0.00     0.000 O
BRANCH 47 50
ATOM     48  C1  NAG B   4       5.604  13.022  35.3900  0.00  0.00     0.000 C
ATOM     49  C2  NAG B   4       6.638  12.057  34.8180  0.00  0.00     0.000 C
ATOM     50  C3  NAG B   4       8.055  12.553  35.0560  0.00  0.00     0.000 C
ATOM     51  C4  NAG B   4       8.221  14.064  34.8630  0.00  0.00     0.000 C
ATOM     52  C5  NAG B   4       7.324  14.843  35.8100  0.00  0.00     0.000 C
ATOM     53  O5  NAG B   4       5.993  14.296  35.9450  0.00  0.00     0.000 O
BRANCH 49 56
ATOM     54   N  NAG B   4       6.495  11.080  35.9110  0.00  0.00     0.000 N
ATOM     56  HD  NAG B   4       6.498  11.263  36.7580  0.00  0.00     0.000 HD
ATOM     56   C  NAG B   4       6.273   8.932  37.0200  0.00  0.00     0.000 C
ATOM     57   O  NAG B   4       6.758   9.152  34.7360  0.00  0.00     0.000 OA
ATOM     58   C  NAG B   4       6.538   9.738  35.7860  0.00  0.00     0.000 C
ENDBRANCH 49 56
ATOM     59   O  NAG B   4       6.738  17.174  36.3770  0.00  0.00     0.000 O
ATOM     61  HD  NAG B   4       6.572  16.458  35.9180  0.00  0.00     0.000 HD
ATOM     61   O  NAG B   4       6.738  17.174  36.3770  0.00  0.00     0.000 O
ATOM     63  HD  NAG B   4       6.572  16.458  35.9180  0.00  0.00     0.000 HD
ENDBRANCH 47 50
ENDBRANCH 34 47
ENDBRANCH 33 37
ENDBRANCH 17 33
ENDBRANCH 16 19
ENDBRANCH 1 16
TORSDOF 10
ENDMDL
MODEL 71
REMARK VINA RESULT:      -5.6     25.677     31.408
ROOT
ATOM      1  C1  GCU B   1      10.862  54.746   9.4200  0.00  0.00     0.000 C
ATOM      2  C2  GCU B   1      10.745  55.745  10.5610  0.00  0.00     0.000 C
ATOM      3  C3  GCU B   1       9.469  55.501  11.3520  0.00  0.00     0.000 C
ATOM      4  C4  GCU B   1       8.273  55.445  10.4150  0.00  0.00     0.000 C
ATOM      5  C5  GCU B   1       8.516  54.459   9.2710  0.00  0.00     0.000 C
ATOM      6  O5  GCU B   1       9.708  54.838   8.5690  0.00  0.00     0.000 O
ATOM      7   O  GCU B   1      11.891  55.589  11.3920  0.00  0.00     0.000 O
ATOM      9  HD  GCU B   1      12.428  56.219  11.6450  0.00  0.00     0.000 HD
ATOM      9   O  GCU B   1       9.274  56.532  12.3240  0.00  0.00     0.000 O
ATOM     11  HD  GCU B   1       9.811  57.162  12.5770  0.00  0.00     0.000 HD
ATOM     11   O  GCU B   1       7.121  55.046  11.1590  0.00  0.00     0.000 O
ATOM     13  HD  GCU B   1       7.658  55.677  11.4130  0.00  0.00     0.000 HD
ENDROOT
BRANCH 5 13
ATOM     13   C  GCU B   1       7.309  54.413   8.3660  0.00  0.00     0.000 C
ATOM     14   O  GCU B   1       6.903  53.325   7.9090  0.00  0.00     0.000 OA
ATOM     15   O  GCU B   1       6.731  55.491   8.1250  0.00  0.00     0.000 OA
ENDBRANCH 5 13
BRANCH 1 16
ATOM     16  O3  NAG B   2      11.526  54.897   8.2710  0.00  0.00     0.000 O
BRANCH 16 19
ATOM     17  C1  NAG B   2      14.245  52.758   6.7690  0.00  0.00     0.000 C
ATOM     18  C2  NAG B   2      13.533  53.579   7.8360  0.00  0.00     0.000 C
ATOM     19  C3  NAG B   2      12.138  53.975   7.3560  0.00  0.00     0.000 C
ATOM     20  C4  NAG B   2      12.218  54.648   5.9860  0.00  0.00     0.000 C
ATOM     21  C5  NAG B   2      12.943  53.738   5.0060  0.00  0.00     0.000 C
ATOM     22  O5  NAG B   2      14.259  53.460   5.5150  0.00  0.00     0.000 O
ATOM     23   O  NAG B   2      10.885  54.931   5.5440  0.00  0.00     0.000 O
ATOM     25  HD  NAG B   2      11.388  55.608   5.7410  0.00  0.00     0.000 HD
ATOM     25   C  NAG B   2      13.047  54.340   3.6060  0.00  0.00     0.000 C
ATOM     26   O  NAG B   2      14.005  55.409   3.5590  0.00  0.00     0.000 O
ATOM     28  HD  NAG B   2      14.507  56.086   3.7560  0.00  0.00     0.000 HD
BRANCH 18 30
ATOM     28   N  NAG B   2      13.858  52.700   8.9430  0.00  0.00     0.000 N
ATOM     30  HD  NAG B   2      13.869  53.486   9.3060  0.00  0.00     0.000 HD
ATOM     30   C  NAG B   2      14.215  53.131  10.1590  0.00  0.00     0.000 C
ATOM     31   C  NAG B   2      14.566  52.096  11.1910  0.00  0.00     0.000 C
ATOM     32   O  NAG B   2      14.259  54.314  10.4310  0.00  0.00     0.000 OA
ENDBRANCH 18 30
BRANCH 17 33
ATOM     33  O4  GCU B   3      15.563  52.448   7.2660  0.00  0.00     0.000 O
BRANCH 33 37
ATOM     34  C1  GCU B   3      18.237  49.447   6.1790  0.00  0.00     0.000 C
ATOM     35  C2  GCU B   3      18.260  50.745   5.3710  0.00  0.00     0.000 C
ATOM     36  C3  GCU B   3      17.559  51.839   6.1490  0.00  0.00     0.000 C
ATOM     37  C4  GCU B   3      16.155  51.383   6.5200  0.00  0.00     0.000 C
ATOM     38  C5  GCU B   3      16.232  50.084   7.3250  0.00  0.00     0.000 C
ATOM     39  O5  GCU B   3      16.896  49.095   6.5320  0.00  0.00     0.000 O
ATOM     40   O  GCU B   3      19.619  51.111   5.1200  0.00  0.00     0.000 O
ATOM     42  HD  GCU B   3      20.169  51.777   5.1730  0.00  0.00     0.000 HD
ATOM     42   O  GCU B   3      17.497  53.058   5.3870  0.00  0.00     0.000 O
ATOM     44  HD  GCU B   3      18.048  53.725   5.4390  0.00  0.00     0.000 HD
BRANCH 38 44
ATOM     44   C  GCU B   3      14.872  49.556   7.7080  0.00  0.00     0.000 C
ATOM     45   O  GCU B   3      14.152  49.072   6.8220  0.00  0.00     0.000 OA
ATOM     46   O  GCU B   3      14.501  49.610   8.8960  0.00  0.00     0.000 OA
ENDBRANCH 38 44
BRANCH 34 47
ATOM     47  O3  NAG B   4      18.665  48.457   5.4090  0.00  0.00     0.000 O
BRANCH 47 50
ATOM     48  C1  NAG B   4      21.925  46.799   6.0260  0.00  0.00     0.000 C
ATOM     49  C2  NAG B   4      20.776  47.779   6.2390  0.00  0.00     0.000 C
ATOM     50  C3  NAG B   4      19.510  47.315   5.5370  0.00  0.00     0.000 C
ATOM     51  C4  NAG B   4      19.759  46.708   4.1520  0.00  0.00     0.000 C
ATOM     52  C5  NAG B   4      20.677  45.499   4.2370  0.00  0.00     0.000 C
ATOM     53  O5  NAG B   4      21.793  45.669   5.1390  0.00  0.00     0.000 O
BRANCH 49 56
ATOM     54   N  NAG B   4      20.683  47.934   7.7010  0.00  0.00     0.000 N
ATOM     56  HD  NAG B   4      21.115  48.515   8.1760  0.00  0.00     0.000 HD
ATOM     56   C  NAG B   4      20.020  47.487   9.9930  0.00  0.00     0.000 C
ATOM     57   O  NAG B   4      19.563  46.025   8.2170  0.00  0.00     0.000 OA
ATOM     58   C  NAG B   4      20.077  47.082   8.5520  0.00  0.00     0.000 C
ENDBRANCH 49 56
ATOM     59   O  NAG B   4      21.741  43.824   2.7690  0.00  0.00     0.000 O
ATOM     61  HD  NAG B   4      21.787  44.584   3.1810  0.00  0.00     0.000 HD
ATOM     61   O  NAG B   4      21.741  43.824   2.7690  0.00  0.00     0.000 O
ATOM     63  HD  NAG B   4      21.787  44.584   3.1810  0.00  0.00     0.000 HD
ENDBRANCH 47 50
ENDBRANCH 34 47
ENDBRANCH 33 37
ENDBRANCH 17 33
ENDBRANCH 16 19
ENDBRANCH 1 16
TORSDOF 10
ENDMDL
MODEL 72
REMARK VINA RESULT:      -5.5     16.579     19.552
ROOT
ATOM      1  C1  GCU B   1      22.005  22.094  26.1760  0.00  0.00     0.000 C
ATOM      2  C2  GCU B   1      23.083  22.852  25.4160  0.00  0.00     0.000 C
ATOM      3  C3  GCU B   1      22.488  23.551  24.2030  0.00  0.00     0.000 C
ATOM      4  C4  GCU B   1      21.680  22.565  23.3730  0.00  0.00     0.000 C
ATOM      5  C5  GCU B   1      20.669  21.813  24.2400  0.00  0.00     0.000 C
ATOM      6  O5  GCU B   1      21.365  21.149  25.3040  0.00  0.00     0.000 O
ATOM      7   O  GCU B   1      23.660  23.798  26.3110  0.00  0.00     0.000 O
ATOM      9  HD  GCU B   1      24.504  23.894  26.4780  0.00  0.00     0.000 HD
ATOM      9   O  GCU B   1      23.518  24.131  23.3990  0.00  0.00     0.000 O
ATOM     11  HD  GCU B   1      24.363  24.227  23.5660  0.00  0.00     0.000 HD
ATOM     11   O  GCU B   1      20.996  23.281  22.3430  0.00  0.00     0.000 O
ATOM     13  HD  GCU B   1      21.841  23.377  22.5110  0.00  0.00     0.000 HD
ENDROOT
BRANCH 5 13
ATOM     13   C  GCU B   1      19.874  20.854  23.3880  0.00  0.00     0.000 C
ATOM     14   O  GCU B   1      20.128  19.632  23.4080  0.00  0.00     0.000 OA
ATOM     15   O  GCU B   1      18.950  21.328  22.6990  0.00  0.00     0.000 OA
ENDBRANCH 5 13
BRANCH 1 16
ATOM     16  O3  NAG B   2      22.162  21.027  26.9610  0.00  0.00     0.000 O
BRANCH 16 19
ATOM     17  C1  NAG B   2      20.821  19.843  30.2820  0.00  0.00     0.000 C
ATOM     18  C2  NAG B   2      21.611  20.719  29.3180  0.00  0.00     0.000 C
ATOM     19  C3  NAG B   2      21.294  20.337  27.8740  0.00  0.00     0.000 C
ATOM     20  C4  NAG B   2      21.485  18.834  27.6670  0.00  0.00     0.000 C
ATOM     21  C5  NAG B   2      20.648  18.064  28.6790  0.00  0.00     0.000 C
ATOM     22  O5  NAG B   2      21.049  18.452  30.0050  0.00  0.00     0.000 O
ATOM     23   O  NAG B   2      21.103  18.511  26.3260  0.00  0.00     0.000 O
ATOM     25  HD  NAG B   2      21.943  18.440  26.5250  0.00  0.00     0.000 HD
ATOM     25   C  NAG B   2      20.777  16.551  28.5220  0.00  0.00     0.000 C
ATOM     26   O  NAG B   2      22.050  16.076  28.9850  0.00  0.00     0.000 O
ATOM     28  HD  NAG B   2      22.890  16.005  29.1840  0.00  0.00     0.000 HD
BRANCH 18 30
ATOM     28   N  NAG B   2      22.354  21.633  30.1660  0.00  0.00     0.000 N
ATOM     30  HD  NAG B   2      21.781  22.150  29.7730  0.00  0.00     0.000 HD
ATOM     30   C  NAG B   2      22.196  22.962  30.1490  0.00  0.00     0.000 C
ATOM     31   C  NAG B   2      23.072  23.779  31.0560  0.00  0.00     0.000 C
ATOM     32   O  NAG B   2      21.379  23.501  29.4300  0.00  0.00     0.000 OA
ENDBRANCH 18 30
BRANCH 17 33
ATOM     33  O4  GCU B   3      21.190  20.228  31.6220  0.00  0.00     0.000 O
BRANCH 33 37
ATOM     34  C1  GCU B   3      18.975  20.309  35.1460  0.00  0.00     0.000 C
ATOM     35  C2  GCU B   3      19.283  18.943  34.5340  0.00  0.00     0.000 C
ATOM     36  C3  GCU B   3      20.419  19.077  33.5410  0.00  0.00     0.000 C
ATOM     37  C4  GCU B   3      20.072  20.139  32.5080  0.00  0.00     0.000 C
ATOM     38  C5  GCU B   3      19.782  21.466  33.2110  0.00  0.00     0.000 C
ATOM     39  O5  GCU B   3      18.698  21.271  34.1240  0.00  0.00     0.000 O
ATOM     40   O  GCU B   3      19.645  18.037  35.5790  0.00  0.00     0.000 O
ATOM     42  HD  GCU B   3      20.249  17.461  35.8070  0.00  0.00     0.000 HD
ATOM     42   O  GCU B   3      20.689  17.822  32.8910  0.00  0.00     0.000 O
ATOM     44  HD  GCU B   3      21.294  17.246  33.1190  0.00  0.00     0.000 HD
BRANCH 38 44
ATOM     44   C  GCU B   3      19.405  22.564  32.2480  0.00  0.00     0.000 C
ATOM     45   O  GCU B   3      18.657  22.289  31.2970  0.00  0.00     0.000 OA
ATOM     46   O  GCU B   3      19.843  23.717  32.4230  0.00  0.00     0.000 OA
ENDBRANCH 38 44
BRANCH 34 47
ATOM     47  O3  NAG B   4      17.855  20.219  35.8500  0.00  0.00     0.000 O
BRANCH 47 50
ATOM     48  C1  NAG B   4      14.545  21.707  36.6140  0.00  0.00     0.000 C
ATOM     49  C2  NAG B   4      16.051  21.657  36.3790  0.00  0.00     0.000 C
ATOM     50  C3  NAG B   4      16.457  20.398  35.6300  0.00  0.00     0.000 C
ATOM     51  C4  NAG B   4      15.705  19.141  36.0830  0.00  0.00     0.000 C
ATOM     52  C5  NAG B   4      14.206  19.297  35.8900  0.00  0.00     0.000 C
ATOM     53  O5  NAG B   4      13.694  20.594  36.2690  0.00  0.00     0.000 O
BRANCH 49 56
ATOM     54   N  NAG B   4      16.469  22.891  35.6900  0.00  0.00     0.000 N
ATOM     56  HD  NAG B   4      16.923  23.538  36.0430  0.00  0.00     0.000 HD
ATOM     56   C  NAG B   4      16.681  24.543  33.9240  0.00  0.00     0.000 C
ATOM     57   O  NAG B   4      15.213  22.718  33.8030  0.00  0.00     0.000 OA
ATOM     58   C  NAG B   4      16.050  23.301  34.4760  0.00  0.00     0.000 C
ENDBRANCH 49 56
ATOM     59   O  NAG B   4      12.110  18.042  36.2500  0.00  0.00     0.000 O
ATOM     61  HD  NAG B   4      12.693  18.611  36.5440  0.00  0.00     0.000 HD
ATOM     61   O  NAG B   4      12.110  18.042  36.2500  0.00  0.00     0.000 O
ATOM     63  HD  NAG B   4      12.693  18.611  36.5440  0.00  0.00     0.000 HD
ENDBRANCH 47 50
ENDBRANCH 34 47
ENDBRANCH 33 37
ENDBRANCH 17 33
ENDBRANCH 16 19
ENDBRANCH 1 16
TORSDOF 10
ENDMDL
MODEL 73
REMARK VINA RESULT:      -5.5     31.428     35.840
ROOT
ATOM      1  C1  GCU B   1       4.583  52.119  13.7220  0.00  0.00     0.000 C
ATOM      2  C2  GCU B   1       4.710  50.972  14.7120  0.00  0.00     0.000 C
ATOM      3  C3  GCU B   1       3.452  50.118  14.7010  0.00  0.00     0.000 C
ATOM      4  C4  GCU B   1       2.221  50.993  14.8790  0.00  0.00     0.000 C
ATOM      5  C5  GCU B   1       2.219  52.150  13.8780  0.00  0.00     0.000 C
ATOM      6  O5  GCU B   1       3.425  52.910  14.0370  0.00  0.00     0.000 O
ATOM      7   O  GCU B   1       5.847  50.200  14.3360  0.00  0.00     0.000 O
ATOM      9  HD  GCU B   1       6.504  49.973  14.8530  0.00  0.00     0.000 HD
ATOM      9   O  GCU B   1       3.501  49.135  15.7390  0.00  0.00     0.000 O
ATOM     11  HD  GCU B   1       4.158  48.908  16.2560  0.00  0.00     0.000 HD
ATOM     11   O  GCU B   1       1.054  50.191  14.6940  0.00  0.00     0.000 O
ATOM     13  HD  GCU B   1       1.711  49.964  15.2100  0.00  0.00     0.000 HD
ENDROOT
BRANCH 5 13
ATOM     13   C  GCU B   1       0.981  52.992  14.0690  0.00  0.00     0.000 C
ATOM     14   O  GCU B   1       1.010  53.999  14.8070  0.00  0.00     0.000 OA
ATOM     15   O  GCU B   1      -0.043  52.657  13.4430  0.00  0.00     0.000 OA
ENDBRANCH 5 13
BRANCH 1 16
ATOM     16  O3  NAG B   2       5.205  53.299  13.7610  0.00  0.00     0.000 O
BRANCH 16 19
ATOM     17  C1  NAG B   2       7.291  54.761  10.9790  0.00  0.00     0.000 C
ATOM     18  C2  NAG B   2       6.754  53.687  11.9150  0.00  0.00     0.000 C
ATOM     19  C3  NAG B   2       5.600  54.240  12.7500  0.00  0.00     0.000 C
ATOM     20  C4  NAG B   2       6.019  55.536  13.4440  0.00  0.00     0.000 C
ATOM     21  C5  NAG B   2       6.532  56.530  12.4130  0.00  0.00     0.000 C
ATOM     22  O5  NAG B   2       7.644  55.944  11.7140  0.00  0.00     0.000 O
ATOM     23   O  NAG B   2       4.887  56.056  14.1490  0.00  0.00     0.000 O
ATOM     25  HD  NAG B   2       5.547  55.761  14.6250  0.00  0.00     0.000 HD
ATOM     25   C  NAG B   2       6.956  57.860  13.0350  0.00  0.00     0.000 C
ATOM     26   O  NAG B   2       8.191  57.738  13.7570  0.00  0.00     0.000 O
ATOM     28  HD  NAG B   2       8.851  57.443  14.2340  0.00  0.00     0.000 HD
BRANCH 18 30
ATOM     28   N  NAG B   2       6.472  52.577  11.0250  0.00  0.00     0.000 N
ATOM     30  HD  NAG B   2       6.971  52.218  11.6360  0.00  0.00     0.000 HD
ATOM     30   C  NAG B   2       7.028  51.365  11.1440  0.00  0.00     0.000 C
ATOM     31   C  NAG B   2       6.669  50.329  10.1160  0.00  0.00     0.000 C
ATOM     32   O  NAG B   2       7.799  51.099  12.0450  0.00  0.00     0.000 OA
ENDBRANCH 18 30
BRANCH 17 33
ATOM     33  O4  GCU B   3       8.396  54.190  10.2490  0.00  0.00     0.000 O
BRANCH 33 37
ATOM     34  C1  GCU B   3      10.073  55.286   6.5990  0.00  0.00     0.000 C
ATOM     35  C2  GCU B   3      10.644  55.927   7.8640  0.00  0.00     0.000 C
ATOM     36  C3  GCU B   3      10.229  55.119   9.0750  0.00  0.00     0.000 C
ATOM     37  C4  GCU B   3       8.714  54.978   9.1000  0.00  0.00     0.000 C
ATOM     38  C5  GCU B   3       8.236  54.327   7.8000  0.00  0.00     0.000 C
ATOM     39  O5  GCU B   3       8.653  55.143   6.7020  0.00  0.00     0.000 O
ATOM     40   O  GCU B   3      12.069  55.966   7.7600  0.00  0.00     0.000 O
ATOM     42  HD  GCU B   3      12.793  55.769   8.1940  0.00  0.00     0.000 HD
ATOM     42   O  GCU B   3      10.689  55.734  10.2910  0.00  0.00     0.000 O
ATOM     44  HD  GCU B   3      11.413  55.537  10.7240  0.00  0.00     0.000 HD
BRANCH 38 44
ATOM     44   C  GCU B   3       6.736  54.177   7.7420  0.00  0.00     0.000 C
ATOM     45   O  GCU B   3       6.049  55.176   7.4800  0.00  0.00     0.000 OA
ATOM     46   O  GCU B   3       6.218  53.064   7.9520  0.00  0.00     0.000 OA
ENDBRANCH 38 44
BRANCH 34 47
ATOM     47  O3  NAG B   4      10.266  56.109   5.5780  0.00  0.00     0.000 O
BRANCH 47 50
ATOM     48  C1  NAG B   4      12.174  56.490   2.4200  0.00  0.00     0.000 C
ATOM     49  C2  NAG B   4      11.911  56.116   3.8750  0.00  0.00     0.000 C
ATOM     50  C3  NAG B   4      10.422  56.011   4.1630  0.00  0.00     0.000 C
ATOM     51  C4  NAG B   4       9.583  57.099   3.4820  0.00  0.00     0.000 C
ATOM     52  C5  NAG B   4       9.738  57.049   1.9710  0.00  0.00     0.000 C
ATOM     53  O5  NAG B   4      11.094  56.827   1.5250  0.00  0.00     0.000 O
BRANCH 49 56
ATOM     54   N  NAG B   4      12.237  54.689   3.7090  0.00  0.00     0.000 N
ATOM     56  HD  NAG B   4      11.895  54.158   3.1170  0.00  0.00     0.000 HD
ATOM     56   C  NAG B   4      13.252  52.528   4.1450  0.00  0.00     0.000 C
ATOM     57   O  NAG B   4      13.400  54.338   5.6300  0.00  0.00     0.000 OA
ATOM     58   C  NAG B   4      12.960  53.937   4.5620  0.00  0.00     0.000 C
ENDBRANCH 49 56
ATOM     59   O  NAG B   4       8.954  58.226  -0.0520  0.00  0.00     0.000 O
ATOM     61  HD  NAG B   4       9.551  58.137   0.5700  0.00  0.00     0.000 HD
ATOM     61   O  NAG B   4       8.954  58.226  -0.0520  0.00  0.00     0.000 O
ATOM     63  HD  NAG B   4       9.551  58.137   0.5700  0.00  0.00     0.000 HD
ENDBRANCH 47 50
ENDBRANCH 34 47
ENDBRANCH 33 37
ENDBRANCH 17 33
ENDBRANCH 16 19
ENDBRANCH 1 16
TORSDOF 10
ENDMDL
MODEL 74
REMARK VINA RESULT:      -5.5     22.413     28.514
ROOT
ATOM      1  C1  GCU B   1       9.202  50.197  15.9890  0.00  0.00     0.000 C
ATOM      2  C2  GCU B   1       8.172  50.417  17.0860  0.00  0.00     0.000 C
ATOM      3  C3  GCU B   1       6.777  50.084  16.5800  0.00  0.00     0.000 C
ATOM      4  C4  GCU B   1       6.502  50.816  15.2760  0.00  0.00     0.000 C
ATOM      5  C5  GCU B   1       7.625  50.579  14.2640  0.00  0.00     0.000 C
ATOM      6  O5  GCU B   1       8.871  50.993  14.8400  0.00  0.00     0.000 O
ATOM      7   O  GCU B   1       8.524  49.581  18.1830  0.00  0.00     0.000 O
ATOM      9  HD  GCU B   1       8.623  49.832  19.0060  0.00  0.00     0.000 HD
ATOM      9   O  GCU B   1       5.790  50.439  17.5520  0.00  0.00     0.000 O
ATOM     11  HD  GCU B   1       5.889  50.691  18.3740  0.00  0.00     0.000 HD
ATOM     11   O  GCU B   1       5.262  50.354  14.7390  0.00  0.00     0.000 O
ATOM     13  HD  GCU B   1       5.361  50.606  15.5620  0.00  0.00     0.000 HD
ENDROOT
BRANCH 5 13
ATOM     13   C  GCU B   1       7.318  51.306  12.9770  0.00  0.00     0.000 C
ATOM     14   O  GCU B   1       6.531  52.275  12.9710  0.00  0.00     0.000 OA
ATOM     15   O  GCU B   1       7.900  50.917  11.9460  0.00  0.00     0.000 OA
ENDBRANCH 5 13
BRANCH 1 16
ATOM     16  O3  NAG B   2      10.392  50.787  15.8600  0.00  0.00     0.000 O
BRANCH 16 19
ATOM     17  C1  NAG B   2      13.500  49.452  14.1910  0.00  0.00     0.000 C
ATOM     18  C2  NAG B   2      12.283  49.441  15.1060  0.00  0.00     0.000 C
ATOM     19  C3  NAG B   2      11.440  50.695  14.8820  0.00  0.00     0.000 C
ATOM     20  C4  NAG B   2      12.308  51.947  14.9950  0.00  0.00     0.000 C
ATOM     21  C5  NAG B   2      13.485  51.847  14.0360  0.00  0.00     0.000 C
ATOM     22  O5  NAG B   2      14.246  50.669  14.3540  0.00  0.00     0.000 O
ATOM     23   O  NAG B   2      11.495  53.089  14.7010  0.00  0.00     0.000 O
ATOM     25  HD  NAG B   2      11.773  53.002  15.5170  0.00  0.00     0.000 HD
ATOM     25   C  NAG B   2      14.391  53.076  14.0830  0.00  0.00     0.000 C
ATOM     26   O  NAG B   2      15.177  53.110  15.2850  0.00  0.00     0.000 O
ATOM     28  HD  NAG B   2      15.456  53.023  16.1000  0.00  0.00     0.000 HD
BRANCH 18 30
ATOM     28   N  NAG B   2      12.336  48.219  15.8870  0.00  0.00     0.000 N
ATOM     30  HD  NAG B   2      11.700  48.064  15.3200  0.00  0.00     0.000 HD
ATOM     30   C  NAG B   2      11.459  47.215  15.7610  0.00  0.00     0.000 C
ATOM     31   C  NAG B   2      11.620  46.031  16.6730  0.00  0.00     0.000 C
ATOM     32   O  NAG B   2      10.560  47.248  14.9450  0.00  0.00     0.000 OA
ENDBRANCH 18 30
BRANCH 17 33
ATOM     33  O4  GCU B   3      14.270  48.266  14.4760  0.00  0.00     0.000 O
BRANCH 33 37
ATOM     34  C1  GCU B   3      17.191  46.319  12.2370  0.00  0.00     0.000 C
ATOM     35  C2  GCU B   3      17.632  47.491  13.1140  0.00  0.00     0.000 C
ATOM     36  C3  GCU B   3      16.563  47.784  14.1450  0.00  0.00     0.000 C
ATOM     37  C4  GCU B   3      15.231  48.019  13.4480  0.00  0.00     0.000 C
ATOM     38  C5  GCU B   3      14.872  46.797  12.6000  0.00  0.00     0.000 C
ATOM     39  O5  GCU B   3      15.916  46.583  11.6450  0.00  0.00     0.000 O
ATOM     40   O  GCU B   3      18.861  47.150  13.7590  0.00  0.00     0.000 O
ATOM     42  HD  GCU B   3      19.247  47.137  14.5340  0.00  0.00     0.000 HD
ATOM     42   O  GCU B   3      16.913  48.930  14.9430  0.00  0.00     0.000 O
ATOM     44  HD  GCU B   3      17.299  48.917  15.7180  0.00  0.00     0.000 HD
BRANCH 38 44
ATOM     44   C  GCU B   3      13.571  46.968  11.8560  0.00  0.00     0.000 C
ATOM     45   O  GCU B   3      12.527  46.552  12.3820  0.00  0.00     0.000 OA
ATOM     46   O  GCU B   3      13.565  47.520  10.7390  0.00  0.00     0.000 OA
ENDBRANCH 38 44
BRANCH 34 47
ATOM     47  O3  NAG B   4      18.031  46.207  11.2180  0.00  0.00     0.000 O
BRANCH 47 50
ATOM     48  C1  NAG B   4      21.168  45.816   9.2800  0.00  0.00     0.000 C
ATOM     49  C2  NAG B   4      20.017  46.536   9.9740  0.00  0.00     0.000 C
ATOM     50  C3  NAG B   4      19.312  45.630  10.9690  0.00  0.00     0.000 C
ATOM     51  C4  NAG B   4      19.134  44.190  10.4760  0.00  0.00     0.000 C
ATOM     52  C5  NAG B   4      20.475  43.542  10.1730  0.00  0.00     0.000 C
ATOM     53  O5  NAG B   4      21.407  44.408   9.4880  0.00  0.00     0.000 O
BRANCH 49 56
ATOM     54   N  NAG B   4      20.600  47.764  10.5420  0.00  0.00     0.000 N
ATOM     56  HD  NAG B   4      20.618  48.540  10.1580  0.00  0.00     0.000 HD
ATOM     56   C  NAG B   4      21.773  49.208  12.1010  0.00  0.00     0.000 C
ATOM     57   O  NAG B   4      21.726  46.872  12.3040  0.00  0.00     0.000 OA
ATOM     58   C  NAG B   4      21.366  47.839  11.6490  0.00  0.00     0.000 C
ENDBRANCH 49 56
ATOM     59   O  NAG B   4      21.403  41.407   9.3510  0.00  0.00     0.000 O
ATOM     61  HD  NAG B   4      21.124  42.209   9.1790  0.00  0.00     0.000 HD
ATOM     61   O  NAG B   4      21.403  41.407   9.3510  0.00  0.00     0.000 O
ATOM     63  HD  NAG B   4      21.124  42.209   9.1790  0.00  0.00     0.000 HD
ENDBRANCH 47 50
ENDBRANCH 34 47
ENDBRANCH 33 37
ENDBRANCH 17 33
ENDBRANCH 16 19
ENDBRANCH 1 16
TORSDOF 10
ENDMDL
MODEL 75
REMARK VINA RESULT:      -5.5     12.298     16.842
ROOT
ATOM      1  C1  GCU B   1      21.248  41.697  16.1290  0.00  0.00     0.000 C
ATOM      2  C2  GCU B   1      21.679  43.143  15.9350  0.00  0.00     0.000 C
ATOM      3  C3  GCU B   1      21.944  43.426  14.4650  0.00  0.00     0.000 C
ATOM      4  C4  GCU B   1      22.892  42.385  13.8910  0.00  0.00     0.000 C
ATOM      5  C5  GCU B   1      22.400  40.968  14.1930  0.00  0.00     0.000 C
ATOM      6  O5  GCU B   1      22.255  40.813  15.6110  0.00  0.00     0.000 O
ATOM      7   O  GCU B   1      20.635  43.976  16.4300  0.00  0.00     0.000 O
ATOM      9  HD  GCU B   1      20.723  44.619  17.0030  0.00  0.00     0.000 HD
ATOM      9   O  GCU B   1      22.501  44.733  14.2950  0.00  0.00     0.000 O
ATOM     11  HD  GCU B   1      22.588  45.375  14.8690  0.00  0.00     0.000 HD
ATOM     11   O  GCU B   1      22.985  42.574  12.4790  0.00  0.00     0.000 O
ATOM     13  HD  GCU B   1      23.073  43.217  13.0520  0.00  0.00     0.000 HD
ENDROOT
BRANCH 5 13
ATOM     13   C  GCU B   1      23.352  39.957  13.6000  0.00  0.00     0.000 C
ATOM     14   O  GCU B   1      24.585  40.139  13.6620  0.00  0.00     0.000 OA
ATOM     15   O  GCU B   1      22.857  38.937  13.0820  0.00  0.00     0.000 OA
ENDBRANCH 5 13
BRANCH 1 16
ATOM     16  O3  NAG B   2      21.380  40.950  17.2270  0.00  0.00     0.000 O
BRANCH 16 19
ATOM     17  C1  NAG B   2      19.649  37.800  18.3730  0.00  0.00     0.000 C
ATOM     18  C2  NAG B   2      19.772  39.246  17.9090  0.00  0.00     0.000 C
ATOM     19  C3  NAG B   2      21.210  39.549  17.4930  0.00  0.00     0.000 C
ATOM     20  C4  NAG B   2      22.180  39.156  18.6070  0.00  0.00     0.000 C
ATOM     21  C5  NAG B   2      21.969  37.696  18.9830  0.00  0.00     0.000 C
ATOM     22  O5  NAG B   2      20.606  37.517  19.4070  0.00  0.00     0.000 O
ATOM     23   O  NAG B   2      23.515  39.384  18.1440  0.00  0.00     0.000 O
ATOM     25  HD  NAG B   2      23.225  39.896  18.7800  0.00  0.00     0.000 HD
ATOM     25   C  NAG B   2      22.919  37.227  20.0840  0.00  0.00     0.000 C
ATOM     26   O  NAG B   2      22.556  37.768  21.3640  0.00  0.00     0.000 O
ATOM     28  HD  NAG B   2      22.265  38.279  21.9990  0.00  0.00     0.000 HD
BRANCH 18 30
ATOM     28   N  NAG B   2      18.540  39.190  17.1450  0.00  0.00     0.000 N
ATOM     30  HD  NAG B   2      18.619  40.032  17.3310  0.00  0.00     0.000 HD
ATOM     30   C  NAG B   2      17.728  40.238  16.9600  0.00  0.00     0.000 C
ATOM     31   C  NAG B   2      16.463  40.011  16.1810  0.00  0.00     0.000 C
ATOM     32   O  NAG B   2      17.991  41.338  17.4040  0.00  0.00     0.000 OA
ENDBRANCH 18 30
BRANCH 17 33
ATOM     33  O4  GCU B   3      18.284  37.588  18.7840  0.00  0.00     0.000 O
BRANCH 33 37
ATOM     34  C1  GCU B   3      16.185  34.066  19.5080  0.00  0.00     0.000 C
ATOM     35  C2  GCU B   3      16.981  34.668  20.6660  0.00  0.00     0.000 C
ATOM     36  C3  GCU B   3      17.308  36.114  20.3580  0.00  0.00     0.000 C
ATOM     37  C4  GCU B   3      18.027  36.203  19.0200  0.00  0.00     0.000 C
ATOM     38  C5  GCU B   3      17.157  35.580  17.9260  0.00  0.00     0.000 C
ATOM     39  O5  GCU B   3      16.894  34.217  18.2740  0.00  0.00     0.000 O
ATOM     40   O  GCU B   3      16.200  34.581  21.8590  0.00  0.00     0.000 O
ATOM     42  HD  GCU B   3      15.918  35.053  22.5290  0.00  0.00     0.000 HD
ATOM     42   O  GCU B   3      18.120  36.694  21.3950  0.00  0.00     0.000 O
ATOM     44  HD  GCU B   3      17.838  37.165  22.0650  0.00  0.00     0.000 HD
BRANCH 38 44
ATOM     44   C  GCU B   3      17.818  35.608  16.5700  0.00  0.00     0.000 C
ATOM     45   O  GCU B   3      17.429  36.442  15.7380  0.00  0.00     0.000 OA
ATOM     46   O  GCU B   3      18.734  34.805  16.3130  0.00  0.00     0.000 OA
ENDBRANCH 38 44
BRANCH 34 47
ATOM     47  O3  NAG B   4      16.086  32.757  19.6930  0.00  0.00     0.000 O
BRANCH 47 50
ATOM     48  C1  NAG B   4      17.853  29.497  19.7630  0.00  0.00     0.000 C
ATOM     49  C2  NAG B   4      17.434  30.866  19.2370  0.00  0.00     0.000 C
ATOM     50  C3  NAG B   4      16.832  31.726  20.3360  0.00  0.00     0.000 C
ATOM     51  C4  NAG B   4      15.915  30.954  21.2920  0.00  0.00     0.000 C
ATOM     52  C5  NAG B   4      16.664  29.826  21.9830  0.00  0.00     0.000 C
ATOM     53  O5  NAG B   4      17.552  29.089  21.1140  0.00  0.00     0.000 O
BRANCH 49 56
ATOM     54   N  NAG B   4      18.710  31.603  19.2140  0.00  0.00     0.000 N
ATOM     56  HD  NAG B   4      19.048  32.050  19.8750  0.00  0.00     0.000 HD
ATOM     56   C  NAG B   4      20.768  32.551  18.3420  0.00  0.00     0.000 C
ATOM     57   O  NAG B   4      19.129  31.570  16.9800  0.00  0.00     0.000 OA
ATOM     58   C  NAG B   4      19.453  31.868  18.1210  0.00  0.00     0.000 C
ENDBRANCH 49 56
ATOM     59   O  NAG B   4      16.271  28.010  23.6080  0.00  0.00     0.000 O
ATOM     61  HD  NAG B   4      16.303  28.272  22.7830  0.00  0.00     0.000 HD
ATOM     61   O  NAG B   4      16.271  28.010  23.6080  0.00  0.00     0.000 O
ATOM     63  HD  NAG B   4      16.303  28.272  22.7830  0.00  0.00     0.000 HD
ENDBRANCH 47 50
ENDBRANCH 34 47
ENDBRANCH 33 37
ENDBRANCH 17 33
ENDBRANCH 16 19
ENDBRANCH 1 16
TORSDOF 10
ENDMDL
MODEL 76
REMARK VINA RESULT:      -5.5     21.929     24.587
ROOT
ATOM      1  C1  GCU B   1      12.597  47.211  15.8540  0.00  0.00     0.000 C
ATOM      2  C2  GCU B   1      13.176  48.602  16.0660  0.00  0.00     0.000 C
ATOM      3  C3  GCU B   1      13.097  49.413  14.7820  0.00  0.00     0.000 C
ATOM      4  C4  GCU B   1      13.700  48.628  13.6270  0.00  0.00     0.000 C
ATOM      5  C5  GCU B   1      13.095  47.226  13.5390  0.00  0.00     0.000 C
ATOM      6  O5  GCU B   1      13.294  46.549  14.7870  0.00  0.00     0.000 O
ATOM      7   O  GCU B   1      12.430  49.227  17.1050  0.00  0.00     0.000 O
ATOM      9  HD  GCU B   1      12.756  49.599  17.8160  0.00  0.00     0.000 HD
ATOM      9   O  GCU B   1      13.781  50.659  14.9300  0.00  0.00     0.000 O
ATOM     11  HD  GCU B   1      14.108  51.031  15.6410  0.00  0.00     0.000 HD
ATOM     11   O  GCU B   1      13.458  49.337  12.4110  0.00  0.00     0.000 O
ATOM     13  HD  GCU B   1      13.784  49.708  13.1220  0.00  0.00     0.000 HD
ENDROOT
BRANCH 5 13
ATOM     13   C  GCU B   1      13.702  46.477  12.3770  0.00  0.00     0.000 C
ATOM     14   O  GCU B   1      13.446  46.818  11.2030  0.00  0.00     0.000 OA
ATOM     15   O  GCU B   1      14.477  45.538  12.6410  0.00  0.00     0.000 OA
ENDBRANCH 5 13
BRANCH 1 16
ATOM     16  O3  NAG B   2      12.890  46.097  16.5270  0.00  0.00     0.000 O
BRANCH 16 19
ATOM     17  C1  NAG B   2      10.586  43.751  18.3750  0.00  0.00     0.000 C
ATOM     18  C2  NAG B   2      11.206  45.083  17.9730  0.00  0.00     0.000 C
ATOM     19  C3  NAG B   2      12.164  44.888  16.7990  0.00  0.00     0.000 C
ATOM     20  C4  NAG B   2      13.176  43.787  17.1140  0.00  0.00     0.000 C
ATOM     21  C5  NAG B   2      12.444  42.508  17.4970  0.00  0.00     0.000 C
ATOM     22  O5  NAG B   2      11.608  42.774  18.6370  0.00  0.00     0.000 O
ATOM     23   O  NAG B   2      13.999  43.587  15.9600  0.00  0.00     0.000 O
ATOM     25  HD  NAG B   2      14.377  43.929  16.6600  0.00  0.00     0.000 HD
ATOM     25   C  NAG B   2      13.394  41.355  17.8120  0.00  0.00     0.000 C
ATOM     26   O  NAG B   2      14.051  41.538  19.0750  0.00  0.00     0.000 O
ATOM     28  HD  NAG B   2      14.429  41.881  19.7750  0.00  0.00     0.000 HD
BRANCH 18 30
ATOM     28   N  NAG B   2       9.963  45.830  17.9750  0.00  0.00     0.000 N
ATOM     30  HD  NAG B   2      10.544  46.413  18.2440  0.00  0.00     0.000 HD
ATOM     30   C  NAG B   2       9.844  47.079  18.4420  0.00  0.00     0.000 C
ATOM     31   C  NAG B   2       8.478  47.705  18.4170  0.00  0.00     0.000 C
ATOM     32   O  NAG B   2      10.797  47.694  18.8770  0.00  0.00     0.000 OA
ENDBRANCH 18 30
BRANCH 17 33
ATOM     33  O4  GCU B   3       9.725  43.995  19.5060  0.00  0.00     0.000 O
BRANCH 33 37
ATOM     34  C1  GCU B   3       6.811  41.608  21.2790  0.00  0.00     0.000 C
ATOM     35  C2  GCU B   3       8.269  41.348  21.6580  0.00  0.00     0.000 C
ATOM     36  C3  GCU B   3       9.115  42.542  21.2720  0.00  0.00     0.000 C
ATOM     37  C4  GCU B   3       8.920  42.850  19.7940  0.00  0.00     0.000 C
ATOM     38  C5  GCU B   3       7.437  43.098  19.5110  0.00  0.00     0.000 C
ATOM     39  O5  GCU B   3       6.699  41.932  19.8900  0.00  0.00     0.000 O
ATOM     40   O  GCU B   3       8.348  41.121  23.0670  0.00  0.00     0.000 O
ATOM     42  HD  GCU B   3       8.779  41.366  23.7770  0.00  0.00     0.000 HD
ATOM     42   O  GCU B   3      10.506  42.303  21.5490  0.00  0.00     0.000 O
ATOM     44  HD  GCU B   3      10.938  42.548  22.2580  0.00  0.00     0.000 HD
BRANCH 38 44
ATOM     44   C  GCU B   3       7.163  43.386  18.0560  0.00  0.00     0.000 C
ATOM     45   O  GCU B   3       6.978  42.430  17.2870  0.00  0.00     0.000 OA
ATOM     46   O  GCU B   3       7.123  44.565  17.6560  0.00  0.00     0.000 OA
ENDBRANCH 38 44
BRANCH 34 47
ATOM     47  O3  NAG B   4       6.123  40.485  21.4300  0.00  0.00     0.000 O
BRANCH 47 50
ATOM     48  C1  NAG B   4       3.676  37.921  22.5230  0.00  0.00     0.000 C
ATOM     49  C2  NAG B   4       5.039  38.540  22.2330  0.00  0.00     0.000 C
ATOM     50  C3  NAG B   4       4.953  40.054  22.1240  0.00  0.00     0.000 C
ATOM     51  C4  NAG B   4       3.708  40.549  21.3810  0.00  0.00     0.000 C
ATOM     52  C5  NAG B   4       2.434  40.090  22.0720  0.00  0.00     0.000 C
ATOM     53  O5  NAG B   4       2.476  38.723  22.5360  0.00  0.00     0.000 O
BRANCH 49 56
ATOM     54   N  NAG B   4       6.006  38.109  23.2590  0.00  0.00     0.000 N
ATOM     56  HD  NAG B   4       6.679  37.580  23.1290  0.00  0.00     0.000 HD
ATOM     56   C  NAG B   4       7.041  37.866  25.4410  0.00  0.00     0.000 C
ATOM     57   O  NAG B   4       4.923  38.823  25.1260  0.00  0.00     0.000 OA
ATOM     58   C  NAG B   4       5.889  38.303  24.5880  0.00  0.00     0.000 C
ENDBRANCH 49 56
ATOM     59   O  NAG B   4      -0.017  40.237  21.8170  0.00  0.00     0.000 O
ATOM     61  HD  NAG B   4       0.720  39.806  21.6680  0.00  0.00     0.000 HD
ATOM     61   O  NAG B   4      -0.017  40.237  21.8170  0.00  0.00     0.000 O
ATOM     63  HD  NAG B   4       0.720  39.806  21.6680  0.00  0.00     0.000 HD
ENDBRANCH 47 50
ENDBRANCH 34 47
ENDBRANCH 33 37
ENDBRANCH 17 33
ENDBRANCH 16 19
ENDBRANCH 1 16
TORSDOF 10
ENDMDL
MODEL 77
REMARK VINA RESULT:      -5.5     19.855     23.002
ROOT
ATOM      1  C1  GCU B   1      22.717  19.785  30.8800  0.00  0.00     0.000 C
ATOM      2  C2  GCU B   1      24.057  20.014  30.1990  0.00  0.00     0.000 C
ATOM      3  C3  GCU B   1      23.923  19.850  28.6930  0.00  0.00     0.000 C
ATOM      4  C4  GCU B   1      23.248  18.527  28.3660  0.00  0.00     0.000 C
ATOM      5  C5  GCU B   1      21.942  18.368  29.1470  0.00  0.00     0.000 C
ATOM      6  O5  GCU B   1      22.218  18.479  30.5500  0.00  0.00     0.000 O
ATOM      7   O  GCU B   1      24.490  21.331  30.5260  0.00  0.00     0.000 O
ATOM      9  HD  GCU B   1      25.260  21.548  30.8580  0.00  0.00     0.000 HD
ATOM      9   O  GCU B   1      25.206  19.907  28.0640  0.00  0.00     0.000 O
ATOM     11  HD  GCU B   1      25.976  20.124  28.3950  0.00  0.00     0.000 HD
ATOM     11   O  GCU B   1      22.982  18.478  26.9640  0.00  0.00     0.000 O
ATOM     13  HD  GCU B   1      23.752  18.695  27.2960  0.00  0.00     0.000 HD
ENDROOT
BRANCH 5 13
ATOM     13   C  GCU B   1      21.288  17.054  28.7930  0.00  0.00     0.000 C
ATOM     14   O  GCU B   1      21.419  16.063  29.5400  0.00  0.00     0.000 OA
ATOM     15   O  GCU B   1      20.601  17.017  27.7550  0.00  0.00     0.000 OA
ENDBRANCH 5 13
BRANCH 1 16
ATOM     16  O3  NAG B   2      22.500  19.380  32.1330  0.00  0.00     0.000 O
BRANCH 16 19
ATOM     17  C1  NAG B   2      19.339  19.396  34.1900  0.00  0.00     0.000 C
ATOM     18  C2  NAG B   2      20.443  19.964  33.3080  0.00  0.00     0.000 C
ATOM     19  C3  NAG B   2      21.355  18.843  32.8130  0.00  0.00     0.000 C
ATOM     20  C4  NAG B   2      21.851  18.001  33.9890  0.00  0.00     0.000 C
ATOM     21  C5  NAG B   2      20.665  17.487  34.7910  0.00  0.00     0.000 C
ATOM     22  O5  NAG B   2      19.895  18.609  35.2560  0.00  0.00     0.000 O
ATOM     23   O  NAG B   2      22.635  16.921  33.4710  0.00  0.00     0.000 O
ATOM     25  HD  NAG B   2      23.052  17.531  33.9230  0.00  0.00     0.000 HD
ATOM     25   C  NAG B   2      21.085  16.621  35.9770  0.00  0.00     0.000 C
ATOM     26   O  NAG B   2      21.653  17.410  37.0340  0.00  0.00     0.000 O
ATOM     28  HD  NAG B   2      22.070  18.019  37.4860  0.00  0.00     0.000 HD
BRANCH 18 30
ATOM     28   N  NAG B   2      19.640  20.761  32.4000  0.00  0.00     0.000 N
ATOM     30  HD  NAG B   2      20.303  21.285  32.5910  0.00  0.00     0.000 HD
ATOM     30   C  NAG B   2      19.891  22.044  32.1140  0.00  0.00     0.000 C
ATOM     31   C  NAG B   2      18.940  22.750  31.1870  0.00  0.00     0.000 C
ATOM     32   O  NAG B   2      20.847  22.630  32.5810  0.00  0.00     0.000 OA
ENDBRANCH 18 30
BRANCH 17 33
ATOM     33  O4  GCU B   3      18.538  20.502  34.6530  0.00  0.00     0.000 O
BRANCH 33 37
ATOM     34  C1  GCU B   3      14.778  20.585  36.4380  0.00  0.00     0.000 C
ATOM     35  C2  GCU B   3      15.983  20.304  37.3350  0.00  0.00     0.000 C
ATOM     36  C3  GCU B   3      17.252  20.728  36.6270  0.00  0.00     0.000 C
ATOM     37  C4  GCU B   3      17.335  20.042  35.2710  0.00  0.00     0.000 C
ATOM     38  C5  GCU B   3      16.092  20.381  34.4460  0.00  0.00     0.000 C
ATOM     39  O5  GCU B   3      14.934  19.948  35.1670  0.00  0.00     0.000 O
ATOM     40   O  GCU B   3      15.832  21.032  38.5560  0.00  0.00     0.000 O
ATOM     42  HD  GCU B   3      16.252  21.570  39.0890  0.00  0.00     0.000 HD
ATOM     42   O  GCU B   3      18.415  20.412  37.4140  0.00  0.00     0.000 O
ATOM     44  HD  GCU B   3      18.835  20.949  37.9470  0.00  0.00     0.000 HD
BRANCH 38 44
ATOM     44   C  GCU B   3      16.092  19.713  33.0940  0.00  0.00     0.000 C
ATOM     45   O  GCU B   3      16.819  20.176  32.2020  0.00  0.00     0.000 OA
ATOM     46   O  GCU B   3      15.371  18.716  32.8980  0.00  0.00     0.000 OA
ENDBRANCH 38 44
BRANCH 34 47
ATOM     47  O3  NAG B   4      13.704  20.025  36.9770  0.00  0.00     0.000 O
BRANCH 47 50
ATOM     48  C1  NAG B   4      10.311  20.245  38.4580  0.00  0.00     0.000 C
ATOM     49  C2  NAG B   4      11.804  20.512  38.3020  0.00  0.00     0.000 C
ATOM     50  C3  NAG B   4      12.288  20.177  36.9010  0.00  0.00     0.000 C
ATOM     51  C4  NAG B   4      11.669  18.898  36.3240  0.00  0.00     0.000 C
ATOM     52  C5  NAG B   4      10.155  19.005  36.2470  0.00  0.00     0.000 C
ATOM     53  O5  NAG B   4       9.548  19.616  37.4070  0.00  0.00     0.000 O
BRANCH 49 56
ATOM     54   N  NAG B   4      11.635  21.974  38.2170  0.00  0.00     0.000 N
ATOM     56  HD  NAG B   4      11.037  22.387  37.7460  0.00  0.00     0.000 HD
ATOM     56   C  NAG B   4      12.074  24.333  38.5800  0.00  0.00     0.000 C
ATOM     57   O  NAG B   4      13.567  22.639  39.2120  0.00  0.00     0.000 OA
ATOM     58   C  NAG B   4      12.493  22.900  38.6900  0.00  0.00     0.000 C
ENDBRANCH 49 56
ATOM     59   O  NAG B   4       8.195  17.669  35.5630  0.00  0.00     0.000 O
ATOM     61  HD  NAG B   4       8.737  17.922  36.1890  0.00  0.00     0.000 HD
ATOM     61   O  NAG B   4       8.195  17.669  35.5630  0.00  0.00     0.000 O
ATOM     63  HD  NAG B   4       8.737  17.922  36.1890  0.00  0.00     0.000 HD
ENDBRANCH 47 50
ENDBRANCH 34 47
ENDBRANCH 33 37
ENDBRANCH 17 33
ENDBRANCH 16 19
ENDBRANCH 1 16
TORSDOF 10
ENDMDL
MODEL 78
REMARK VINA RESULT:      -5.5     13.244     18.628
ROOT
ATOM      1  C1  GCU B   1      15.434  32.564  23.8530  0.00  0.00     0.000 C
ATOM      2  C2  GCU B   1      14.199  32.957  24.6500  0.00  0.00     0.000 C
ATOM      3  C3  GCU B   1      14.220  32.299  26.0210  0.00  0.00     0.000 C
ATOM      4  C4  GCU B   1      14.452  30.802  25.8820  0.00  0.00     0.000 C
ATOM      5  C5  GCU B   1      15.679  30.515  25.0140  0.00  0.00     0.000 C
ATOM      6  O5  GCU B   1      15.504  31.134  23.7330  0.00  0.00     0.000 O
ATOM      7   O  GCU B   1      14.196  34.376  24.7710  0.00  0.00     0.000 O
ATOM      9  HD  GCU B   1      13.541  34.905  24.5690  0.00  0.00     0.000 HD
ATOM      9   O  GCU B   1      12.990  32.535  26.7110  0.00  0.00     0.000 O
ATOM     11  HD  GCU B   1      12.335  33.064  26.5090  0.00  0.00     0.000 HD
ATOM     11   O  GCU B   1      14.637  30.241  27.1820  0.00  0.00     0.000 O
ATOM     13  HD  GCU B   1      13.982  30.770  26.9800  0.00  0.00     0.000 HD
ENDROOT
BRANCH 5 13
ATOM     13   C  GCU B   1      15.893  29.024  24.9060  0.00  0.00     0.000 C
ATOM     14   O  GCU B   1      16.439  28.395  25.8360  0.00  0.00     0.000 OA
ATOM     15   O  GCU B   1      15.480  28.458  23.8750  0.00  0.00     0.000 OA
ENDBRANCH 5 13
BRANCH 1 16
ATOM     16  O3  NAG B   2      15.567  32.525  22.5250  0.00  0.00     0.000 O
BRANCH 16 19
ATOM     17  C1  NAG B   2      17.919  34.498  20.3340  0.00  0.00     0.000 C
ATOM     18  C2  NAG B   2      16.880  34.261  21.4220  0.00  0.00     0.000 C
ATOM     19  C3  NAG B   2      16.669  32.763  21.6360  0.00  0.00     0.000 C
ATOM     20  C4  NAG B   2      16.365  32.073  20.3070  0.00  0.00     0.000 C
ATOM     21  C5  NAG B   2      17.469  32.377  19.3040  0.00  0.00     0.000 C
ATOM     22  O5  NAG B   2      17.560  33.802  19.1300  0.00  0.00     0.000 O
ATOM     23   O  NAG B   2      16.253  30.666  20.5450  0.00  0.00     0.000 O
ATOM     25  HD  NAG B   2      15.530  31.087  20.3220  0.00  0.00     0.000 HD
ATOM     25   C  NAG B   2      17.239  31.704  17.9520  0.00  0.00     0.000 C
ATOM     26   O  NAG B   2      16.185  32.341  17.2150  0.00  0.00     0.000 O
ATOM     28  HD  NAG B   2      15.462  32.763  16.9920  0.00  0.00     0.000 HD
BRANCH 18 30
ATOM     28   N  NAG B   2      16.333  35.496  21.9530  0.00  0.00     0.000 N
ATOM     30  HD  NAG B   2      16.959  35.298  22.5180  0.00  0.00     0.000 HD
ATOM     30   C  NAG B   2      16.696  36.029  23.1260  0.00  0.00     0.000 C
ATOM     31   C  NAG B   2      16.005  37.291  23.5610  0.00  0.00     0.000 C
ATOM     32   O  NAG B   2      17.549  35.520  23.8250  0.00  0.00     0.000 OA
ENDBRANCH 18 30
BRANCH 17 33
ATOM     33  O4  GCU B   3      18.045  35.923  20.1550  0.00  0.00     0.000 O
BRANCH 33 37
ATOM     34  C1  GCU B   3      20.878  38.147  18.0660  0.00  0.00     0.000 C
ATOM     35  C2  GCU B   3      19.643  37.671  17.3000  0.00  0.00     0.000 C
ATOM     36  C3  GCU B   3      18.560  37.273  18.2800  0.00  0.00     0.000 C
ATOM     37  C4  GCU B   3      19.106  36.235  19.2510  0.00  0.00     0.000 C
ATOM     38  C5  GCU B   3      20.334  36.799  19.9700  0.00  0.00     0.000 C
ATOM     39  O5  GCU B   3      21.317  37.146  18.9900  0.00  0.00     0.000 O
ATOM     40   O  GCU B   3      19.183  38.731  16.4590  0.00  0.00     0.000 O
ATOM     42  HD  GCU B   3      18.470  39.174  16.2430  0.00  0.00     0.000 HD
ATOM     42   O  GCU B   3      17.408  36.751  17.5950  0.00  0.00     0.000 O
ATOM     44  HD  GCU B   3      16.695  37.193  17.3790  0.00  0.00     0.000 HD
BRANCH 38 44
ATOM     44   C  GCU B   3      20.947  35.814  20.9340  0.00  0.00     0.000 C
ATOM     45   O  GCU B   3      20.790  35.998  22.1510  0.00  0.00     0.000 OA
ATOM     46   O  GCU B   3      21.591  34.841  20.4970  0.00  0.00     0.000 OA
ENDBRANCH 38 44
BRANCH 34 47
ATOM     47  O3  NAG B   4      21.880  38.294  17.2120  0.00  0.00     0.000 O
BRANCH 47 50
ATOM     48  C1  NAG B   4      24.092  36.823  14.6230  0.00  0.00     0.000 C
ATOM     49  C2  NAG B   4      23.377  36.950  15.9640  0.00  0.00     0.000 C
ATOM     50  C3  NAG B   4      22.192  37.898  15.8770  0.00  0.00     0.000 C
ATOM     51  C4  NAG B   4      22.459  39.144  15.0250  0.00  0.00     0.000 C
ATOM     52  C5  NAG B   4      22.821  38.768  13.5970  0.00  0.00     0.000 C
ATOM     53  O5  NAG B   4      23.720  37.642  13.4940  0.00  0.00     0.000 O
BRANCH 49 56
ATOM     54   N  NAG B   4      22.594  35.703  15.9230  0.00  0.00     0.000 N
ATOM     56  HD  NAG B   4      21.913  35.551  15.4100  0.00  0.00     0.000 HD
ATOM     56   C  NAG B   4      21.854  33.468  16.5110  0.00  0.00     0.000 C
ATOM     57   O  NAG B   4      23.392  34.688  17.7930  0.00  0.00     0.000 OA
ATOM     58   C  NAG B   4      22.678  34.684  16.8010  0.00  0.00     0.000 C
ENDBRANCH 49 56
ATOM     59   O  NAG B   4      23.441  39.833  11.4590  0.00  0.00     0.000 O
ATOM     61  HD  NAG B   4      23.688  39.472  12.2060  0.00  0.00     0.000 HD
ATOM     61   O  NAG B   4      23.441  39.833  11.4590  0.00  0.00     0.000 O
ATOM     63  HD  NAG B   4      23.688  39.472  12.2060  0.00  0.00     0.000 HD
ENDBRANCH 47 50
ENDBRANCH 34 47
ENDBRANCH 33 37
ENDBRANCH 17 33
ENDBRANCH 16 19
ENDBRANCH 1 16
TORSDOF 10
ENDMDL
MODEL 79
REMARK VINA RESULT:      -5.5     22.494     25.460
ROOT
ATOM      1  C1  GCU B   1      12.705  24.028  37.3610  0.00  0.00     0.000 C
ATOM      2  C2  GCU B   1      12.661  25.052  38.4850  0.00  0.00     0.000 C
ATOM      3  C3  GCU B   1      12.434  26.447  37.9230  0.00  0.00     0.000 C
ATOM      4  C4  GCU B   1      13.439  26.739  36.8190  0.00  0.00     0.000 C
ATOM      5  C5  GCU B   1      13.448  25.622  35.7750  0.00  0.00     0.000 C
ATOM      6  O5  GCU B   1      13.736  24.375  36.4230  0.00  0.00     0.000 O
ATOM      7   O  GCU B   1      11.603  24.684  39.3640  0.00  0.00     0.000 O
ATOM      9  HD  GCU B   1      11.665  24.582  40.2220  0.00  0.00     0.000 HD
ATOM      9   O  GCU B   1      12.550  27.431  38.9550  0.00  0.00     0.000 O
ATOM     11  HD  GCU B   1      12.611  27.328  39.8130  0.00  0.00     0.000 HD
ATOM     11   O  GCU B   1      13.095  27.978  36.1980  0.00  0.00     0.000 O
ATOM     13  HD  GCU B   1      13.156  27.876  37.0560  0.00  0.00     0.000 HD
ENDROOT
BRANCH 5 13
ATOM     13   C  GCU B   1      14.443  25.945  34.6860  0.00  0.00     0.000 C
ATOM     14   O  GCU B   1      15.612  25.513  34.7510  0.00  0.00     0.000 OA
ATOM     15   O  GCU B   1      14.039  26.625  33.7230  0.00  0.00     0.000 OA
ENDBRANCH 5 13
BRANCH 1 16
ATOM     16  O3  NAG B   2      13.324  22.845  37.3630  0.00  0.00     0.000 O
BRANCH 16 19
ATOM     17  C1  NAG B   2      12.023  19.319  37.0370  0.00  0.00     0.000 C
ATOM     18  C2  NAG B   2      12.153  20.720  37.6220  0.00  0.00     0.000 C
ATOM     19  C3  NAG B   2      13.045  21.584  36.7340  0.00  0.00     0.000 C
ATOM     20  C4  NAG B   2      14.376  20.881  36.4700  0.00  0.00     0.000 C
ATOM     21  C5  NAG B   2      14.122  19.499  35.8850  0.00  0.00     0.000 C
ATOM     22  O5  NAG B   2      13.319  18.743  36.8090  0.00  0.00     0.000 O
ATOM     23   O  NAG B   2      15.145  21.690  35.5740  0.00  0.00     0.000 O
ATOM     25  HD  NAG B   2      15.436  21.615  36.3860  0.00  0.00     0.000 HD
ATOM     25   C  NAG B   2      15.412  18.740  35.5800  0.00  0.00     0.000 C
ATOM     26   O  NAG B   2      16.054  18.281  36.7800  0.00  0.00     0.000 O
ATOM     28  HD  NAG B   2      16.345  18.207  37.5920  0.00  0.00     0.000 HD
BRANCH 18 30
ATOM     28   N  NAG B   2      11.272  20.646  38.7730  0.00  0.00     0.000 N
ATOM     30  HD  NAG B   2      10.910  21.263  38.2850  0.00  0.00     0.000 HD
ATOM     30   C  NAG B   2      10.253  21.487  38.9860  0.00  0.00     0.000 C
ATOM     31   C  NAG B   2       9.457  21.310  40.2490  0.00  0.00     0.000 C
ATOM     32   O  NAG B   2       9.971  22.367  38.1970  0.00  0.00     0.000 OA
ENDBRANCH 18 30
BRANCH 17 33
ATOM     33  O4  GCU B   3      11.203  18.546  37.9360  0.00  0.00     0.000 O
BRANCH 33 37
ATOM     34  C1  GCU B   3       8.830  15.198  37.2330  0.00  0.00     0.000 C
ATOM     35  C2  GCU B   3      10.301  14.965  37.5790  0.00  0.00     0.000 C
ATOM     36  C3  GCU B   3      10.879  16.217  38.2050  0.00  0.00     0.000 C
ATOM     37  C4  GCU B   3      10.656  17.402  37.2770  0.00  0.00     0.000 C
ATOM     38  C5  GCU B   3       9.162  17.558  36.9900  0.00  0.00     0.000 C
ATOM     39  O5  GCU B   3       8.683  16.348  36.3940  0.00  0.00     0.000 O
ATOM     40   O  GCU B   3      10.394  13.868  38.4900  0.00  0.00     0.000 O
ATOM     42  HD  GCU B   3      10.747  13.634  39.2460  0.00  0.00     0.000 HD
ATOM     42   O  GCU B   3      12.283  16.058  38.4780  0.00  0.00     0.000 O
ATOM     44  HD  GCU B   3      12.636  15.824  39.2330  0.00  0.00     0.000 HD
BRANCH 38 44
ATOM     44   C  GCU B   3       8.865  18.702  36.0530  0.00  0.00     0.000 C
ATOM     45   O  GCU B   3       8.947  18.505  34.8310  0.00  0.00     0.000 OA
ATOM     46   O  GCU B   3       8.542  19.812  36.5160  0.00  0.00     0.000 OA
ENDBRANCH 38 44
BRANCH 34 47
ATOM     47  O3  NAG B   4       8.396  14.179  36.5050  0.00  0.00     0.000 O
BRANCH 47 50
ATOM     48  C1  NAG B   4       7.541  11.916  33.6930  0.00  0.00     0.000 C
ATOM     49  C2  NAG B   4       7.411  12.587  35.0570  0.00  0.00     0.000 C
ATOM     50  C3  NAG B   4       8.211  13.877  35.1230  0.00  0.00     0.000 C
ATOM     51  C4  NAG B   4       9.577  13.793  34.4320  0.00  0.00     0.000 C
ATOM     52  C5  NAG B   4       9.430  13.448  32.9600  0.00  0.00     0.000 C
ATOM     53  O5  NAG B   4       8.443  12.427  32.6890  0.00  0.00     0.000 O
BRANCH 49 56
ATOM     54   N  NAG B   4       6.047  13.073  34.7850  0.00  0.00     0.000 N
ATOM     56  HD  NAG B   4       5.770  13.410  34.0360  0.00  0.00     0.000 HD
ATOM     56   C  NAG B   4       3.728  13.669  35.1860  0.00  0.00     0.000 C
ATOM     57   O  NAG B   4       5.219  13.091  36.9010  0.00  0.00     0.000 OA
ATOM     58   C  NAG B   4       5.074  13.257  35.6990  0.00  0.00     0.000 C
ENDBRANCH 49 56
ATOM     59   O  NAG B   4      10.822  13.043  30.9620  0.00  0.00     0.000 O
ATOM     61  HD  NAG B   4      10.403  12.725  31.6500  0.00  0.00     0.000 HD
ATOM     61   O  NAG B   4      10.822  13.043  30.9620  0.00  0.00     0.000 O
ATOM     63  HD  NAG B   4      10.403  12.725  31.6500  0.00  0.00     0.000 HD
ENDBRANCH 47 50
ENDBRANCH 34 47
ENDBRANCH 33 37
ENDBRANCH 17 33
ENDBRANCH 16 19
ENDBRANCH 1 16
TORSDOF 10
ENDMDL
MODEL 80
REMARK VINA RESULT:      -5.4     16.429     22.793
ROOT
ATOM      1  C1  GCU B   1      12.744  11.893  24.8380  0.00  0.00     0.000 C
ATOM      2  C2  GCU B   1      13.702  12.035  23.6660  0.00  0.00     0.000 C
ATOM      3  C3  GCU B   1      12.950  12.458  22.4130  0.00  0.00     0.000 C
ATOM      4  C4  GCU B   1      11.765  11.535  22.1740  0.00  0.00     0.000 C
ATOM      5  C5  GCU B   1      10.901  11.412  23.4300  0.00  0.00     0.000 C
ATOM      6  O5  GCU B   1      11.713  10.945  24.5160  0.00  0.00     0.000 O
ATOM      7   O  GCU B   1      14.679  13.009  24.0210  0.00  0.00     0.000 O
ATOM      9  HD  GCU B   1      15.538  12.908  23.9800  0.00  0.00     0.000 HD
ATOM      9   O  GCU B   1      13.815  12.439  21.2750  0.00  0.00     0.000 O
ATOM     11  HD  GCU B   1      14.675  12.339  21.2350  0.00  0.00     0.000 HD
ATOM     11   O  GCU B   1      10.984  12.055  21.0980  0.00  0.00     0.000 O
ATOM     13  HD  GCU B   1      11.843  11.955  21.0580  0.00  0.00     0.000 HD
ENDROOT
BRANCH 5 13
ATOM     13   C  GCU B   1       9.727  10.502  23.1590  0.00  0.00     0.000 C
ATOM     14   O  GCU B   1       9.702   9.347  23.6330  0.00  0.00     0.000 OA
ATOM     15   O  GCU B   1       8.790  10.961  22.4780  0.00  0.00     0.000 OA
ENDBRANCH 5 13
BRANCH 1 16
ATOM     16  O3  NAG B   2      12.892  11.126  25.9210  0.00  0.00     0.000 O
BRANCH 16 19
ATOM     17  C1  NAG B   2      11.129  11.245  29.2530  0.00  0.00     0.000 C
ATOM     18  C2  NAG B   2      11.921  11.773  28.0640  0.00  0.00     0.000 C
ATOM     19  C3  NAG B   2      11.999  10.713  26.9670  0.00  0.00     0.000 C
ATOM     20  C4  NAG B   2      12.516   9.393  27.5390  0.00  0.00     0.000 C
ATOM     21  C5  NAG B   2      11.648   8.964  28.7130  0.00  0.00     0.000 C
ATOM     22  O5  NAG B   2      11.674   9.998  29.7130  0.00  0.00     0.000 O
ATOM     23   O  NAG B   2      12.499   8.412  26.4960  0.00  0.00     0.000 O
ATOM     25  HD  NAG B   2      13.275   8.669  26.7830  0.00  0.00     0.000 HD
ATOM     25   C  NAG B   2      12.098   7.640  29.3270  0.00  0.00     0.000 C
ATOM     26   O  NAG B   2      13.311   7.790  30.0810  0.00  0.00     0.000 O
ATOM     28  HD  NAG B   2      14.086   8.047  30.3690  0.00  0.00     0.000 HD
BRANCH 18 30
ATOM     28   N  NAG B   2      11.314  13.084  28.1990  0.00  0.00     0.000 N
ATOM     30  HD  NAG B   2      12.010  13.238  27.7080  0.00  0.00     0.000 HD
ATOM     30   C  NAG B   2      11.870  14.214  27.7470  0.00  0.00     0.000 C
ATOM     31   C  NAG B   2      11.139  15.502  28.0030  0.00  0.00     0.000 C
ATOM     32   O  NAG B   2      12.930  14.213  27.1520  0.00  0.00     0.000 OA
ENDBRANCH 18 30
BRANCH 17 33
ATOM     33  O4  GCU B   3      11.122  12.274  30.2630  0.00  0.00     0.000 O
BRANCH 33 37
ATOM     34  C1  GCU B   3       8.561  12.869  33.4920  0.00  0.00     0.000 C
ATOM     35  C2  GCU B   3       9.806  12.012  33.7220  0.00  0.00     0.000 C
ATOM     36  C3  GCU B   3      10.802  12.256  32.6080  0.00  0.00     0.000 C
ATOM     37  C4  GCU B   3      10.137  12.006  31.2630  0.00  0.00     0.000 C
ATOM     38  C5  GCU B   3       8.907  12.906  31.1220  0.00  0.00     0.000 C
ATOM     39  O5  GCU B   3       8.007  12.619  32.1970  0.00  0.00     0.000 O
ATOM     40   O  GCU B   3      10.380  12.359  34.9840  0.00  0.00     0.000 O
ATOM     42  HD  GCU B   3      11.131  12.575  35.3580  0.00  0.00     0.000 HD
ATOM     42   O  GCU B   3      11.958  11.410  32.7540  0.00  0.00     0.000 O
ATOM     44  HD  GCU B   3      12.708  11.627  33.1280  0.00  0.00     0.000 HD
BRANCH 38 44
ATOM     44   C  GCU B   3       8.178  12.695  29.8180  0.00  0.00     0.000 C
ATOM     45   O  GCU B   3       7.370  11.758  29.7350  0.00  0.00     0.000 OA
ATOM     46   O  GCU B   3       8.396  13.459  28.8580  0.00  0.00     0.000 OA
ENDBRANCH 38 44
BRANCH 34 47
ATOM     47  O3  NAG B   4       7.621  12.497  34.3490  0.00  0.00     0.000 O
BRANCH 47 50
ATOM     48  C1  NAG B   4       5.670  13.643  37.2880  0.00  0.00     0.000 C
ATOM     49  C2  NAG B   4       6.885  13.454  36.3850  0.00  0.00     0.000 C
ATOM     50  C3  NAG B   4       6.475  13.076  34.9710  0.00  0.00     0.000 C
ATOM     51  C4  NAG B   4       5.307  12.085  34.9100  0.00  0.00     0.000 C
ATOM     52  C5  NAG B   4       4.069  12.651  35.5850  0.00  0.00     0.000 C
ATOM     53  O5  NAG B   4       4.337  13.343  36.8240  0.00  0.00     0.000 O
BRANCH 49 56
ATOM     54   N  NAG B   4       7.140  14.892  36.1960  0.00  0.00     0.000 N
ATOM     56  HD  NAG B   4       6.562  15.477  35.9230  0.00  0.00     0.000 HD
ATOM     56   C  NAG B   4       8.363  16.987  36.1040  0.00  0.00     0.000 C
ATOM     57   O  NAG B   4       9.407  14.902  36.3600  0.00  0.00     0.000 OA
ATOM     58   C  NAG B   4       8.346  15.494  36.2250  0.00  0.00     0.000 C
ENDBRANCH 49 56
ATOM     59   O  NAG B   4       1.739  12.019  36.1020  0.00  0.00     0.000 O
ATOM     61  HD  NAG B   4       2.569  12.055  36.3470  0.00  0.00     0.000 HD
ATOM     61   O  NAG B   4       1.739  12.019  36.1020  0.00  0.00     0.000 O
ATOM     63  HD  NAG B   4       2.569  12.055  36.3470  0.00  0.00     0.000 HD
ENDBRANCH 47 50
ENDBRANCH 34 47
ENDBRANCH 33 37
ENDBRANCH 17 33
ENDBRANCH 16 19
ENDBRANCH 1 16
TORSDOF 10
ENDMDL
MODEL 81
REMARK VINA RESULT:      -5.4     21.202     26.444
ROOT
ATOM      1  C1  GCU B   1      14.886  15.682  37.8270  0.00  0.00     0.000 C
ATOM      2  C2  GCU B   1      15.784  15.058  38.8840  0.00  0.00     0.000 C
ATOM      3  C3  GCU B   1      16.196  13.654  38.4690  0.00  0.00     0.000 C
ATOM      4  C4  GCU B   1      14.970  12.835  38.0940  0.00  0.00     0.000 C
ATOM      5  C5  GCU B   1      14.105  13.577  37.0740  0.00  0.00     0.000 C
ATOM      6  O5  GCU B   1      13.733  14.853  37.6130  0.00  0.00     0.000 O
ATOM      7   O  GCU B   1      16.925  15.896  39.0320  0.00  0.00     0.000 O
ATOM      9  HD  GCU B   1      17.229  16.220  39.7760  0.00  0.00     0.000 HD
ATOM      9   O  GCU B   1      16.907  13.005  39.5270  0.00  0.00     0.000 O
ATOM     11  HD  GCU B   1      17.210  13.328  40.2700  0.00  0.00     0.000 HD
ATOM     11   O  GCU B   1      15.398  11.587  37.5490  0.00  0.00     0.000 O
ATOM     13  HD  GCU B   1      15.701  11.911  38.2920  0.00  0.00     0.000 HD
ENDROOT
BRANCH 5 13
ATOM     13   C  GCU B   1      12.904  12.736  36.7110  0.00  0.00     0.000 C
ATOM     14   O  GCU B   1      13.010  11.812  35.8790  0.00  0.00     0.000 OA
ATOM     15   O  GCU B   1      11.831  12.987  37.2920  0.00  0.00     0.000 OA
ENDBRANCH 5 13
BRANCH 1 16
ATOM     16  O3  NAG B   2      13.971  16.639  37.9990  0.00  0.00     0.000 O
BRANCH 16 19
ATOM     17  C1  NAG B   2      13.635  20.213  36.8400  0.00  0.00     0.000 C
ATOM     18  C2  NAG B   2      14.249  19.025  37.5690  0.00  0.00     0.000 C
ATOM     19  C3  NAG B   2      13.524  17.736  37.1870  0.00  0.00     0.000 C
ATOM     20  C4  NAG B   2      12.017  17.893  37.3870  0.00  0.00     0.000 C
ATOM     21  C5  NAG B   2      11.518  19.103  36.6120  0.00  0.00     0.000 C
ATOM     22  O5  NAG B   2      12.218  20.273  37.0720  0.00  0.00     0.000 O
ATOM     23   O  NAG B   2      11.376  16.692  36.9440  0.00  0.00     0.000 O
ATOM     25  HD  NAG B   2      11.356  16.860  37.7930  0.00  0.00     0.000 HD
ATOM     25   C  NAG B   2      10.012  19.314  36.7530  0.00  0.00     0.000 C
ATOM     26   O  NAG B   2       9.665  19.814  38.0540  0.00  0.00     0.000 O
ATOM     28  HD  NAG B   2       9.646  19.981  38.9030  0.00  0.00     0.000 HD
BRANCH 18 30
ATOM     28   N  NAG B   2      15.351  19.635  38.2890  0.00  0.00     0.000 N
ATOM     30  HD  NAG B   2      15.748  19.086  37.7500  0.00  0.00     0.000 HD
ATOM     30   C  NAG B   2      16.627  19.252  38.1640  0.00  0.00     0.000 C
ATOM     31   C  NAG B   2      17.651  19.952  39.0120  0.00  0.00     0.000 C
ATOM     32   O  NAG B   2      16.959  18.370  37.3980  0.00  0.00     0.000 OA
ENDBRANCH 18 30
BRANCH 17 33
ATOM     33  O4  GCU B   3      14.336  21.397  37.2680  0.00  0.00     0.000 O
BRANCH 33 37
ATOM     34  C1  GCU B   3      14.688  25.152  35.5040  0.00  0.00     0.000 C
ATOM     35  C2  GCU B   3      13.393  24.839  36.2540  0.00  0.00     0.000 C
ATOM     36  C3  GCU B   3      13.609  23.647  37.1630  0.00  0.00     0.000 C
ATOM     37  C4  GCU B   3      14.135  22.473  36.3500  0.00  0.00     0.000 C
ATOM     38  C5  GCU B   3      15.429  22.877  35.6390  0.00  0.00     0.000 C
ATOM     39  O5  GCU B   3      15.153  23.999  34.7950  0.00  0.00     0.000 O
ATOM     40   O  GCU B   3      13.015  25.984  37.0220  0.00  0.00     0.000 O
ATOM     42  HD  GCU B   3      12.773  26.225  37.8180  0.00  0.00     0.000 HD
ATOM     42   O  GCU B   3      12.389  23.279  37.8320  0.00  0.00     0.000 O
ATOM     44  HD  GCU B   3      12.148  23.520  38.6280  0.00  0.00     0.000 HD
BRANCH 38 44
ATOM     44   C  GCU B   3      15.997  21.768  34.7910  0.00  0.00     0.000 C
ATOM     45   O  GCU B   3      15.369  21.410  33.7830  0.00  0.00     0.000 OA
ATOM     46   O  GCU B   3      17.079  21.238  35.1100  0.00  0.00     0.000 OA
ENDBRANCH 38 44
BRANCH 34 47
ATOM     47  O3  NAG B   4      14.432  26.055  34.5680  0.00  0.00     0.000 O
BRANCH 47 50
ATOM     48  C1  NAG B   4      16.086  27.644  31.6530  0.00  0.00     0.000 C
ATOM     49  C2  NAG B   4      15.962  27.008  33.0340  0.00  0.00     0.000 C
ATOM     50  C3  NAG B   4      14.670  26.220  33.1710  0.00  0.00     0.000 C
ATOM     51  C4  NAG B   4      13.459  26.902  32.5260  0.00  0.00     0.000 C
ATOM     52  C5  NAG B   4      13.678  27.121  31.0380  0.00  0.00     0.000 C
ATOM     53  O5  NAG B   4      15.005  27.581  30.6990  0.00  0.00     0.000 O
BRANCH 49 56
ATOM     54   N  NAG B   4      16.895  25.899  32.7660  0.00  0.00     0.000 N
ATOM     56  HD  NAG B   4      16.833  25.334  32.1130  0.00  0.00     0.000 HD
ATOM     56   C  NAG B   4      18.762  24.380  33.0750  0.00  0.00     0.000 C
ATOM     57   O  NAG B   4      18.067  25.907  34.7130  0.00  0.00     0.000 OA
ATOM     58   C  NAG B   4      17.866  25.463  33.5920  0.00  0.00     0.000 C
ENDBRANCH 49 56
ATOM     59   O  NAG B   4      12.528  28.081  29.0760  0.00  0.00     0.000 O
ATOM     61  HD  NAG B   4      13.076  28.186  29.7380  0.00  0.00     0.000 HD
ATOM     61   O  NAG B   4      12.528  28.081  29.0760  0.00  0.00     0.000 O
ATOM     63  HD  NAG B   4      13.076  28.186  29.7380  0.00  0.00     0.000 HD
ENDBRANCH 47 50
ENDBRANCH 34 47
ENDBRANCH 33 37
ENDBRANCH 17 33
ENDBRANCH 16 19
ENDBRANCH 1 16
TORSDOF 10
ENDMDL
MODEL 82
REMARK VINA RESULT:      -5.4     15.815     21.270
ROOT
ATOM      1  C1  GCU B   1      10.525  11.020  22.1250  0.00  0.00     0.000 C
ATOM      2  C2  GCU B   1       9.504  11.569  21.1410  0.00  0.00     0.000 C
ATOM      3  C3  GCU B   1       9.420  10.680  19.9100  0.00  0.00     0.000 C
ATOM      4  C4  GCU B   1      10.809  10.442  19.3370  0.00  0.00     0.000 C
ATOM      5  C5  GCU B   1      11.772   9.950  20.4190  0.00  0.00     0.000 C
ATOM      6  O5  GCU B   1      11.807  10.906  21.4870  0.00  0.00     0.000 O
ATOM      7   O  GCU B   1       8.247  11.627  21.8080  0.00  0.00     0.000 O
ATOM      9  HD  GCU B   1       7.729  12.319  21.8620  0.00  0.00     0.000 HD
ATOM      9   O  GCU B   1       8.582  11.275  18.9150  0.00  0.00     0.000 O
ATOM     11  HD  GCU B   1       8.064  11.966  18.9690  0.00  0.00     0.000 HD
ATOM     11   O  GCU B   1      10.718   9.472  18.2930  0.00  0.00     0.000 O
ATOM     13  HD  GCU B   1      10.200  10.164  18.3480  0.00  0.00     0.000 HD
ENDROOT
BRANCH 5 13
ATOM     13   C  GCU B   1      13.137   9.709  19.8200  0.00  0.00     0.000 C
ATOM     14   O  GCU B   1      14.019  10.591  19.8840  0.00  0.00     0.000 OA
ATOM     15   O  GCU B   1      13.345   8.599  19.2940  0.00  0.00     0.000 OA
ENDBRANCH 5 13
BRANCH 1 16
ATOM     16  O3  NAG B   2      11.217  11.698  23.0430  0.00  0.00     0.000 O
BRANCH 16 19
ATOM     17  C1  NAG B   2      11.309  11.370  26.8000  0.00  0.00     0.000 C
ATOM     18  C2  NAG B   2      10.687  11.549  25.4200  0.00  0.00     0.000 C
ATOM     19  C3  NAG B   2      11.744  11.355  24.3340  0.00  0.00     0.000 C
ATOM     20  C4  NAG B   2      12.955  12.246  24.6050  0.00  0.00     0.000 C
ATOM     21  C5  NAG B   2      13.491  11.978  26.0040  0.00  0.00     0.000 C
ATOM     22  O5  NAG B   2      12.446  12.233  26.9590  0.00  0.00     0.000 O
ATOM     23   O  NAG B   2      13.947  11.974  23.6090  0.00  0.00     0.000 O
ATOM     25  HD  NAG B   2      13.567  12.751  23.5850  0.00  0.00     0.000 HD
ATOM     25   C  NAG B   2      14.717  12.825  26.3400  0.00  0.00     0.000 C
ATOM     26   O  NAG B   2      14.366  14.197  26.5720  0.00  0.00     0.000 O
ATOM     28  HD  NAG B   2      13.985  14.975  26.5480  0.00  0.00     0.000 HD
BRANCH 18 30
ATOM     28   N  NAG B   2       9.517  10.745  25.7180  0.00  0.00     0.000 N
ATOM     30  HD  NAG B   2       9.222  11.316  25.1380  0.00  0.00     0.000 HD
ATOM     30   C  NAG B   2       8.291  11.012  25.2520  0.00  0.00     0.000 C
ATOM     31   C  NAG B   2       7.169  10.110  25.6850  0.00  0.00     0.000 C
ATOM     32   O  NAG B   2       8.078  11.948  24.5070  0.00  0.00     0.000 OA
ENDBRANCH 18 30
BRANCH 17 33
ATOM     33  O4  GCU B   3      10.274  11.601  27.7770  0.00  0.00     0.000 O
BRANCH 33 37
ATOM     34  C1  GCU B   3      10.275  11.056  31.9050  0.00  0.00     0.000 C
ATOM     35  C2  GCU B   3      10.773  12.397  31.3650  0.00  0.00     0.000 C
ATOM     36  C3  GCU B   3      10.310  12.573  29.9350  0.00  0.00     0.000 C
ATOM     37  C4  GCU B   3      10.761  11.381  29.1020  0.00  0.00     0.000 C
ATOM     38  C5  GCU B   3      10.215  10.089  29.7140  0.00  0.00     0.000 C
ATOM     39  O5  GCU B   3      10.695   9.983  31.0580  0.00  0.00     0.000 O
ATOM     40   O  GCU B   3      10.255  13.448  32.1850  0.00  0.00     0.000 O
ATOM     42  HD  GCU B   3       9.841  14.207  32.1440  0.00  0.00     0.000 HD
ATOM     42   O  GCU B   3      10.822  13.793  29.3700  0.00  0.00     0.000 O
ATOM     44  HD  GCU B   3      10.409  14.553  29.3290  0.00  0.00     0.000 HD
BRANCH 38 44
ATOM     44   C  GCU B   3      10.643   8.859  28.9540  0.00  0.00     0.000 C
ATOM     45   O  GCU B   3      11.822   8.483  29.0480  0.00  0.00     0.000 OA
ATOM     46   O  GCU B   3       9.815   8.245  28.2540  0.00  0.00     0.000 OA
ENDBRANCH 38 44
BRANCH 34 47
ATOM     47  O3  NAG B   4      10.854  10.824  33.0740  0.00  0.00     0.000 O
BRANCH 47 50
ATOM     48  C1  NAG B   4      13.992  10.665  35.0450  0.00  0.00     0.000 C
ATOM     49  C2  NAG B   4      13.036  10.398  33.8870  0.00  0.00     0.000 C
ATOM     50  C3  NAG B   4      11.892  11.398  33.8660  0.00  0.00     0.000 C
ATOM     51  C4  NAG B   4      11.343  11.737  35.2570  0.00  0.00     0.000 C
ATOM     52  C5  NAG B   4      12.423  12.330  36.1460  0.00  0.00     0.000 C
ATOM     53  O5  NAG B   4      13.703  11.669  36.0400  0.00  0.00     0.000 O
BRANCH 49 56
ATOM     54   N  NAG B   4      13.832  11.016  32.8120  0.00  0.00     0.000 N
ATOM     56  HD  NAG B   4      13.998  11.862  32.7280  0.00  0.00     0.000 HD
ATOM     56   C  NAG B   4      15.139  11.199  30.7750  0.00  0.00     0.000 C
ATOM     57   O  NAG B   4      13.990   9.250  31.3900  0.00  0.00     0.000 OA
ATOM     58   C  NAG B   4      14.259  10.403  31.6900  0.00  0.00     0.000 C
ENDBRANCH 49 56
ATOM     59   O  NAG B   4      12.726  13.185  38.4420  0.00  0.00     0.000 O
ATOM     61  HD  NAG B   4      12.768  12.522  37.8870  0.00  0.00     0.000 HD
ATOM     61   O  NAG B   4      12.726  13.185  38.4420  0.00  0.00     0.000 O
ATOM     63  HD  NAG B   4      12.768  12.522  37.8870  0.00  0.00     0.000 HD
ENDBRANCH 47 50
ENDBRANCH 34 47
ENDBRANCH 33 37
ENDBRANCH 17 33
ENDBRANCH 16 19
ENDBRANCH 1 16
TORSDOF 10
ENDMDL
MODEL 83
REMARK VINA RESULT:      -5.4     19.688     22.551
ROOT
ATOM      1  C1  GCU B   1      18.841  23.448  31.0700  0.00  0.00     0.000 C
ATOM      2  C2  GCU B   1      19.032  24.932  31.3400  0.00  0.00     0.000 C
ATOM      3  C3  GCU B   1      18.734  25.743  30.0890  0.00  0.00     0.000 C
ATOM      4  C4  GCU B   1      19.518  25.193  28.9070  0.00  0.00     0.000 C
ATOM      5  C5  GCU B   1      19.307  23.685  28.7600  0.00  0.00     0.000 C
ATOM      6  O5  GCU B   1      19.684  23.037  29.9820  0.00  0.00     0.000 O
ATOM      7   O  GCU B   1      18.151  25.296  32.3980  0.00  0.00     0.000 O
ATOM      9  HD  GCU B   1      18.370  25.712  33.1250  0.00  0.00     0.000 HD
ATOM      9   O  GCU B   1      19.063  27.120  30.2900  0.00  0.00     0.000 O
ATOM     11  HD  GCU B   1      19.283  27.536  31.0170  0.00  0.00     0.000 HD
ATOM     11   O  GCU B   1      19.091  25.860  27.7190  0.00  0.00     0.000 O
ATOM     13  HD  GCU B   1      19.310  26.276  28.4460  0.00  0.00     0.000 HD
ENDROOT
BRANCH 5 13
ATOM     13   C  GCU B   1      20.085  23.170  27.5730  0.00  0.00     0.000 C
ATOM     14   O  GCU B   1      20.542  23.965  26.7250  0.00  0.00     0.000 OA
ATOM     15   O  GCU B   1      20.270  21.940  27.4980  0.00  0.00     0.000 OA
ENDBRANCH 5 13
BRANCH 1 16
ATOM     16  O3  NAG B   2      19.423  22.425  31.7010  0.00  0.00     0.000 O
BRANCH 16 19
ATOM     17  C1  NAG B   2      18.310  19.737  34.1010  0.00  0.00     0.000 C
ATOM     18  C2  NAG B   2      18.616  21.148  33.6170  0.00  0.00     0.000 C
ATOM     19  C3  NAG B   2      18.957  21.135  32.1290  0.00  0.00     0.000 C
ATOM     20  C4  NAG B   2      20.058  20.114  31.8440  0.00  0.00     0.000 C
ATOM     21  C5  NAG B   2      19.641  18.747  32.3660  0.00  0.00     0.000 C
ATOM     22  O5  NAG B   2      19.389  18.845  33.7790  0.00  0.00     0.000 O
ATOM     23   O  NAG B   2      20.289  20.082  30.4310  0.00  0.00     0.000 O
ATOM     25  HD  NAG B   2      20.922  20.404  30.9270  0.00  0.00     0.000 HD
ATOM     25   C  NAG B   2      20.690  17.669  32.1010  0.00  0.00     0.000 C
ATOM     26   O  NAG B   2      21.831  17.817  32.9600  0.00  0.00     0.000 O
ATOM     28  HD  NAG B   2      22.463  18.139  33.4560  0.00  0.00     0.000 HD
BRANCH 18 30
ATOM     28   N  NAG B   2      18.391  21.962  34.7970  0.00  0.00     0.000 N
ATOM     30  HD  NAG B   2      17.777  22.234  34.2500  0.00  0.00     0.000 HD
ATOM     30   C  NAG B   2      17.506  22.965  34.8540  0.00  0.00     0.000 C
ATOM     31   C  NAG B   2      17.420  23.745  36.1360  0.00  0.00     0.000 C
ATOM     32   O  NAG B   2      16.795  23.246  33.9110  0.00  0.00     0.000 OA
ENDBRANCH 18 30
BRANCH 17 33
ATOM     33  O4  GCU B   3      18.032  19.811  35.5140  0.00  0.00     0.000 O
BRANCH 33 37
ATOM     34  C1  GCU B   3      15.355  17.667  37.8730  0.00  0.00     0.000 C
ATOM     35  C2  GCU B   3      16.731  17.050  37.6230  0.00  0.00     0.000 C
ATOM     36  C3  GCU B   3      17.684  18.120  37.1330  0.00  0.00     0.000 C
ATOM     37  C4  GCU B   3      17.097  18.805  35.9070  0.00  0.00     0.000 C
ATOM     38  C5  GCU B   3      15.726  19.391  36.2530  0.00  0.00     0.000 C
ATOM     39  O5  GCU B   3      14.876  18.330  36.6990  0.00  0.00     0.000 O
ATOM     40   O  GCU B   3      17.212  16.481  38.8420  0.00  0.00     0.000 O
ATOM     42  HD  GCU B   3      17.905  16.461  39.3620  0.00  0.00     0.000 HD
ATOM     42   O  GCU B   3      18.972  17.561  36.8180  0.00  0.00     0.000 O
ATOM     44  HD  GCU B   3      19.664  17.541  37.3380  0.00  0.00     0.000 HD
BRANCH 38 44
ATOM     44   C  GCU B   3      15.069  20.067  35.0760  0.00  0.00     0.000 C
ATOM     45   O  GCU B   3      14.585  21.198  35.2350  0.00  0.00     0.000 OA
ATOM     46   O  GCU B   3      15.026  19.486  33.9740  0.00  0.00     0.000 OA
ENDBRANCH 38 44
BRANCH 34 47
ATOM     47  O3  NAG B   4      14.485  16.692  38.1000  0.00  0.00     0.000 O
BRANCH 47 50
ATOM     48  C1  NAG B   4      10.935  16.438  39.1420  0.00  0.00     0.000 C
ATOM     49  C2  NAG B   4      12.337  17.029  39.0350  0.00  0.00     0.000 C
ATOM     50  C3  NAG B   4      13.102  16.440  37.8610  0.00  0.00     0.000 C
ATOM     51  C4  NAG B   4      12.883  14.934  37.6740  0.00  0.00     0.000 C
ATOM     52  C5  NAG B   4      11.416  14.615  37.4410  0.00  0.00     0.000 C
ATOM     53  O5  NAG B   4      10.510  15.355  38.2880  0.00  0.00     0.000 O
BRANCH 49 56
ATOM     54   N  NAG B   4      12.150  18.490  38.9970  0.00  0.00     0.000 N
ATOM     56  HD  NAG B   4      12.168  19.020  39.6820  0.00  0.00     0.000 HD
ATOM     56   C  NAG B   4      11.703  20.698  38.0930  0.00  0.00     0.000 C
ATOM     57   O  NAG B   4      11.389  18.723  36.8680  0.00  0.00     0.000 OA
ATOM     58   C  NAG B   4      11.728  19.208  37.9370  0.00  0.00     0.000 C
ENDBRANCH 49 56
ATOM     59   O  NAG B   4       9.938  12.674  37.0600  0.00  0.00     0.000 O
ATOM     61  HD  NAG B   4      10.302  13.231  37.6150  0.00  0.00     0.000 HD
ATOM     61   O  NAG B   4       9.938  12.674  37.0600  0.00  0.00     0.000 O
ATOM     63  HD  NAG B   4      10.302  13.231  37.6150  0.00  0.00     0.000 HD
ENDBRANCH 47 50
ENDBRANCH 34 47
ENDBRANCH 33 37
ENDBRANCH 17 33
ENDBRANCH 16 19
ENDBRANCH 1 16
TORSDOF 10
ENDMDL
MODEL 84
REMARK VINA RESULT:      -5.4     30.223     32.959
ROOT
ATOM      1  C1  GCU B   1      10.863  54.303   8.2750  0.00  0.00     0.000 C
ATOM      2  C2  GCU B   1      10.975  55.108   6.9890  0.00  0.00     0.000 C
ATOM      3  C3  GCU B   1      12.088  54.556   6.1120  0.00  0.00     0.000 C
ATOM      4  C4  GCU B   1      13.375  54.430   6.9120  0.00  0.00     0.000 C
ATOM      5  C5  GCU B   1      13.141  53.658   8.2120  0.00  0.00     0.000 C
ATOM      6  O5  GCU B   1      12.119  54.317   8.9720  0.00  0.00     0.000 O
ATOM      7   O  GCU B   1       9.721  55.032   6.3200  0.00  0.00     0.000 O
ATOM      9  HD  GCU B   1       9.253  55.702   6.0330  0.00  0.00     0.000 HD
ATOM      9   O  GCU B   1      12.304  55.402   4.9800  0.00  0.00     0.000 O
ATOM     11  HD  GCU B   1      11.837  56.073   4.6930  0.00  0.00     0.000 HD
ATOM     11   O  GCU B   1      14.349  53.753   6.1170  0.00  0.00     0.000 O
ATOM     13  HD  GCU B   1      13.882  54.424   5.8300  0.00  0.00     0.000 HD
ENDROOT
BRANCH 5 13
ATOM     13   C  GCU B   1      14.437  53.537   8.9780  0.00  0.00     0.000 C
ATOM     14   O  GCU B   1      15.341  52.778   8.5730  0.00  0.00     0.000 OA
ATOM     15   O  GCU B   1      14.567  54.239   9.9990  0.00  0.00     0.000 OA
ENDBRANCH 5 13
BRANCH 1 16
ATOM     16  O3  NAG B   2      10.384  54.712   9.4520  0.00  0.00     0.000 O
BRANCH 16 19
ATOM     17  C1  NAG B   2       7.826  53.490  11.9410  0.00  0.00     0.000 C
ATOM     18  C2  NAG B   2       8.348  54.052  10.6240  0.00  0.00     0.000 C
ATOM     19  C3  NAG B   2       9.875  54.022  10.6040  0.00  0.00     0.000 C
ATOM     20  C4  NAG B   2      10.438  54.702  11.8520  0.00  0.00     0.000 C
ATOM     21  C5  NAG B   2       9.851  54.058  13.0990  0.00  0.00     0.000 C
ATOM     22  O5  NAG B   2       8.418  54.177  13.0550  0.00  0.00     0.000 O
ATOM     23   O  NAG B   2      11.864  54.581  11.8270  0.00  0.00     0.000 O
ATOM     25  HD  NAG B   2      11.533  55.375  11.7240  0.00  0.00     0.000 HD
ATOM     25   C  NAG B   2      10.382  54.679  14.3900  0.00  0.00     0.000 C
ATOM     26   O  NAG B   2       9.828  55.983  14.6180  0.00  0.00     0.000 O
ATOM     28  HD  NAG B   2       9.497  56.777  14.5150  0.00  0.00     0.000 HD
BRANCH 18 30
ATOM     28   N  NAG B   2       7.421  53.308   9.7920  0.00  0.00     0.000 N
ATOM     30  HD  NAG B   2       7.544  54.040   9.3460  0.00  0.00     0.000 HD
ATOM     30   C  NAG B   2       6.848  53.803   8.6880  0.00  0.00     0.000 C
ATOM     31   C  NAG B   2       5.873  52.924   7.9560  0.00  0.00     0.000 C
ATOM     32   O  NAG B   2       7.096  54.921   8.2830  0.00  0.00     0.000 OA
ENDBRANCH 18 30
BRANCH 17 33
ATOM     33  O4  GCU B   3       6.387  53.579  11.9130  0.00  0.00     0.000 O
BRANCH 33 37
ATOM     34  C1  GCU B   3       3.571  51.310  13.9740  0.00  0.00     0.000 C
ATOM     35  C2  GCU B   3       3.885  52.708  14.5080  0.00  0.00     0.000 C
ATOM     36  C3  GCU B   3       4.574  53.519  13.4320  0.00  0.00     0.000 C
ATOM     37  C4  GCU B   3       5.803  52.771  12.9350  0.00  0.00     0.000 C
ATOM     38  C5  GCU B   3       5.391  51.391  12.4190  0.00  0.00     0.000 C
ATOM     39  O5  GCU B   3       4.756  50.677  13.4850  0.00  0.00     0.000 O
ATOM     40   O  GCU B   3       2.664  53.340  14.8990  0.00  0.00     0.000 O
ATOM     42  HD  GCU B   3       2.214  54.074  14.8080  0.00  0.00     0.000 HD
ATOM     42   O  GCU B   3       4.951  54.818  13.9240  0.00  0.00     0.000 O
ATOM     44  HD  GCU B   3       4.500  55.552  13.8330  0.00  0.00     0.000 HD
BRANCH 38 44
ATOM     44   C  GCU B   3       6.565  50.578  11.9320  0.00  0.00     0.000 C
ATOM     45   O  GCU B   3       7.379  50.152  12.7650  0.00  0.00     0.000 OA
ATOM     46   O  GCU B   3       6.694  50.348  10.7140  0.00  0.00     0.000 OA
ENDBRANCH 38 44
BRANCH 34 47
ATOM     47  O3  NAG B   4       3.160  50.550  14.9790  0.00  0.00     0.000 O
BRANCH 47 50
ATOM     48  C1  NAG B   4       0.193  48.471  15.7740  0.00  0.00     0.000 C
ATOM     49  C2  NAG B   4       0.995  49.608  15.1480  0.00  0.00     0.000 C
ATOM     50  C3  NAG B   4       2.485  49.305  15.1490  0.00  0.00     0.000 C
ATOM     51  C4  NAG B   4       2.977  48.630  16.4350  0.00  0.00     0.000 C
ATOM     52  C5  NAG B   4       2.265  47.309  16.6710  0.00  0.00     0.000 C
ATOM     53  O5  NAG B   4       0.847  47.346  16.3970  0.00  0.00     0.000 O
BRANCH 49 56
ATOM     54   N  NAG B   4       0.701  49.263  13.7460  0.00  0.00     0.000 N
ATOM     56  HD  NAG B   4       0.890  48.511  13.3600  0.00  0.00     0.000 HD
ATOM     56   C  NAG B   4      -0.052  49.529  11.4540  0.00  0.00     0.000 C
ATOM     57   O  NAG B   4       0.134  51.318  12.9590  0.00  0.00     0.000 OA
ATOM     58   C  NAG B   4       0.279  50.116  12.7920  0.00  0.00     0.000 C
ENDBRANCH 49 56
ATOM     59   O  NAG B   4       2.198  45.460  18.3060  0.00  0.00     0.000 O
ATOM     61  HD  NAG B   4       1.882  46.218  18.0310  0.00  0.00     0.000 HD
ATOM     61   O  NAG B   4       2.198  45.460  18.3060  0.00  0.00     0.000 O
ATOM     63  HD  NAG B   4       1.882  46.218  18.0310  0.00  0.00     0.000 HD
ENDBRANCH 47 50
ENDBRANCH 34 47
ENDBRANCH 33 37
ENDBRANCH 17 33
ENDBRANCH 16 19
ENDBRANCH 1 16
TORSDOF 10
ENDMDL
MODEL 85
REMARK VINA RESULT:      -5.3     15.293     22.404
ROOT
ATOM      1  C1  GCU B   1      10.458  12.094  34.1960  0.00  0.00     0.000 C
ATOM      2  C2  GCU B   1       9.244  11.907  35.0930  0.00  0.00     0.000 C
ATOM      3  C3  GCU B   1       9.215  12.972  36.1780  0.00  0.00     0.000 C
ATOM      4  C4  GCU B   1      10.553  13.022  36.9010  0.00  0.00     0.000 C
ATOM      5  C5  GCU B   1      11.709  13.149  35.9080  0.00  0.00     0.000 C
ATOM      6  O5  GCU B   1      11.658  12.054  34.9840  0.00  0.00     0.000 O
ATOM      7   O  GCU B   1       8.083  11.992  34.2720  0.00  0.00     0.000 O
ATOM      9  HD  GCU B   1       7.440  11.413  34.2360  0.00  0.00     0.000 HD
ATOM      9   O  GCU B   1       8.169  12.708  37.1160  0.00  0.00     0.000 O
ATOM     11  HD  GCU B   1       7.526  12.129  37.0790  0.00  0.00     0.000 HD
ATOM     11   O  GCU B   1      10.555  14.139  37.7910  0.00  0.00     0.000 O
ATOM     13  HD  GCU B   1       9.912  13.560  37.7540  0.00  0.00     0.000 HD
ENDROOT
BRANCH 5 13
ATOM     13   C  GCU B   1      13.021  13.211  36.6530  0.00  0.00     0.000 C
ATOM     14   O  GCU B   1      13.744  12.197  36.7420  0.00  0.00     0.000 OA
ATOM     15   O  GCU B   1      13.354  14.309  37.1390  0.00  0.00     0.000 OA
ENDBRANCH 5 13
BRANCH 1 16
ATOM     16  O3  NAG B   2      11.087  11.164  33.4740  0.00  0.00     0.000 O
BRANCH 16 19
ATOM     17  C1  NAG B   2      11.493  10.744  29.7480  0.00  0.00     0.000 C
ATOM     18  C2  NAG B   2      10.755  10.913  31.0700  0.00  0.00     0.000 C
ATOM     19  C3  NAG B   2      11.748  11.184  32.2000  0.00  0.00     0.000 C
ATOM     20  C4  NAG B   2      12.841  10.116  32.2150  0.00  0.00     0.000 C
ATOM     21  C5  NAG B   2      13.508  10.041  30.8480  0.00  0.00     0.000 C
ATOM     22  O5  NAG B   2      12.509   9.735  29.8590  0.00  0.00     0.000 O
ATOM     23   O  NAG B   2      13.787  10.453  33.2350  0.00  0.00     0.000 O
ATOM     25  HD  NAG B   2      13.302   9.747  33.3640  0.00  0.00     0.000 HD
ATOM     25   C  NAG B   2      14.626   9.002  30.7930  0.00  0.00     0.000 C
ATOM     26   O  NAG B   2      14.106   7.664  30.7820  0.00  0.00     0.000 O
ATOM     28  HD  NAG B   2      13.622   6.958  30.9110  0.00  0.00     0.000 HD
BRANCH 18 30
ATOM     28   N  NAG B   2       9.754  11.860  30.6170  0.00  0.00     0.000 N
ATOM     30  HD  NAG B   2       9.308  11.339  31.1470  0.00  0.00     0.000 HD
ATOM     30   C  NAG B   2       8.450  11.761  30.9050  0.00  0.00     0.000 C
ATOM     31   C  NAG B   2       7.528  12.796  30.3250  0.00  0.00     0.000 C
ATOM     32   O  NAG B   2       8.014  10.870  31.6070  0.00  0.00     0.000 OA
ENDBRANCH 18 30
BRANCH 17 33
ATOM     33  O4  GCU B   3      10.510  10.457  28.7340  0.00  0.00     0.000 O
BRANCH 33 37
ATOM     34  C1  GCU B   3      10.750  10.741  24.5870  0.00  0.00     0.000 C
ATOM     35  C2  GCU B   3      11.131   9.407  25.2310  0.00  0.00     0.000 C
ATOM     36  C3  GCU B   3      10.587   9.352  26.6420  0.00  0.00     0.000 C
ATOM     37  C4  GCU B   3      11.075  10.562  27.4260  0.00  0.00     0.000 C
ATOM     38  C5  GCU B   3      10.646  11.845  26.7110  0.00  0.00     0.000 C
ATOM     39  O5  GCU B   3      11.198  11.836  25.3900  0.00  0.00     0.000 O
ATOM     40   O  GCU B   3      10.585   8.343  24.4480  0.00  0.00     0.000 O
ATOM     42  HD  GCU B   3      10.120   7.615  24.5130  0.00  0.00     0.000 HD
ATOM     42   O  GCU B   3      10.989   8.139  27.3050  0.00  0.00     0.000 O
ATOM     44  HD  GCU B   3      10.524   7.411  27.3690  0.00  0.00     0.000 HD
BRANCH 38 44
ATOM     44   C  GCU B   3      11.117  13.091  27.4180  0.00  0.00     0.000 C
ATOM     45   O  GCU B   3      10.295  13.749  28.0720  0.00  0.00     0.000 OA
ATOM     46   O  GCU B   3      12.313  13.432  27.3370  0.00  0.00     0.000 OA
ENDBRANCH 38 44
BRANCH 34 47
ATOM     47  O3  NAG B   4      11.400  10.862  23.4390  0.00  0.00     0.000 O
BRANCH 47 50
ATOM     48  C1  NAG B   4      10.544  11.203  19.8460  0.00  0.00     0.000 C
ATOM     49  C2  NAG B   4      10.390  10.770  21.3000  0.00  0.00     0.000 C
ATOM     50  C3  NAG B   4      11.264  11.601  22.2260  0.00  0.00     0.000 C
ATOM     51  C4  NAG B   4      12.654  11.903  21.6550  0.00  0.00     0.000 C
ATOM     52  C5  NAG B   4      12.557  12.669  20.3450  0.00  0.00     0.000 C
ATOM     53  O5  NAG B   4      11.524  12.189  19.4570  0.00  0.00     0.000 O
BRANCH 49 56
ATOM     54   N  NAG B   4       8.946  10.823  21.5870  0.00  0.00     0.000 N
ATOM     56  HD  NAG B   4       8.394  10.158  21.5300  0.00  0.00     0.000 HD
ATOM     56   C  NAG B   4       6.779  11.756  22.1600  0.00  0.00     0.000 C
ATOM     57   O  NAG B   4       8.662  13.076  21.7000  0.00  0.00     0.000 OA
ATOM     58   C  NAG B   4       8.218  11.940  21.7860  0.00  0.00     0.000 C
ENDBRANCH 49 56
ATOM     59   O  NAG B   4      14.017  13.629  18.6020  0.00  0.00     0.000 O
ATOM     61  HD  NAG B   4      13.547  12.962  18.8890  0.00  0.00     0.000 HD
ATOM     61   O  NAG B   4      14.017  13.629  18.6020  0.00  0.00     0.000 O
ATOM     63  HD  NAG B   4      13.547  12.962  18.8890  0.00  0.00     0.000 HD
ENDBRANCH 47 50
ENDBRANCH 34 47
ENDBRANCH 33 37
ENDBRANCH 17 33
ENDBRANCH 16 19
ENDBRANCH 1 16
TORSDOF 10
ENDMDL
MODEL 86
REMARK VINA RESULT:      -5.3     14.490     19.769
ROOT
ATOM      1  C1  GCU B   1      14.608  29.033  31.5860  0.00  0.00     0.000 C
ATOM      2  C2  GCU B   1      13.222  28.592  32.0320  0.00  0.00     0.000 C
ATOM      3  C3  GCU B   1      12.790  29.368  33.2670  0.00  0.00     0.000 C
ATOM      4  C4  GCU B   1      13.868  29.296  34.3370  0.00  0.00     0.000 C
ATOM      5  C5  GCU B   1      15.231  29.699  33.7720  0.00  0.00     0.000 C
ATOM      6  O5  GCU B   1      15.547  28.853  32.6580  0.00  0.00     0.000 O
ATOM      7   O  GCU B   1      12.326  28.825  30.9510  0.00  0.00     0.000 O
ATOM      9  HD  GCU B   1      11.781  28.247  30.6060  0.00  0.00     0.000 HD
ATOM      9   O  GCU B   1      11.561  28.849  33.7830  0.00  0.00     0.000 O
ATOM     11  HD  GCU B   1      11.016  28.271  33.4380  0.00  0.00     0.000 HD
ATOM     11   O  GCU B   1      13.512  30.169  35.4100  0.00  0.00     0.000 O
ATOM     13  HD  GCU B   1      12.967  29.591  35.0650  0.00  0.00     0.000 HD
ENDROOT
BRANCH 5 13
ATOM     13   C  GCU B   1      16.278  29.633  34.8580  0.00  0.00     0.000 C
ATOM     14   O  GCU B   1      17.292  30.358  34.8020  0.00  0.00     0.000 OA
ATOM     15   O  GCU B   1      16.070  28.854  35.8080  0.00  0.00     0.000 OA
ENDBRANCH 5 13
BRANCH 1 16
ATOM     16  O3  NAG B   2      15.503  28.325  30.8930  0.00  0.00     0.000 O
BRANCH 16 19
ATOM     17  C1  NAG B   2      16.771  29.139  27.4350  0.00  0.00     0.000 C
ATOM     18  C2  NAG B   2      15.749  28.969  28.5520  0.00  0.00     0.000 C
ATOM     19  C3  NAG B   2      16.455  28.666  29.8730  0.00  0.00     0.000 C
ATOM     20  C4  NAG B   2      17.414  27.488  29.7060  0.00  0.00     0.000 C
ATOM     21  C5  NAG B   2      18.386  27.772  28.5690  0.00  0.00     0.000 C
ATOM     22  O5  NAG B   2      17.637  27.995  27.3610  0.00  0.00     0.000 O
ATOM     23   O  NAG B   2      18.107  27.291  30.9440  0.00  0.00     0.000 O
ATOM     25  HD  NAG B   2      17.546  26.677  30.7030  0.00  0.00     0.000 HD
ATOM     25   C  NAG B   2      19.389  26.640  28.3540  0.00  0.00     0.000 C
ATOM     26   O  NAG B   2      18.774  25.494  27.7460  0.00  0.00     0.000 O
ATOM     28  HD  NAG B   2      18.213  24.880  27.5050  0.00  0.00     0.000 HD
BRANCH 18 30
ATOM     28   N  NAG B   2      14.953  30.181  28.5070  0.00  0.00     0.000 N
ATOM     30  HD  NAG B   2      14.361  29.553  28.4360  0.00  0.00     0.000 HD
ATOM     30   C  NAG B   2      13.637  30.200  28.2630  0.00  0.00     0.000 C
ATOM     31   C  NAG B   2      12.959  31.540  28.2040  0.00  0.00     0.000 C
ATOM     32   O  NAG B   2      13.002  29.179  28.0920  0.00  0.00     0.000 OA
ENDBRANCH 18 30
BRANCH 17 33
ATOM     33  O4  GCU B   3      16.044  29.385  26.2140  0.00  0.00     0.000 O
BRANCH 33 37
ATOM     34  C1  GCU B   3      17.236  31.246  22.6860  0.00  0.00     0.000 C
ATOM     35  C2  GCU B   3      17.474  29.741  22.8100  0.00  0.00     0.000 C
ATOM     36  C3  GCU B   3      16.618  29.183  23.9270  0.00  0.00     0.000 C
ATOM     37  C4  GCU B   3      16.896  29.946  25.2140  0.00  0.00     0.000 C
ATOM     38  C5  GCU B   3      16.630  31.437  24.9960  0.00  0.00     0.000 C
ATOM     39  O5  GCU B   3      17.473  31.900  23.9360  0.00  0.00     0.000 O
ATOM     40   O  GCU B   3      17.136  29.116  21.5690  0.00  0.00     0.000 O
ATOM     42  HD  GCU B   3      16.678  28.461  21.2350  0.00  0.00     0.000 HD
ATOM     42   O  GCU B   3      16.870  27.779  24.1200  0.00  0.00     0.000 O
ATOM     44  HD  GCU B   3      16.411  27.125  23.7860  0.00  0.00     0.000 HD
BRANCH 38 44
ATOM     44   C  GCU B   3      16.909  32.264  26.2250  0.00  0.00     0.000 C
ATOM     45   O  GCU B   3      18.089  32.496  26.5300  0.00  0.00     0.000 OA
ATOM     46   O  GCU B   3      15.961  32.699  26.9060  0.00  0.00     0.000 OA
ENDBRANCH 38 44
BRANCH 34 47
ATOM     47  O3  NAG B   4      18.134  31.753  21.8530  0.00  0.00     0.000 O
BRANCH 47 50
ATOM     48  C1  NAG B   4      16.484  33.637  19.1170  0.00  0.00     0.000 C
ATOM     49  C2  NAG B   4      16.789  33.197  20.5450  0.00  0.00     0.000 C
ATOM     50  C3  NAG B   4      18.138  32.502  20.6390  0.00  0.00     0.000 C
ATOM     51  C4  NAG B   4      18.432  31.563  19.4630  0.00  0.00     0.000 C
ATOM     52  C5  NAG B   4      18.421  32.315  18.1420  0.00  0.00     0.000 C
ATOM     53  O5  NAG B   4      17.350  33.277  18.0200  0.00  0.00     0.000 O
BRANCH 49 56
ATOM     54   N  NAG B   4      17.210  34.510  21.0640  0.00  0.00     0.000 N
ATOM     56  HD  NAG B   4      17.904  34.957  20.8030  0.00  0.00     0.000 HD
ATOM     56   C  NAG B   4      17.220  36.508  22.4420  0.00  0.00     0.000 C
ATOM     57   O  NAG B   4      15.863  34.648  22.8890  0.00  0.00     0.000 OA
ATOM     58   C  NAG B   4      16.709  35.130  22.1510  0.00  0.00     0.000 C
ENDBRANCH 49 56
ATOM     59   O  NAG B   4      18.717  31.901  15.7260  0.00  0.00     0.000 O
ATOM     61  HD  NAG B   4      18.185  31.969  16.4070  0.00  0.00     0.000 HD
ATOM     61   O  NAG B   4      18.717  31.901  15.7260  0.00  0.00     0.000 O
ATOM     63  HD  NAG B   4      18.185  31.969  16.4070  0.00  0.00     0.000 HD
ENDBRANCH 47 50
ENDBRANCH 34 47
ENDBRANCH 33 37
ENDBRANCH 17 33
ENDBRANCH 16 19
ENDBRANCH 1 16
TORSDOF 10
ENDMDL
MODEL 87
REMARK VINA RESULT:      -5.3     15.964     20.079
ROOT
ATOM      1  C1  GCU B   1      18.607  19.376  34.8350  0.00  0.00     0.000 C
ATOM      2  C2  GCU B   1      19.075  18.829  36.1750  0.00  0.00     0.000 C
ATOM      3  C3  GCU B   1      18.051  17.856  36.7390  0.00  0.00     0.000 C
ATOM      4  C4  GCU B   1      16.670  18.491  36.7450  0.00  0.00     0.000 C
ATOM      5  C5  GCU B   1      16.321  19.063  35.3690  0.00  0.00     0.000 C
ATOM      6  O5  GCU B   1      17.327  20.010  34.9860  0.00  0.00     0.000 O
ATOM      7   O  GCU B   1      20.325  18.181  35.9650  0.00  0.00     0.000 O
ATOM      9  HD  GCU B   1      21.056  18.324  36.4070  0.00  0.00     0.000 HD
ATOM      9   O  GCU B   1      18.408  17.461  38.0660  0.00  0.00     0.000 O
ATOM     11  HD  GCU B   1      19.139  17.605  38.5080  0.00  0.00     0.000 HD
ATOM     11   O  GCU B   1      15.708  17.502  37.1140  0.00  0.00     0.000 O
ATOM     13  HD  GCU B   1      16.439  17.645  37.5570  0.00  0.00     0.000 HD
ENDROOT
BRANCH 5 13
ATOM     13   C  GCU B   1      14.941  19.674  35.4020  0.00  0.00     0.000 C
ATOM     14   O  GCU B   1      13.944  18.968  35.6600  0.00  0.00     0.000 OA
ATOM     15   O  GCU B   1      14.850  20.899  35.1900  0.00  0.00     0.000 OA
ENDBRANCH 5 13
BRANCH 1 16
ATOM     16  O3  NAG B   2      18.941  20.538  34.2700  0.00  0.00     0.000 O
BRANCH 16 19
ATOM     17  C1  NAG B   2      20.229  21.169  30.7810  0.00  0.00     0.000 C
ATOM     18  C2  NAG B   2      20.148  20.504  32.1490  0.00  0.00     0.000 C
ATOM     19  C3  NAG B   2      18.930  21.017  32.9160  0.00  0.00     0.000 C
ATOM     20  C4  NAG B   2      18.928  22.545  32.9520  0.00  0.00     0.000 C
ATOM     21  C5  NAG B   2      19.007  23.094  31.5340  0.00  0.00     0.000 C
ATOM     22  O5  NAG B   2      20.206  22.600  30.9100  0.00  0.00     0.000 O
ATOM     23   O  NAG B   2      17.733  22.979  33.6100  0.00  0.00     0.000 O
ATOM     25  HD  NAG B   2      18.482  23.118  34.0200  0.00  0.00     0.000 HD
ATOM     25   C  NAG B   2      18.994  24.620  31.4910  0.00  0.00     0.000 C
ATOM     26   O  NAG B   2      20.240  25.175  31.9390  0.00  0.00     0.000 O
ATOM     28  HD  NAG B   2      20.990  25.314  32.3500  0.00  0.00     0.000 HD
BRANCH 18 30
ATOM     28   N  NAG B   2      20.246  19.104  31.7830  0.00  0.00     0.000 N
ATOM     30  HD  NAG B   2      20.812  19.178  32.4340  0.00  0.00     0.000 HD
ATOM     30   C  NAG B   2      21.143  18.258  32.3050  0.00  0.00     0.000 C
ATOM     31   C  NAG B   2      21.149  16.845  31.7910  0.00  0.00     0.000 C
ATOM     32   O  NAG B   2      21.931  18.607  33.1610  0.00  0.00     0.000 OA
ENDBRANCH 18 30
BRANCH 17 33
ATOM     33  O4  GCU B   3      21.413  20.673  30.1250  0.00  0.00     0.000 O
BRANCH 33 37
ATOM     34  C1  GCU B   3      22.390  20.562  26.0800  0.00  0.00     0.000 C
ATOM     35  C2  GCU B   3      21.979  21.909  26.6740  0.00  0.00     0.000 C
ATOM     36  C3  GCU B   3      22.080  21.850  28.1830  0.00  0.00     0.000 C
ATOM     37  C4  GCU B   3      21.255  20.682  28.7050  0.00  0.00     0.000 C
ATOM     38  C5  GCU B   3      21.738  19.382  28.0600  0.00  0.00     0.000 C
ATOM     39  O5  GCU B   3      21.609  19.503  26.6390  0.00  0.00     0.000 O
ATOM     40   O  GCU B   3      22.844  22.925  26.1600  0.00  0.00     0.000 O
ATOM     42  HD  GCU B   3      23.344  23.588  26.4070  0.00  0.00     0.000 HD
ATOM     42   O  GCU B   3      21.631  23.079  28.7810  0.00  0.00     0.000 O
ATOM     44  HD  GCU B   3      22.131  23.742  29.0280  0.00  0.00     0.000 HD
BRANCH 38 44
ATOM     44   C  GCU B   3      20.948  18.179  28.5110  0.00  0.00     0.000 C
ATOM     45   O  GCU B   3      19.791  18.351  28.9270  0.00  0.00     0.000 OA
ATOM     46   O  GCU B   3      21.462  17.046  28.4570  0.00  0.00     0.000 OA
ENDBRANCH 38 44
BRANCH 34 47
ATOM     47  O3  NAG B   4      22.103  20.560  24.7860  0.00  0.00     0.000 O
BRANCH 47 50
ATOM     48  C1  NAG B   4      20.265  19.996  21.6140  0.00  0.00     0.000 C
ATOM     49  C2  NAG B   4      21.215  19.696  22.7680  0.00  0.00     0.000 C
ATOM     50  C3  NAG B   4      20.934  20.586  23.9680  0.00  0.00     0.000 C
ATOM     51  C4  NAG B   4      20.604  22.037  23.5980  0.00  0.00     0.000 C
ATOM     52  C5  NAG B   4      19.378  22.112  22.7040  0.00  0.00     0.000 C
ATOM     53  O5  NAG B   4      19.335  21.099  21.6750  0.00  0.00     0.000 O
BRANCH 49 56
ATOM     54   N  NAG B   4      20.694  18.499  23.4500  0.00  0.00     0.000 N
ATOM     56  HD  NAG B   4      20.297  18.488  24.2190  0.00  0.00     0.000 HD
ATOM     56   C  NAG B   4      20.212  16.158  23.8720  0.00  0.00     0.000 C
ATOM     57   O  NAG B   4      21.648  16.884  22.1660  0.00  0.00     0.000 OA
ATOM     58   C  NAG B   4      20.922  17.220  23.0900  0.00  0.00     0.000 C
ENDBRANCH 49 56
ATOM     59   O  NAG B   4      17.994  23.782  21.5250  0.00  0.00     0.000 O
ATOM     61  HD  NAG B   4      18.657  23.226  21.5090  0.00  0.00     0.000 HD
ATOM     61   O  NAG B   4      17.994  23.782  21.5250  0.00  0.00     0.000 O
ATOM     63  HD  NAG B   4      18.657  23.226  21.5090  0.00  0.00     0.000 HD
ENDBRANCH 47 50
ENDBRANCH 34 47
ENDBRANCH 33 37
ENDBRANCH 17 33
ENDBRANCH 16 19
ENDBRANCH 1 16
TORSDOF 10
ENDMDL
MODEL 88
REMARK VINA RESULT:      -5.3     13.881     21.233
ROOT
ATOM      1  C1  GCU B   1      11.061  12.102  32.8480  0.00  0.00     0.000 C
ATOM      2  C2  GCU B   1       9.657  12.023  33.4290  0.00  0.00     0.000 C
ATOM      3  C3  GCU B   1       9.529  12.939  34.6370  0.00  0.00     0.000 C
ATOM      4  C4  GCU B   1      10.655  12.668  35.6230  0.00  0.00     0.000 C
ATOM      5  C5  GCU B   1      12.017  12.710  34.9280  0.00  0.00     0.000 C
ATOM      6  O5  GCU B   1      12.026  11.759  33.8550  0.00  0.00     0.000 O
ATOM      7   O  GCU B   1       8.744  12.407  32.4060  0.00  0.00     0.000 O
ATOM      9  HD  GCU B   1       8.051  11.957  32.1450  0.00  0.00     0.000 HD
ATOM      9   O  GCU B   1       8.267  12.751  35.2800  0.00  0.00     0.000 O
ATOM     11  HD  GCU B   1       7.574  12.301  35.0200  0.00  0.00     0.000 HD
ATOM     11   O  GCU B   1      10.610  13.652  36.6570  0.00  0.00     0.000 O
ATOM     13  HD  GCU B   1       9.917  13.203  36.3960  0.00  0.00     0.000 HD
ENDROOT
BRANCH 5 13
ATOM     13   C  GCU B   1      13.115  12.452  35.9320  0.00  0.00     0.000 C
ATOM     14   O  GCU B   1      13.712  11.356  35.9470  0.00  0.00     0.000 OA
ATOM     15   O  GCU B   1      13.409  13.379  36.7110  0.00  0.00     0.000 OA
ENDBRANCH 5 13
BRANCH 1 16
ATOM     16  O3  NAG B   2      11.701  11.169  32.1390  0.00  0.00     0.000 O
BRANCH 16 19
ATOM     17  C1  NAG B   2      12.795  11.025  28.5320  0.00  0.00     0.000 C
ATOM     18  C2  NAG B   2      11.829  11.161  29.7020  0.00  0.00     0.000 C
ATOM     19  C3  NAG B   2      12.599  11.224  31.0200  0.00  0.00     0.000 C
ATOM     20  C4  NAG B   2      13.566  10.045  31.1290  0.00  0.00     0.000 C
ATOM     21  C5  NAG B   2      14.480  10.014  29.9120  0.00  0.00     0.000 C
ATOM     22  O5  NAG B   2      13.672   9.904  28.7260  0.00  0.00     0.000 O
ATOM     23   O  NAG B   2      14.318  10.189  32.3390  0.00  0.00     0.000 O
ATOM     25  HD  NAG B   2      13.755   9.532  32.3000  0.00  0.00     0.000 HD
ATOM     25   C  NAG B   2      15.487   8.867  29.9600  0.00  0.00     0.000 C
ATOM     26   O  NAG B   2      14.860   7.599  29.7120  0.00  0.00     0.000 O
ATOM     28  HD  NAG B   2      14.297   6.942  29.6730  0.00  0.00     0.000 HD
BRANCH 18 30
ATOM     28   N  NAG B   2      10.400  11.163  29.4550  0.00  0.00     0.000 N
ATOM     30  HD  NAG B   2      10.628  11.984  29.3010  0.00  0.00     0.000 HD
ATOM     30   C  NAG B   2       9.689  12.268  29.1970  0.00  0.00     0.000 C
ATOM     31   C  NAG B   2       8.206  12.114  29.0060  0.00  0.00     0.000 C
ATOM     32   O  NAG B   2      10.211  13.362  29.1190  0.00  0.00     0.000 OA
ENDBRANCH 18 30
BRANCH 17 33
ATOM     33  O4  GCU B   3      12.009  10.934  27.3270  0.00  0.00     0.000 O
BRANCH 33 37
ATOM     34  C1  GCU B   3      13.121  11.744  23.3970  0.00  0.00     0.000 C
ATOM     35  C2  GCU B   3      13.055  10.278  23.8290  0.00  0.00     0.000 C
ATOM     36  C3  GCU B   3      12.246  10.160  25.1030  0.00  0.00     0.000 C
ATOM     37  C4  GCU B   3      12.830  11.078  26.1670  0.00  0.00     0.000 C
ATOM     38  C5  GCU B   3      12.853  12.518  25.6480  0.00  0.00     0.000 C
ATOM     39  O5  GCU B   3      13.638  12.559  24.4520  0.00  0.00     0.000 O
ATOM     40   O  GCU B   3      12.447   9.514  22.7850  0.00  0.00     0.000 O
ATOM     42  HD  GCU B   3      11.827   8.929  22.6370  0.00  0.00     0.000 HD
ATOM     42   O  GCU B   3      12.223   8.803  25.5780  0.00  0.00     0.000 O
ATOM     44  HD  GCU B   3      11.603   8.217  25.4310  0.00  0.00     0.000 HD
BRANCH 38 44
ATOM     44   C  GCU B   3      13.445  13.485  26.6430  0.00  0.00     0.000 C
ATOM     45   O  GCU B   3      14.672  13.469  26.8280  0.00  0.00     0.000 OA
ATOM     46   O  GCU B   3      12.702  14.277  27.2520  0.00  0.00     0.000 OA
ENDBRANCH 38 44
BRANCH 34 47
ATOM     47  O3  NAG B   4      13.995  11.859  22.4080  0.00  0.00     0.000 O
BRANCH 47 50
ATOM     48  C1  NAG B   4      13.636  12.231  18.7350  0.00  0.00     0.000 C
ATOM     49  C2  NAG B   4      13.249  11.855  20.1620  0.00  0.00     0.000 C
ATOM     50  C3  NAG B   4      14.109  12.581  21.1830  0.00  0.00     0.000 C
ATOM     51  C4  NAG B   4      15.586  12.682  20.7860  0.00  0.00     0.000 C
ATOM     52  C5  NAG B   4      15.754  13.424  19.4710  0.00  0.00     0.000 C
ATOM     53  O5  NAG B   4      14.781  13.067  18.4650  0.00  0.00     0.000 O
BRANCH 49 56
ATOM     54   N  NAG B   4      12.050  12.708  20.2360  0.00  0.00     0.000 N
ATOM     56  HD  NAG B   4      12.035  13.568  20.1360  0.00  0.00     0.000 HD
ATOM     56   C  NAG B   4       9.728  13.335  20.5640  0.00  0.00     0.000 C
ATOM     57   O  NAG B   4      10.572  11.214  21.1020  0.00  0.00     0.000 OA
ATOM     58   C  NAG B   4      10.830  12.325  20.6640  0.00  0.00     0.000 C
ENDBRANCH 49 56
ATOM     59   O  NAG B   4      17.532  14.141  17.9150  0.00  0.00     0.000 O
ATOM     61  HD  NAG B   4      16.944  13.549  18.1460  0.00  0.00     0.000 HD
ATOM     61   O  NAG B   4      17.532  14.141  17.9150  0.00  0.00     0.000 O
ATOM     63  HD  NAG B   4      16.944  13.549  18.1460  0.00  0.00     0.000 HD
ENDBRANCH 47 50
ENDBRANCH 34 47
ENDBRANCH 33 37
ENDBRANCH 17 33
ENDBRANCH 16 19
ENDBRANCH 1 16
TORSDOF 10
ENDMDL
MODEL 89
REMARK VINA RESULT:      -5.3     20.831     23.875
ROOT
ATOM      1  C1  GCU B   1      14.170  26.272  33.3620  0.00  0.00     0.000 C
ATOM      2  C2  GCU B   1      13.275  27.327  33.9950  0.00  0.00     0.000 C
ATOM      3  C3  GCU B   1      12.216  27.788  33.0050  0.00  0.00     0.000 C
ATOM      4  C4  GCU B   1      12.866  28.194  31.6910  0.00  0.00     0.000 C
ATOM      5  C5  GCU B   1      13.791  27.092  31.1730  0.00  0.00     0.000 C
ATOM      6  O5  GCU B   1      14.778  26.798  32.1710  0.00  0.00     0.000 O
ATOM      7   O  GCU B   1      12.671  26.746  35.1460  0.00  0.00     0.000 O
ATOM      9  HD  GCU B   1      12.671  27.079  35.9460  0.00  0.00     0.000 HD
ATOM      9   O  GCU B   1      11.475  28.889  33.5380  0.00  0.00     0.000 O
ATOM     11  HD  GCU B   1      11.475  29.221  34.3380  0.00  0.00     0.000 HD
ATOM     11   O  GCU B   1      11.842  28.457  30.7320  0.00  0.00     0.000 O
ATOM     13  HD  GCU B   1      11.842  28.789  31.5310  0.00  0.00     0.000 HD
ENDROOT
BRANCH 5 13
ATOM     13   C  GCU B   1      14.411  27.515  29.8620  0.00  0.00     0.000 C
ATOM     14   O  GCU B   1      13.697  27.685  28.8520  0.00  0.00     0.000 OA
ATOM     15   O  GCU B   1      15.641  27.712  29.8460  0.00  0.00     0.000 OA
ENDBRANCH 5 13
BRANCH 1 16
ATOM     16  O3  NAG B   2      15.431  25.975  33.6860  0.00  0.00     0.000 O
BRANCH 16 19
ATOM     17  C1  NAG B   2      16.867  22.836  35.2040  0.00  0.00     0.000 C
ATOM     18  C2  NAG B   2      15.934  24.032  35.0730  0.00  0.00     0.000 C
ATOM     19  C3  NAG B   2      16.172  24.747  33.7440  0.00  0.00     0.000 C
ATOM     20  C4  NAG B   2      17.654  25.077  33.5760  0.00  0.00     0.000 C
ATOM     21  C5  NAG B   2      18.485  23.810  33.7220  0.00  0.00     0.000 C
ATOM     22  O5  NAG B   2      18.234  23.236  35.0170  0.00  0.00     0.000 O
ATOM     23   O  NAG B   2      17.840  25.673  32.2870  0.00  0.00     0.000 O
ATOM     25  HD  NAG B   2      17.957  26.182  32.9780  0.00  0.00     0.000 HD
ATOM     25   C  NAG B   2      19.981  24.062  33.5490  0.00  0.00     0.000 C
ATOM     26   O  NAG B   2      20.540  24.741  34.6840  0.00  0.00     0.000 O
ATOM     28  HD  NAG B   2      20.657  25.250  35.3750  0.00  0.00     0.000 HD
BRANCH 18 30
ATOM     28   N  NAG B   2      15.124  24.040  36.2770  0.00  0.00     0.000 N
ATOM     30  HD  NAG B   2      14.560  23.809  35.6610  0.00  0.00     0.000 HD
ATOM     30   C  NAG B   2      13.798  23.857  36.2850  0.00  0.00     0.000 C
ATOM     31   C  NAG B   2      13.092  23.938  37.6100  0.00  0.00     0.000 C
ATOM     32   O  NAG B   2      13.175  23.636  35.2660  0.00  0.00     0.000 OA
ENDBRANCH 18 30
BRANCH 17 33
ATOM     33  O4  GCU B   3      16.620  22.229  36.4890  0.00  0.00     0.000 O
BRANCH 33 37
ATOM     34  C1  GCU B   3      16.965  18.279  37.7580  0.00  0.00     0.000 C
ATOM     35  C2  GCU B   3      18.252  19.088  37.5980  0.00  0.00     0.000 C
ATOM     36  C3  GCU B   3      17.921  20.564  37.5550  0.00  0.00     0.000 C
ATOM     37  C4  GCU B   3      16.901  20.828  36.4570  0.00  0.00     0.000 C
ATOM     38  C5  GCU B   3      15.651  19.981  36.7020  0.00  0.00     0.000 C
ATOM     39  O5  GCU B   3      16.032  18.601  36.7220  0.00  0.00     0.000 O
ATOM     40   O  GCU B   3      19.117  18.806  38.7010  0.00  0.00     0.000 O
ATOM     42  HD  GCU B   3      19.599  19.192  39.3080  0.00  0.00     0.000 HD
ATOM     42   O  GCU B   3      19.104  21.354  37.3320  0.00  0.00     0.000 O
ATOM     44  HD  GCU B   3      19.586  21.739  37.9390  0.00  0.00     0.000 HD
BRANCH 38 44
ATOM     44   C  GCU B   3      14.601  20.171  35.6360  0.00  0.00     0.000 C
ATOM     45   O  GCU B   3      14.945  20.111  34.4460  0.00  0.00     0.000 OA
ATOM     46   O  GCU B   3      13.417  20.379  35.9650  0.00  0.00     0.000 OA
ENDBRANCH 38 44
BRANCH 34 47
ATOM     47  O3  NAG B   4      17.243  16.994  37.5870  0.00  0.00     0.000 O
BRANCH 47 50
ATOM     48  C1  NAG B   4      15.270  14.357  39.2920  0.00  0.00     0.000 C
ATOM     49  C2  NAG B   4      15.694  15.765  38.8880  0.00  0.00     0.000 C
ATOM     50  C3  NAG B   4      16.544  15.752  37.6280  0.00  0.00     0.000 C
ATOM     51  C4  NAG B   4      17.552  14.598  37.5750  0.00  0.00     0.000 C
ATOM     52  C5  NAG B   4      16.851  13.251  37.6410  0.00  0.00     0.000 C
ATOM     53  O5  NAG B   4      15.771  13.195  38.5990  0.00  0.00     0.000 O
BRANCH 49 56
ATOM     54   N  NAG B   4      14.448  16.205  38.2360  0.00  0.00     0.000 N
ATOM     56  HD  NAG B   4      14.155  15.931  37.4680  0.00  0.00     0.000 HD
ATOM     56   C  NAG B   4      12.395  17.447  37.8690  0.00  0.00     0.000 C
ATOM     57   O  NAG B   4      13.938  17.987  39.5510  0.00  0.00     0.000 OA
ATOM     58   C  NAG B   4      13.672  17.237  38.6230  0.00  0.00     0.000 C
ENDBRANCH 49 56
ATOM     59   O  NAG B   4      17.381  10.840  37.6600  0.00  0.00     0.000 O
ATOM     61  HD  NAG B   4      17.225  11.568  38.1020  0.00  0.00     0.000 HD
ATOM     61   O  NAG B   4      17.381  10.840  37.6600  0.00  0.00     0.000 O
ATOM     63  HD  NAG B   4      17.225  11.568  38.1020  0.00  0.00     0.000 HD
ENDBRANCH 47 50
ENDBRANCH 34 47
ENDBRANCH 33 37
ENDBRANCH 17 33
ENDBRANCH 16 19
ENDBRANCH 1 16
TORSDOF 10
ENDMDL
MODEL 90
REMARK VINA RESULT:      -5.3      9.806     15.039
ROOT
ATOM      1  C1  GCU B   1      15.977  32.431  25.2440  0.00  0.00     0.000 C
ATOM      2  C2  GCU B   1      16.269  32.300  26.7310  0.00  0.00     0.000 C
ATOM      3  C3  GCU B   1      14.990  32.009  27.5010  0.00  0.00     0.000 C
ATOM      4  C4  GCU B   1      13.916  33.023  27.1380  0.00  0.00     0.000 C
ATOM      5  C5  GCU B   1      13.744  33.122  25.6210  0.00  0.00     0.000 C
ATOM      6  O5  GCU B   1      15.003  33.464  25.0260  0.00  0.00     0.000 O
ATOM      7   O  GCU B   1      17.209  31.243  26.8960  0.00  0.00     0.000 O
ATOM      9  HD  GCU B   1      17.957  31.288  27.3290  0.00  0.00     0.000 HD
ATOM      9   O  GCU B   1      15.231  32.043  28.9100  0.00  0.00     0.000 O
ATOM     11  HD  GCU B   1      15.979  32.088  29.3420  0.00  0.00     0.000 HD
ATOM     11   O  GCU B   1      12.684  32.626  27.7390  0.00  0.00     0.000 O
ATOM     13  HD  GCU B   1      13.432  32.671  28.1720  0.00  0.00     0.000 HD
ENDROOT
BRANCH 5 13
ATOM     13   C  GCU B   1      12.663  34.125  25.2910  0.00  0.00     0.000 C
ATOM     14   O  GCU B   1      11.491  33.940  25.6790  0.00  0.00     0.000 OA
ATOM     15   O  GCU B   1      12.999  35.139  24.6500  0.00  0.00     0.000 OA
ENDBRANCH 5 13
BRANCH 1 16
ATOM     16  O3  NAG B   2      16.676  33.115  24.3350  0.00  0.00     0.000 O
BRANCH 16 19
ATOM     17  C1  NAG B   2      18.646  32.010  21.3140  0.00  0.00     0.000 C
ATOM     18  C2  NAG B   2      18.241  32.071  22.7820  0.00  0.00     0.000 C
ATOM     19  C3  NAG B   2      16.967  32.897  22.9460  0.00  0.00     0.000 C
ATOM     20  C4  NAG B   2      17.127  34.261  22.2750  0.00  0.00     0.000 C
ATOM     21  C5  NAG B   2      17.527  34.075  20.8180  0.00  0.00     0.000 C
ATOM     22  O5  NAG B   2      18.757  33.333  20.7640  0.00  0.00     0.000 O
ATOM     23   O  NAG B   2      15.886  34.967  22.3870  0.00  0.00     0.000 O
ATOM     25  HD  NAG B   2      16.558  35.276  22.8380  0.00  0.00     0.000 HD
ATOM     25   C  NAG B   2      17.690  35.401  20.0770  0.00  0.00     0.000 C
ATOM     26   O  NAG B   2      18.886  36.088  20.4760  0.00  0.00     0.000 O
ATOM     28  HD  NAG B   2      19.558  36.397  20.9270  0.00  0.00     0.000 HD
BRANCH 18 30
ATOM     28   N  NAG B   2      18.335  30.653  23.0740  0.00  0.00     0.000 N
ATOM     30  HD  NAG B   2      18.661  31.023  23.7860  0.00  0.00     0.000 HD
ATOM     30   C  NAG B   2      18.936  30.153  24.1600  0.00  0.00     0.000 C
ATOM     31   C  NAG B   2      18.991  28.658  24.3010  0.00  0.00     0.000 C
ATOM     32   O  NAG B   2      19.427  30.872  25.0090  0.00  0.00     0.000 OA
ENDBRANCH 18 30
BRANCH 17 33
ATOM     33  O4  GCU B   3      19.868  31.251  21.2300  0.00  0.00     0.000 O
BRANCH 33 37
ATOM     34  C1  GCU B   3      21.603  29.266  18.0080  0.00  0.00     0.000 C
ATOM     35  C2  GCU B   3      21.966  30.737  18.2150  0.00  0.00     0.000 C
ATOM     36  C3  GCU B   3      21.603  31.156  19.6230  0.00  0.00     0.000 C
ATOM     37  C4  GCU B   3      20.135  30.853  19.8850  0.00  0.00     0.000 C
ATOM     38  C5  GCU B   3      19.868  29.364  19.6570  0.00  0.00     0.000 C
ATOM     39  O5  GCU B   3      20.223  29.038  18.3090  0.00  0.00     0.000 O
ATOM     40   O  GCU B   3      23.369  30.903  17.9950  0.00  0.00     0.000 O
ATOM     42  HD  GCU B   3      24.081  31.245  18.3490  0.00  0.00     0.000 HD
ATOM     42   O  GCU B   3      21.864  32.556  19.8310  0.00  0.00     0.000 O
ATOM     44  HD  GCU B   3      22.577  32.898  20.1850  0.00  0.00     0.000 HD
BRANCH 38 44
ATOM     44   C  GCU B   3      18.422  28.992  19.8730  0.00  0.00     0.000 C
ATOM     45   O  GCU B   3      18.135  28.258  20.8310  0.00  0.00     0.000 OA
ATOM     46   O  GCU B   3      17.550  29.426  19.0960  0.00  0.00     0.000 OA
ENDBRANCH 38 44
BRANCH 34 47
ATOM     47  O3  NAG B   4      21.732  28.970  16.7230  0.00  0.00     0.000 O
BRANCH 47 50
ATOM     48  C1  NAG B   4      20.807  26.807  13.8550  0.00  0.00     0.000 C
ATOM     49  C2  NAG B   4      21.293  27.165  15.2560  0.00  0.00     0.000 C
ATOM     50  C3  NAG B   4      20.886  28.577  15.6440  0.00  0.00     0.000 C
ATOM     51  C4  NAG B   4      21.012  29.592  14.5010  0.00  0.00     0.000 C
ATOM     52  C5  NAG B   4      20.145  29.199  13.3170  0.00  0.00     0.000 C
ATOM     53  O5  NAG B   4      20.173  27.788  13.0080  0.00  0.00     0.000 O
BRANCH 49 56
ATOM     54   N  NAG B   4      20.257  26.361  15.9280  0.00  0.00     0.000 N
ATOM     56  HD  NAG B   4      19.417  26.340  15.7170  0.00  0.00     0.000 HD
ATOM     56   C  NAG B   4      19.244  24.856  17.5410  0.00  0.00     0.000 C
ATOM     57   O  NAG B   4      21.417  25.708  17.7710  0.00  0.00     0.000 OA
ATOM     58   C  NAG B   4      20.403  25.690  17.0880  0.00  0.00     0.000 C
ENDBRANCH 49 56
ATOM     59   O  NAG B   4      19.572  29.983  11.0470  0.00  0.00     0.000 O
ATOM     61  HD  NAG B   4      20.069  29.490  11.5580  0.00  0.00     0.000 HD
ATOM     61   O  NAG B   4      19.572  29.983  11.0470  0.00  0.00     0.000 O
ATOM     63  HD  NAG B   4      20.069  29.490  11.5580  0.00  0.00     0.000 HD
ENDBRANCH 47 50
ENDBRANCH 34 47
ENDBRANCH 33 37
ENDBRANCH 17 33
ENDBRANCH 16 19
ENDBRANCH 1 16
TORSDOF 10
ENDMDL
MODEL 91
REMARK VINA RESULT:      -5.3     15.968     21.802
ROOT
ATOM      1  C1  GCU B   1       9.427  41.223  21.1510  0.00  0.00     0.000 C
ATOM      2  C2  GCU B   1       8.734  41.385  22.4950  0.00  0.00     0.000 C
ATOM      3  C3  GCU B   1       7.375  40.703  22.4780  0.00  0.00     0.000 C
ATOM      4  C4  GCU B   1       6.569  41.166  21.2740  0.00  0.00     0.000 C
ATOM      5  C5  GCU B   1       7.377  41.019  19.9830  0.00  0.00     0.000 C
ATOM      6  O5  GCU B   1       8.599  41.759  20.1070  0.00  0.00     0.000 O
ATOM      7   O  GCU B   1       9.576  40.807  23.4880  0.00  0.00     0.000 O
ATOM      9  HD  GCU B   1       9.843  41.191  24.2170  0.00  0.00     0.000 HD
ATOM      9   O  GCU B   1       6.654  40.986  23.6800  0.00  0.00     0.000 O
ATOM     11  HD  GCU B   1       6.921  41.369  24.4090  0.00  0.00     0.000 HD
ATOM     11   O  GCU B   1       5.376  40.386  21.1890  0.00  0.00     0.000 O
ATOM     13  HD  GCU B   1       5.644  40.770  21.9180  0.00  0.00     0.000 HD
ENDROOT
BRANCH 5 13
ATOM     13   C  GCU B   1       6.549  41.473  18.8050  0.00  0.00     0.000 C
ATOM     14   O  GCU B   1       6.528  42.676  18.4740  0.00  0.00     0.000 OA
ATOM     15   O  GCU B   1       5.923  40.600  18.1730  0.00  0.00     0.000 OA
ENDBRANCH 5 13
BRANCH 1 16
ATOM     16  O3  NAG B   2      10.352  42.020  20.6120  0.00  0.00     0.000 O
BRANCH 16 19
ATOM     17  C1  NAG B   2      13.953  41.324  19.7330  0.00  0.00     0.000 C
ATOM     18  C2  NAG B   2      12.708  41.385  20.6080  0.00  0.00     0.000 C
ATOM     19  C3  NAG B   2      11.492  41.782  19.7730  0.00  0.00     0.000 C
ATOM     20  C4  NAG B   2      11.780  43.061  18.9880  0.00  0.00     0.000 C
ATOM     21  C5  NAG B   2      13.039  42.881  18.1510  0.00  0.00     0.000 C
ATOM     22  O5  NAG B   2      14.136  42.560  19.0240  0.00  0.00     0.000 O
ATOM     23   O  NAG B   2      10.646  43.350  18.1630  0.00  0.00     0.000 O
ATOM     25  HD  NAG B   2      10.806  43.892  18.8190  0.00  0.00     0.000 HD
ATOM     25   C  NAG B   2      13.381  44.118  17.3240  0.00  0.00     0.000 C
ATOM     26   O  NAG B   2      13.895  45.179  18.1450  0.00  0.00     0.000 O
ATOM     28  HD  NAG B   2      14.054  45.721  18.8010  0.00  0.00     0.000 HD
BRANCH 18 30
ATOM     28   N  NAG B   2      13.183  40.978  21.9170  0.00  0.00     0.000 N
ATOM     30  HD  NAG B   2      12.646  40.337  21.6940  0.00  0.00     0.000 HD
ATOM     30   C  NAG B   2      12.717  39.914  22.5820  0.00  0.00     0.000 C
ATOM     31   C  NAG B   2      13.279  39.647  23.9510  0.00  0.00     0.000 C
ATOM     32   O  NAG B   2      11.868  39.184  22.1100  0.00  0.00     0.000 OA
ENDBRANCH 18 30
BRANCH 17 33
ATOM     33  O4  GCU B   3      15.067  40.982  20.5830  0.00  0.00     0.000 O
BRANCH 33 37
ATOM     34  C1  GCU B   3      18.486  38.727  19.8370  0.00  0.00     0.000 C
ATOM     35  C2  GCU B   3      18.407  40.123  19.2180  0.00  0.00     0.000 C
ATOM     36  C3  GCU B   3      17.339  40.931  19.9240  0.00  0.00     0.000 C
ATOM     37  C4  GCU B   3      16.018  40.177  19.8840  0.00  0.00     0.000 C
ATOM     38  C5  GCU B   3      16.192  38.798  20.5250  0.00  0.00     0.000 C
ATOM     39  O5  GCU B   3      17.206  38.087  19.8070  0.00  0.00     0.000 O
ATOM     40   O  GCU B   3      19.679  40.761  19.3520  0.00  0.00     0.000 O
ATOM     42  HD  GCU B   3      20.051  41.497  19.6160  0.00  0.00     0.000 HD
ATOM     42   O  GCU B   3      17.187  42.228  19.3200  0.00  0.00     0.000 O
ATOM     44  HD  GCU B   3      17.559  42.964  19.5840  0.00  0.00     0.000 HD
BRANCH 38 44
ATOM     44   C  GCU B   3      14.926  37.980  20.4990  0.00  0.00     0.000 C
ATOM     45   O  GCU B   3      14.214  38.019  19.4840  0.00  0.00     0.000 OA
ATOM     46   O  GCU B   3      14.620  37.283  21.4850  0.00  0.00     0.000 OA
ENDBRANCH 38 44
BRANCH 34 47
ATOM     47  O3  NAG B   4      19.270  37.969  19.0830  0.00  0.00     0.000 O
BRANCH 47 50
ATOM     48  C1  NAG B   4      19.812  35.638  16.2500  0.00  0.00     0.000 C
ATOM     49  C2  NAG B   4      19.231  36.156  17.5620  0.00  0.00     0.000 C
ATOM     50  C3  NAG B   4      19.418  37.658  17.6990  0.00  0.00     0.000 C
ATOM     51  C4  NAG B   4      20.782  38.159  17.2080  0.00  0.00     0.000 C
ATOM     52  C5  NAG B   4      20.994  37.827  15.7400  0.00  0.00     0.000 C
ATOM     53  O5  NAG B   4      20.557  36.501  15.3660  0.00  0.00     0.000 O
BRANCH 49 56
ATOM     54   N  NAG B   4      17.822  35.735  17.6460  0.00  0.00     0.000 N
ATOM     56  HD  NAG B   4      17.512  35.106  18.1550  0.00  0.00     0.000 HD
ATOM     56   C  NAG B   4      15.449  35.638  17.1460  0.00  0.00     0.000 C
ATOM     57   O  NAG B   4      16.988  36.826  15.8350  0.00  0.00     0.000 OA
ATOM     58   C  NAG B   4      16.830  36.114  16.8150  0.00  0.00     0.000 C
ENDBRANCH 49 56
ATOM     59   O  NAG B   4      22.693  38.084  13.9680  0.00  0.00     0.000 O
ATOM     61  HD  NAG B   4      22.349  37.603  14.6000  0.00  0.00     0.000 HD
ATOM     61   O  NAG B   4      22.693  38.084  13.9680  0.00  0.00     0.000 O
ATOM     63  HD  NAG B   4      22.349  37.603  14.6000  0.00  0.00     0.000 HD
ENDBRANCH 47 50
ENDBRANCH 34 47
ENDBRANCH 33 37
ENDBRANCH 17 33
ENDBRANCH 16 19
ENDBRANCH 1 16
TORSDOF 10
ENDMDL
MODEL 92
REMARK VINA RESULT:      -5.3     21.689     24.372
ROOT
ATOM      1  C1  GCU B   1      20.053  24.664  35.8750  0.00  0.00     0.000 C
ATOM      2  C2  GCU B   1      21.288  24.911  36.7280  0.00  0.00     0.000 C
ATOM      3  C3  GCU B   1      21.657  26.386  36.7130  0.00  0.00     0.000 C
ATOM      4  C4  GCU B   1      21.747  26.891  35.2810  0.00  0.00     0.000 C
ATOM      5  C5  GCU B   1      20.484  26.539  34.4940  0.00  0.00     0.000 C
ATOM      6  O5  GCU B   1      20.287  25.119  34.5330  0.00  0.00     0.000 O
ATOM      7   O  GCU B   1      20.993  24.478  38.0520  0.00  0.00     0.000 O
ATOM      9  HD  GCU B   1      21.467  23.932  38.5290  0.00  0.00     0.000 HD
ATOM      9   O  GCU B   1      22.904  26.600  37.3800  0.00  0.00     0.000 O
ATOM     11  HD  GCU B   1      23.378  26.054  37.8560  0.00  0.00     0.000 HD
ATOM     11   O  GCU B   1      21.924  28.308  35.3010  0.00  0.00     0.000 O
ATOM     13  HD  GCU B   1      22.398  27.762  35.7780  0.00  0.00     0.000 HD
ENDROOT
BRANCH 5 13
ATOM     13   C  GCU B   1      20.595  27.063  33.0820  0.00  0.00     0.000 C
ATOM     14   O  GCU B   1      21.064  26.344  32.1770  0.00  0.00     0.000 OA
ATOM     15   O  GCU B   1      20.176  28.217  32.8650  0.00  0.00     0.000 OA
ENDBRANCH 5 13
BRANCH 1 16
ATOM     16  O3  NAG B   2      19.701  23.531  35.2630  0.00  0.00     0.000 O
BRANCH 16 19
ATOM     17  C1  NAG B   2      16.455  21.624  35.4960  0.00  0.00     0.000 C
ATOM     18  C2  NAG B   2      17.692  22.357  35.9980  0.00  0.00     0.000 C
ATOM     19  C3  NAG B   2      18.442  22.993  34.8290  0.00  0.00     0.000 C
ATOM     20  C4  NAG B   2      18.719  21.952  33.7450  0.00  0.00     0.000 C
ATOM     21  C5  NAG B   2      17.415  21.291  33.3200  0.00  0.00     0.000 C
ATOM     22  O5  NAG B   2      16.807  20.679  34.4720  0.00  0.00     0.000 O
ATOM     23   O  NAG B   2      19.351  22.608  32.6400  0.00  0.00     0.000 O
ATOM     25  HD  NAG B   2      19.830  22.047  33.0930  0.00  0.00     0.000 HD
ATOM     25   C  NAG B   2      17.612  20.247  32.2240  0.00  0.00     0.000 C
ATOM     26   O  NAG B   2      18.229  19.054  32.7320  0.00  0.00     0.000 O
ATOM     28  HD  NAG B   2      18.708  18.492  33.1850  0.00  0.00     0.000 HD
BRANCH 18 30
ATOM     28   N  NAG B   2      17.032  23.060  37.0820  0.00  0.00     0.000 N
ATOM     30  HD  NAG B   2      17.816  22.888  37.4070  0.00  0.00     0.000 HD
ATOM     30   C  NAG B   2      17.561  23.217  38.3010  0.00  0.00     0.000 C
ATOM     31   C  NAG B   2      16.734  23.931  39.3330  0.00  0.00     0.000 C
ATOM     32   O  NAG B   2      18.668  22.801  38.5780  0.00  0.00     0.000 OA
ENDBRANCH 18 30
BRANCH 17 33
ATOM     33  O4  GCU B   3      15.814  21.018  36.6370  0.00  0.00     0.000 O
BRANCH 33 37
ATOM     34  C1  GCU B   3      11.975  19.479  37.1090  0.00  0.00     0.000 C
ATOM     35  C2  GCU B   3      13.022  18.584  36.4450  0.00  0.00     0.000 C
ATOM     36  C3  GCU B   3      14.408  19.118  36.7410  0.00  0.00     0.000 C
ATOM     37  C4  GCU B   3      14.496  20.575  36.3100  0.00  0.00     0.000 C
ATOM     38  C5  GCU B   3      13.417  21.390  37.0240  0.00  0.00     0.000 C
ATOM     39  O5  GCU B   3      12.137  20.838  36.6960  0.00  0.00     0.000 O
ATOM     40   O  GCU B   3      12.886  17.255  36.9540  0.00  0.00     0.000 O
ATOM     42  HD  GCU B   3      13.342  16.602  37.2950  0.00  0.00     0.000 HD
ATOM     42   O  GCU B   3      15.416  18.341  36.0710  0.00  0.00     0.000 O
ATOM     44  HD  GCU B   3      15.872  17.689  36.4120  0.00  0.00     0.000 HD
BRANCH 38 44
ATOM     44   C  GCU B   3      13.426  22.845  36.6260  0.00  0.00     0.000 C
ATOM     45   O  GCU B   3      13.948  23.667  37.3950  0.00  0.00     0.000 OA
ATOM     46   O  GCU B   3      12.920  23.192  35.5420  0.00  0.00     0.000 OA
ENDBRANCH 38 44
BRANCH 34 47
ATOM     47  O3  NAG B   4      10.774  19.124  36.6760  0.00  0.00     0.000 O
BRANCH 47 50
ATOM     48  C1  NAG B   4       7.829  17.184  37.8220  0.00  0.00     0.000 C
ATOM     49  C2  NAG B   4       9.298  17.564  37.6690  0.00  0.00     0.000 C
ATOM     50  C3  NAG B   4       9.456  19.004  37.2090  0.00  0.00     0.000 C
ATOM     51  C4  NAG B   4       8.436  19.429  36.1470  0.00  0.00     0.000 C
ATOM     52  C5  NAG B   4       7.013  19.292  36.6640  0.00  0.00     0.000 C
ATOM     53  O5  NAG B   4       6.775  18.085  37.4220  0.00  0.00     0.000 O
BRANCH 49 56
ATOM     54   N  NAG B   4       9.570  17.765  39.1030  0.00  0.00     0.000 N
ATOM     56  HD  NAG B   4       9.176  18.340  39.6170  0.00  0.00     0.000 HD
ATOM     56   C  NAG B   4      10.628  17.497  41.2710  0.00  0.00     0.000 C
ATOM     57   O  NAG B   4      11.484  16.554  39.3020  0.00  0.00     0.000 OA
ATOM     58   C  NAG B   4      10.599  17.237  39.7960  0.00  0.00     0.000 C
ENDBRANCH 49 56
ATOM     59   O  NAG B   4       4.686  19.628  35.9140  0.00  0.00     0.000 O
ATOM     61  HD  NAG B   4       5.364  19.099  36.0110  0.00  0.00     0.000 HD
ATOM     61   O  NAG B   4       4.686  19.628  35.9140  0.00  0.00     0.000 O
ATOM     63  HD  NAG B   4       5.364  19.099  36.0110  0.00  0.00     0.000 HD
ENDBRANCH 47 50
ENDBRANCH 34 47
ENDBRANCH 33 37
ENDBRANCH 17 33
ENDBRANCH 16 19
ENDBRANCH 1 16
TORSDOF 10
ENDMDL
MODEL 93
REMARK VINA RESULT:      -5.3     15.576     22.709
ROOT
ATOM      1  C1  GCU B   1      10.123  11.971  34.4710  0.00  0.00     0.000 C
ATOM      2  C2  GCU B   1       8.953  11.493  35.3160  0.00  0.00     0.000 C
ATOM      3  C3  GCU B   1       8.589  12.537  36.3610  0.00  0.00     0.000 C
ATOM      4  C4  GCU B   1       9.826  12.951  37.1430  0.00  0.00     0.000 C
ATOM      5  C5  GCU B   1      10.962  13.355  36.2010  0.00  0.00     0.000 C
ATOM      6  O5  GCU B   1      11.248  12.264  35.3160  0.00  0.00     0.000 O
ATOM      7   O  GCU B   1       7.856  11.252  34.4400  0.00  0.00     0.000 O
ATOM      9  HD  GCU B   1       7.389  10.524  34.3940  0.00  0.00     0.000 HD
ATOM      9   O  GCU B   1       7.598  12.028  37.2570  0.00  0.00     0.000 O
ATOM     11  HD  GCU B   1       7.131  11.301  37.2110  0.00  0.00     0.000 HD
ATOM     11   O  GCU B   1       9.489  14.049  37.9920  0.00  0.00     0.000 O
ATOM     13  HD  GCU B   1       9.022  13.321  37.9460  0.00  0.00     0.000 HD
ENDROOT
BRANCH 5 13
ATOM     13   C  GCU B   1      12.170  13.774  37.0040  0.00  0.00     0.000 C
ATOM     14   O  GCU B   1      12.261  14.938  37.4460  0.00  0.00     0.000 OA
ATOM     15   O  GCU B   1      13.041  12.911  37.2230  0.00  0.00     0.000 OA
ENDBRANCH 5 13
BRANCH 1 16
ATOM     16  O3  NAG B   2      11.011  11.222  33.8130  0.00  0.00     0.000 O
BRANCH 16 19
ATOM     17  C1  NAG B   2      11.861  11.123  30.1400  0.00  0.00     0.000 C
ATOM     18  C2  NAG B   2      10.974  11.086  31.3780  0.00  0.00     0.000 C
ATOM     19  C3  NAG B   2      11.788  11.430  32.6240  0.00  0.00     0.000 C
ATOM     20  C4  NAG B   2      13.031  10.545  32.7080  0.00  0.00     0.000 C
ATOM     21  C5  NAG B   2      13.838  10.666  31.4230  0.00  0.00     0.000 C
ATOM     22  O5  NAG B   2      13.009  10.277  30.3140  0.00  0.00     0.000 O
ATOM     23   O  NAG B   2      13.800  10.954  33.8440  0.00  0.00     0.000 O
ATOM     25  HD  NAG B   2      13.424  10.174  33.8810  0.00  0.00     0.000 HD
ATOM     25   C  NAG B   2      15.108   9.818  31.4420  0.00  0.00     0.000 C
ATOM     26   O  NAG B   2      14.814   8.419  31.3050  0.00  0.00     0.000 O
ATOM     28  HD  NAG B   2      14.438   7.640  31.3420  0.00  0.00     0.000 HD
BRANCH 18 30
ATOM     28   N  NAG B   2       9.885  11.903  30.8770  0.00  0.00     0.000 N
ATOM     30  HD  NAG B   2       9.477  11.274  31.3100  0.00  0.00     0.000 HD
ATOM     30   C  NAG B   2       8.592  11.578  30.9970  0.00  0.00     0.000 C
ATOM     31   C  NAG B   2       7.580  12.507  30.3860  0.00  0.00     0.000 C
ATOM     32   O  NAG B   2       8.235  10.571  31.5750  0.00  0.00     0.000 OA
ENDBRANCH 18 30
BRANCH 17 33
ATOM     33  O4  GCU B   3      11.046  10.757  29.0080  0.00  0.00     0.000 O
BRANCH 33 37
ATOM     34  C1  GCU B   3      11.657  11.271  24.9220  0.00  0.00     0.000 C
ATOM     35  C2  GCU B   3      12.389  10.118  25.6100  0.00  0.00     0.000 C
ATOM     36  C3  GCU B   3      11.736   9.827  26.9440  0.00  0.00     0.000 C
ATOM     37  C4  GCU B   3      11.691  11.098  27.7800  0.00  0.00     0.000 C
ATOM     38  C5  GCU B   3      10.940  12.190  27.0150  0.00  0.00     0.000 C
ATOM     39  O5  GCU B   3      11.612  12.420  25.7730  0.00  0.00     0.000 O
ATOM     40   O  GCU B   3      12.329   8.964  24.7680  0.00  0.00     0.000 O
ATOM     42  HD  GCU B   3      12.134   8.121  24.7760  0.00  0.00     0.000 HD
ATOM     42   O  GCU B   3      12.444   8.793  27.6520  0.00  0.00     0.000 O
ATOM     44  HD  GCU B   3      12.248   7.950  27.6600  0.00  0.00     0.000 HD
BRANCH 38 44
ATOM     44   C  GCU B   3      10.877  13.492  27.7730  0.00  0.00     0.000 C
ATOM     45   O  GCU B   3       9.855  13.748  28.4290  0.00  0.00     0.000 OA
ATOM     46   O  GCU B   3      11.842  14.279  27.7310  0.00  0.00     0.000 OA
ENDBRANCH 38 44
BRANCH 34 47
ATOM     47  O3  NAG B   4      12.356  11.650  23.8620  0.00  0.00     0.000 O
BRANCH 47 50
ATOM     48  C1  NAG B   4      15.828  12.242  22.6990  0.00  0.00     0.000 C
ATOM     49  C2  NAG B   4      14.411  11.678  22.6870  0.00  0.00     0.000 C
ATOM     50  C3  NAG B   4      13.485  12.479  23.5880  0.00  0.00     0.000 C
ATOM     51  C4  NAG B   4      14.131  12.913  24.9090  0.00  0.00     0.000 C
ATOM     52  C5  NAG B   4      15.355  13.779  24.6650  0.00  0.00     0.000 C
ATOM     53  O5  NAG B   4      16.201  13.315  23.5900  0.00  0.00     0.000 O
BRANCH 49 56
ATOM     54   N  NAG B   4      13.995  11.616  21.2750  0.00  0.00     0.000 N
ATOM     56  HD  NAG B   4      14.030  10.915  20.7680  0.00  0.00     0.000 HD
ATOM     56   C  NAG B   4      13.193  12.368  19.1110  0.00  0.00     0.000 C
ATOM     57   O  NAG B   4      13.761  13.837  20.8490  0.00  0.00     0.000 OA
ATOM     58   C  NAG B   4      13.684  12.670  20.4940  0.00  0.00     0.000 C
ENDBRANCH 49 56
ATOM     59   O  NAG B   4      17.113  14.971  25.9240  0.00  0.00     0.000 O
ATOM     61  HD  NAG B   4      16.851  14.254  25.5150  0.00  0.00     0.000 HD
ATOM     61   O  NAG B   4      17.113  14.971  25.9240  0.00  0.00     0.000 O
ATOM     63  HD  NAG B   4      16.851  14.254  25.5150  0.00  0.00     0.000 HD
ENDBRANCH 47 50
ENDBRANCH 34 47
ENDBRANCH 33 37
ENDBRANCH 17 33
ENDBRANCH 16 19
ENDBRANCH 1 16
TORSDOF 10
ENDMDL
MODEL 94
REMARK VINA RESULT:      -5.3     16.278     23.081
ROOT
ATOM      1  C1  GCU B   1       9.379  13.001  34.9160  0.00  0.00     0.000 C
ATOM      2  C2  GCU B   1       8.059  12.651  35.5830  0.00  0.00     0.000 C
ATOM      3  C3  GCU B   1       7.660  13.733  36.5750  0.00  0.00     0.000 C
ATOM      4  C4  GCU B   1       8.811  14.022  37.5270  0.00  0.00     0.000 C
ATOM      5  C5  GCU B   1      10.103  14.302  36.7580  0.00  0.00     0.000 C
ATOM      6  O5  GCU B   1      10.398  13.182  35.9130  0.00  0.00     0.000 O
ATOM      7   O  GCU B   1       7.078  12.519  34.5590  0.00  0.00     0.000 O
ATOM      9  HD  GCU B   1       6.549  11.843  34.4420  0.00  0.00     0.000 HD
ATOM      9   O  GCU B   1       6.506  13.335  37.3190  0.00  0.00     0.000 O
ATOM     11  HD  GCU B   1       5.978  12.659  37.2010  0.00  0.00     0.000 HD
ATOM     11   O  GCU B   1       8.472  15.154  38.3300  0.00  0.00     0.000 O
ATOM     13  HD  GCU B   1       7.944  14.478  38.2120  0.00  0.00     0.000 HD
ENDROOT
BRANCH 5 13
ATOM     13   C  GCU B   1      11.223  14.599  37.7270  0.00  0.00     0.000 C
ATOM     14   O  GCU B   1      12.178  13.804  37.8510  0.00  0.00     0.000 OA
ATOM     15   O  GCU B   1      11.163  15.669  38.3620  0.00  0.00     0.000 OA
ENDBRANCH 5 13
BRANCH 1 16
ATOM     16  O3  NAG B   2      10.269  12.161  34.3830  0.00  0.00     0.000 O
BRANCH 16 19
ATOM     17  C1  NAG B   2      11.431  11.577  30.8420  0.00  0.00     0.000 C
ATOM     18  C2  NAG B   2      10.444  11.673  31.9990  0.00  0.00     0.000 C
ATOM     19  C3  NAG B   2      11.135  12.235  33.2400  0.00  0.00     0.000 C
ATOM     20  C4  NAG B   2      12.402  11.439  33.5500  0.00  0.00     0.000 C
ATOM     21  C5  NAG B   2      13.309  11.416  32.3290  0.00  0.00     0.000 C
ATOM     22  O5  NAG B   2      12.594  10.827  31.2280  0.00  0.00     0.000 O
ATOM     23   O  NAG B   2      13.055  12.048  34.6700  0.00  0.00     0.000 O
ATOM     25  HD  NAG B   2      12.709  11.264  34.7930  0.00  0.00     0.000 HD
ATOM     25   C  NAG B   2      14.607  10.648  32.5710  0.00  0.00     0.000 C
ATOM     26   O  NAG B   2      14.384   9.231  32.6210  0.00  0.00     0.000 O
ATOM     28  HD  NAG B   2      14.038   8.446  32.7440  0.00  0.00     0.000 HD
BRANCH 18 30
ATOM     28   N  NAG B   2       9.377  12.309  31.2510  0.00  0.00     0.000 N
ATOM     30  HD  NAG B   2       8.952  11.787  31.7960  0.00  0.00     0.000 HD
ATOM     30   C  NAG B   2       8.085  11.978  31.3660  0.00  0.00     0.000 C
ATOM     31   C  NAG B   2       7.099  12.699  30.4890  0.00  0.00     0.000 C
ATOM     32   O  NAG B   2       7.709  11.125  32.1450  0.00  0.00     0.000 OA
ENDBRANCH 18 30
BRANCH 17 33
ATOM     33  O4  GCU B   3      10.731  11.009  29.7170  0.00  0.00     0.000 O
BRANCH 33 37
ATOM     34  C1  GCU B   3      11.856  10.573  25.7330  0.00  0.00     0.000 C
ATOM     35  C2  GCU B   3      12.441   9.590  26.7480  0.00  0.00     0.000 C
ATOM     36  C3  GCU B   3      11.618   9.622  28.0180  0.00  0.00     0.000 C
ATOM     37  C4  GCU B   3      11.535  11.050  28.5380  0.00  0.00     0.000 C
ATOM     38  C5  GCU B   3      10.938  11.956  27.4600  0.00  0.00     0.000 C
ATOM     39  O5  GCU B   3      11.766  11.885  26.2940  0.00  0.00     0.000 O
ATOM     40   O  GCU B   3      12.427   8.277  26.1820  0.00  0.00     0.000 O
ATOM     42  HD  GCU B   3      12.191   7.462  26.3510  0.00  0.00     0.000 HD
ATOM     42   O  GCU B   3      12.183   8.761  29.0230  0.00  0.00     0.000 O
ATOM     44  HD  GCU B   3      11.947   7.945  29.1920  0.00  0.00     0.000 HD
BRANCH 38 44
ATOM     44   C  GCU B   3      10.847  13.397  27.8950  0.00  0.00     0.000 C
ATOM     45   O  GCU B   3      11.816  14.143  27.6850  0.00  0.00     0.000 OA
ATOM     46   O  GCU B   3       9.812  13.811  28.4500  0.00  0.00     0.000 OA
ENDBRANCH 38 44
BRANCH 34 47
ATOM     47  O3  NAG B   4      12.697  10.687  24.7150  0.00  0.00     0.000 O
BRANCH 47 50
ATOM     48  C1  NAG B   4      14.761  13.752  25.0390  0.00  0.00     0.000 C
ATOM     49  C2  NAG B   4      14.102  12.442  25.4570  0.00  0.00     0.000 C
ATOM     50  C3  NAG B   4      13.665  11.627  24.2510  0.00  0.00     0.000 C
ATOM     51  C4  NAG B   4      13.057  12.470  23.1240  0.00  0.00     0.000 C
ATOM     52  C5  NAG B   4      14.047  13.504  22.6140  0.00  0.00     0.000 C
ATOM     53  O5  NAG B   4      14.799  14.165  23.6570  0.00  0.00     0.000 O
BRANCH 49 56
ATOM     54   N  NAG B   4      15.206  11.926  26.2850  0.00  0.00     0.000 N
ATOM     56  HD  NAG B   4      15.559  12.329  26.9660  0.00  0.00     0.000 HD
ATOM     56   C  NAG B   4      16.978  10.448  27.0390  0.00  0.00     0.000 C
ATOM     57   O  NAG B   4      15.880  10.189  24.9830  0.00  0.00     0.000 OA
ATOM     58   C  NAG B   4      15.972  10.852  26.0060  0.00  0.00     0.000 C
ENDBRANCH 49 56
ATOM     59   O  NAG B   4      14.197  15.322  20.9510  0.00  0.00     0.000 O
ATOM     61  HD  NAG B   4      14.026  15.072  21.7620  0.00  0.00     0.000 HD
ATOM     61   O  NAG B   4      14.197  15.322  20.9510  0.00  0.00     0.000 O
ATOM     63  HD  NAG B   4      14.026  15.072  21.7620  0.00  0.00     0.000 HD
ENDBRANCH 47 50
ENDBRANCH 34 47
ENDBRANCH 33 37
ENDBRANCH 17 33
ENDBRANCH 16 19
ENDBRANCH 1 16
TORSDOF 10
ENDMDL
MODEL 95
REMARK VINA RESULT:      -5.3     19.246     22.081
ROOT
ATOM      1  C1  GCU B   1      20.371  23.041  29.4860  0.00  0.00     0.000 C
ATOM      2  C2  GCU B   1      21.127  24.333  29.2180  0.00  0.00     0.000 C
ATOM      3  C3  GCU B   1      20.893  24.800  27.7900  0.00  0.00     0.000 C
ATOM      4  C4  GCU B   1      21.178  23.669  26.8140  0.00  0.00     0.000 C
ATOM      5  C5  GCU B   1      20.418  22.400  27.2060  0.00  0.00     0.000 C
ATOM      6  O5  GCU B   1      20.776  22.034  28.5450  0.00  0.00     0.000 O
ATOM      7   O  GCU B   1      20.663  25.306  30.1500  0.00  0.00     0.000 O
ATOM      9  HD  GCU B   1      21.157  25.788  30.6730  0.00  0.00     0.000 HD
ATOM      9   O  GCU B   1      21.724  25.923  27.4850  0.00  0.00     0.000 O
ATOM     11  HD  GCU B   1      22.218  26.405  28.0080  0.00  0.00     0.000 HD
ATOM     11   O  GCU B   1      20.787  24.081  25.5040  0.00  0.00     0.000 O
ATOM     13  HD  GCU B   1      21.281  24.563  26.0270  0.00  0.00     0.000 HD
ENDROOT
BRANCH 5 13
ATOM     13   C  GCU B   1      20.708  21.301  26.2130  0.00  0.00     0.000 C
ATOM     14   O  GCU B   1      20.362  21.420  25.0200  0.00  0.00     0.000 OA
ATOM     15   O  GCU B   1      21.324  20.300  26.6290  0.00  0.00     0.000 OA
ENDBRANCH 5 13
BRANCH 1 16
ATOM     16  O3  NAG B   2      20.664  22.098  30.3840  0.00  0.00     0.000 O
BRANCH 16 19
ATOM     17  C1  NAG B   2      18.841  20.701  33.3760  0.00  0.00     0.000 C
ATOM     18  C2  NAG B   2      19.517  21.756  32.5100  0.00  0.00     0.000 C
ATOM     19  C3  NAG B   2      19.867  21.175  31.1420  0.00  0.00     0.000 C
ATOM     20  C4  NAG B   2      20.662  19.879  31.3010  0.00  0.00     0.000 C
ATOM     21  C5  NAG B   2      19.889  18.904  32.1770  0.00  0.00     0.000 C
ATOM     22  O5  NAG B   2      19.650  19.517  33.4570  0.00  0.00     0.000 O
ATOM     23   O  NAG B   2      20.898  19.332  29.9990  0.00  0.00     0.000 O
ATOM     25  HD  NAG B   2      21.585  19.633  30.4320  0.00  0.00     0.000 HD
ATOM     25   C  NAG B   2      20.618  17.576  32.3680  0.00  0.00     0.000 C
ATOM     26   O  NAG B   2      21.745  17.711  33.2480  0.00  0.00     0.000 O
ATOM     28  HD  NAG B   2      22.432  18.012  33.6810  0.00  0.00     0.000 HD
BRANCH 18 30
ATOM     28   N  NAG B   2      18.569  22.809  32.8220  0.00  0.00     0.000 N
ATOM     30  HD  NAG B   2      19.311  23.240  32.7060  0.00  0.00     0.000 HD
ATOM     30   C  NAG B   2      18.909  24.091  33.0030  0.00  0.00     0.000 C
ATOM     31   C  NAG B   2      17.817  25.057  33.3660  0.00  0.00     0.000 C
ATOM     32   O  NAG B   2      20.057  24.472  32.8840  0.00  0.00     0.000 OA
ENDBRANCH 18 30
BRANCH 17 33
ATOM     33  O4  GCU B   3      18.571  21.298  34.6600  0.00  0.00     0.000 O
BRANCH 33 37
ATOM     34  C1  GCU B   3      15.801  20.281  37.5970  0.00  0.00     0.000 C
ATOM     35  C2  GCU B   3      17.156  19.572  37.6230  0.00  0.00     0.000 C
ATOM     36  C3  GCU B   3      18.150  20.349  36.7870  0.00  0.00     0.000 C
ATOM     37  C4  GCU B   3      17.596  20.544  35.3830  0.00  0.00     0.000 C
ATOM     38  C5  GCU B   3      16.246  21.260  35.4560  0.00  0.00     0.000 C
ATOM     39  O5  GCU B   3      15.355  20.471  36.2510  0.00  0.00     0.000 O
ATOM     40   O  GCU B   3      17.607  19.487  38.9760  0.00  0.00     0.000 O
ATOM     42  HD  GCU B   3      18.295  19.642  39.4790  0.00  0.00     0.000 HD
ATOM     42   O  GCU B   3      19.419  19.673  36.7300  0.00  0.00     0.000 O
ATOM     44  HD  GCU B   3      20.106  19.827  37.2330  0.00  0.00     0.000 HD
BRANCH 38 44
ATOM     44   C  GCU B   3      15.622  21.465  34.0990  0.00  0.00     0.000 C
ATOM     45   O  GCU B   3      15.370  22.622  33.7300  0.00  0.00     0.000 OA
ATOM     46   O  GCU B   3      15.376  20.480  33.3760  0.00  0.00     0.000 OA
ENDBRANCH 38 44
BRANCH 34 47
ATOM     47  O3  NAG B   4      14.895  19.491  38.1550  0.00  0.00     0.000 O
BRANCH 47 50
ATOM     48  C1  NAG B   4      11.458  18.940  39.4360  0.00  0.00     0.000 C
ATOM     49  C2  NAG B   4      12.823  19.605  39.2950  0.00  0.00     0.000 C
ATOM     50  C3  NAG B   4      13.506  19.207  37.9960  0.00  0.00     0.000 C
ATOM     51  C4  NAG B   4      13.326  17.728  37.6320  0.00  0.00     0.000 C
ATOM     52  C5  NAG B   4      11.857  17.374  37.4770  0.00  0.00     0.000 C
ATOM     53  O5  NAG B   4      11.000  17.956  38.4840  0.00  0.00     0.000 O
BRANCH 49 56
ATOM     54   N  NAG B   4      12.674  21.065  39.4240  0.00  0.00     0.000 N
ATOM     56  HD  NAG B   4      12.958  21.545  40.0860  0.00  0.00     0.000 HD
ATOM     56   C  NAG B   4      11.980  23.330  38.8970  0.00  0.00     0.000 C
ATOM     57   O  NAG B   4      11.183  21.446  37.7510  0.00  0.00     0.000 OA
ATOM     58   C  NAG B   4      11.907  21.855  38.6470  0.00  0.00     0.000 C
ENDBRANCH 49 56
ATOM     59   O  NAG B   4      10.422  15.431  36.9640  0.00  0.00     0.000 O
ATOM     61  HD  NAG B   4      10.813  15.928  37.5560  0.00  0.00     0.000 HD
ATOM     61   O  NAG B   4      10.422  15.431  36.9640  0.00  0.00     0.000 O
ATOM     63  HD  NAG B   4      10.813  15.928  37.5560  0.00  0.00     0.000 HD
ENDBRANCH 47 50
ENDBRANCH 34 47
ENDBRANCH 33 37
ENDBRANCH 17 33
ENDBRANCH 16 19
ENDBRANCH 1 16
TORSDOF 10
ENDMDL
MODEL 96
REMARK VINA RESULT:      -5.2     31.713     36.782
ROOT
ATOM      1  C1  GCU B   1       5.353  51.870  11.8840  0.00  0.00     0.000 C
ATOM      2  C2  GCU B   1       5.055  50.379  11.9390  0.00  0.00     0.000 C
ATOM      3  C3  GCU B   1       3.583  50.142  12.2380  0.00  0.00     0.000 C
ATOM      4  C4  GCU B   1       3.163  50.932  13.4680  0.00  0.00     0.000 C
ATOM      5  C5  GCU B   1       3.562  52.403  13.3390  0.00  0.00     0.000 C
ATOM      6  O5  GCU B   1       4.977  52.489  13.1250  0.00  0.00     0.000 O
ATOM      7   O  GCU B   1       5.410  49.821  10.6780  0.00  0.00     0.000 O
ATOM      9  HD  GCU B   1       5.927  49.139  10.5490  0.00  0.00     0.000 HD
ATOM      9   O  GCU B   1       3.329  48.750  12.4480  0.00  0.00     0.000 O
ATOM     11  HD  GCU B   1       3.847  48.068  12.3190  0.00  0.00     0.000 HD
ATOM     11   O  GCU B   1       1.747  50.827  13.6230  0.00  0.00     0.000 O
ATOM     13  HD  GCU B   1       2.264  50.145  13.4940  0.00  0.00     0.000 HD
ENDROOT
BRANCH 5 13
ATOM     13   C  GCU B   1       3.120  53.165  14.5660  0.00  0.00     0.000 C
ATOM     14   O  GCU B   1       2.868  52.559  15.6280  0.00  0.00     0.000 OA
ATOM     15   O  GCU B   1       3.049  54.406  14.4760  0.00  0.00     0.000 OA
ENDBRANCH 5 13
BRANCH 1 16
ATOM     16  O3  NAG B   2       6.520  52.475  12.1170  0.00  0.00     0.000 O
BRANCH 16 19
ATOM     17  C1  NAG B   2       8.202  54.566   9.4660  0.00  0.00     0.000 C
ATOM     18  C2  NAG B   2       7.344  53.443  10.0340  0.00  0.00     0.000 C
ATOM     19  C3  NAG B   2       7.170  53.619  11.5410  0.00  0.00     0.000 C
ATOM     20  C4  NAG B   2       8.531  53.782  12.2180  0.00  0.00     0.000 C
ATOM     21  C5  NAG B   2       9.293  54.931  11.5730  0.00  0.00     0.000 C
ATOM     22  O5  NAG B   2       9.451  54.656  10.1700  0.00  0.00     0.000 O
ATOM     23   O  NAG B   2       8.314  54.022  13.6130  0.00  0.00     0.000 O
ATOM     25  HD  NAG B   2       8.680  53.268  13.3940  0.00  0.00     0.000 HD
ATOM     25   C  NAG B   2      10.660  55.165  12.2120  0.00  0.00     0.000 C
ATOM     26   O  NAG B   2      11.597  54.139  11.8500  0.00  0.00     0.000 O
ATOM     28  HD  NAG B   2      11.963  53.385  11.6300  0.00  0.00     0.000 HD
BRANCH 18 30
ATOM     28   N  NAG B   2       6.191  53.499   9.1560  0.00  0.00     0.000 N
ATOM     30  HD  NAG B   2       6.386  52.656   9.1710  0.00  0.00     0.000 HD
ATOM     30   C  NAG B   2       5.720  52.448   8.4740  0.00  0.00     0.000 C
ATOM     31   C  NAG B   2       4.542  52.676   7.5680  0.00  0.00     0.000 C
ATOM     32   O  NAG B   2       6.219  51.345   8.5720  0.00  0.00     0.000 OA
ENDBRANCH 18 30
BRANCH 17 33
ATOM     33  O4  GCU B   3       8.358  54.324   8.0530  0.00  0.00     0.000 O
BRANCH 33 37
ATOM     34  C1  GCU B   3       9.450  56.880   4.9540  0.00  0.00     0.000 C
ATOM     35  C2  GCU B   3      10.569  56.267   5.7960  0.00  0.00     0.000 C
ATOM     36  C3  GCU B   3      10.034  55.075   6.5610  0.00  0.00     0.000 C
ATOM     37  C4  GCU B   3       8.822  55.495   7.3800  0.00  0.00     0.000 C
ATOM     38  C5  GCU B   3       7.758  56.092   6.4560  0.00  0.00     0.000 C
ATOM     39  O5  GCU B   3       8.326  57.214   5.7730  0.00  0.00     0.000 O
ATOM     40   O  GCU B   3      11.632  55.863   4.9310  0.00  0.00     0.000 O
ATOM     42  HD  GCU B   3      12.149  55.192   4.7480  0.00  0.00     0.000 HD
ATOM     42   O  GCU B   3      11.043  54.516   7.4210  0.00  0.00     0.000 O
ATOM     44  HD  GCU B   3      11.560  53.846   7.2380  0.00  0.00     0.000 HD
BRANCH 38 44
ATOM     44   C  GCU B   3       6.533  56.555   7.2020  0.00  0.00     0.000 C
ATOM     45   O  GCU B   3       5.499  55.874   7.1290  0.00  0.00     0.000 OA
ATOM     46   O  GCU B   3       6.579  57.602   7.8760  0.00  0.00     0.000 OA
ENDBRANCH 38 44
BRANCH 34 47
ATOM     47  O3  NAG B   4       9.872  58.034   4.4560  0.00  0.00     0.000 O
BRANCH 47 50
ATOM     48  C1  NAG B   4      11.018  59.680   1.3370  0.00  0.00     0.000 C
ATOM     49  C2  NAG B   4      10.884  58.584   2.3880  0.00  0.00     0.000 C
ATOM     50  C3  NAG B   4       9.669  58.807   3.2750  0.00  0.00     0.000 C
ATOM     51  C4  NAG B   4       9.446  60.274   3.6580  0.00  0.00     0.000 C
ATOM     52  C5  NAG B   4       9.250  61.142   2.4260  0.00  0.00     0.000 C
ATOM     53  O5  NAG B   4      10.147  60.831   1.3370  0.00  0.00     0.000 O
BRANCH 49 56
ATOM     54   N  NAG B   4      10.329  57.571   1.4720  0.00  0.00     0.000 N
ATOM     56  HD  NAG B   4       9.625  57.668   0.9780  0.00  0.00     0.000 HD
ATOM     56   C  NAG B   4      10.071  55.448   0.3260  0.00  0.00     0.000 C
ATOM     57   O  NAG B   4      11.526  55.758   2.1390  0.00  0.00     0.000 OA
ATOM     58   C  NAG B   4      10.702  56.278   1.4010  0.00  0.00     0.000 C
ENDBRANCH 49 56
ATOM     59   O  NAG B   4       8.859  63.502   1.8160  0.00  0.00     0.000 O
ATOM     61  HD  NAG B   4       9.418  62.855   1.9540  0.00  0.00     0.000 HD
ATOM     61   O  NAG B   4       8.859  63.502   1.8160  0.00  0.00     0.000 O
ATOM     63  HD  NAG B   4       9.418  62.855   1.9540  0.00  0.00     0.000 HD
ENDBRANCH 47 50
ENDBRANCH 34 47
ENDBRANCH 33 37
ENDBRANCH 17 33
ENDBRANCH 16 19
ENDBRANCH 1 16
TORSDOF 10
ENDMDL
MODEL 97
REMARK VINA RESULT:      -5.2     20.945     25.521
ROOT
ATOM      1  C1  GCU B   1       4.566  26.137  34.2760  0.00  0.00     0.000 C
ATOM      2  C2  GCU B   1       3.873  24.784  34.2020  0.00  0.00     0.000 C
ATOM      3  C3  GCU B   1       2.379  24.938  34.4430  0.00  0.00     0.000 C
ATOM      4  C4  GCU B   1       2.132  25.723  35.7220  0.00  0.00     0.000 C
ATOM      5  C5  GCU B   1       2.920  27.034  35.7240  0.00  0.00     0.000 C
ATOM      6  O5  GCU B   1       4.314  26.745  35.5530  0.00  0.00     0.000 O
ATOM      7   O  GCU B   1       4.122  24.242  32.9090  0.00  0.00     0.000 O
ATOM      9  HD  GCU B   1       4.440  23.455  32.7370  0.00  0.00     0.000 HD
ATOM      9   O  GCU B   1       1.749  23.657  34.5320  0.00  0.00     0.000 O
ATOM     11  HD  GCU B   1       2.068  22.870  34.3610  0.00  0.00     0.000 HD
ATOM     11   O  GCU B   1       0.735  25.998  35.8320  0.00  0.00     0.000 O
ATOM     13  HD  GCU B   1       1.054  25.211  35.6610  0.00  0.00     0.000 HD
ENDROOT
BRANCH 5 13
ATOM     13   C  GCU B   1       2.644  27.797  36.9970  0.00  0.00     0.000 C
ATOM     14   O  GCU B   1       2.645  29.046  36.9970  0.00  0.00     0.000 OA
ATOM     15   O  GCU B   1       2.392  27.134  38.0210  0.00  0.00     0.000 OA
ENDBRANCH 5 13
BRANCH 1 16
ATOM     16  O3  NAG B   2       5.840  26.381  34.5870  0.00  0.00     0.000 O
BRANCH 16 19
ATOM     17  C1  NAG B   2       8.394  28.480  32.7680  0.00  0.00     0.000 C
ATOM     18  C2  NAG B   2       7.321  27.412  32.9440  0.00  0.00     0.000 C
ATOM     19  C3  NAG B   2       6.719  27.491  34.3460  0.00  0.00     0.000 C
ATOM     20  C4  NAG B   2       7.824  27.460  35.4010  0.00  0.00     0.000 C
ATOM     21  C5  NAG B   2       8.830  28.569  35.1270  0.00  0.00     0.000 C
ATOM     22  O5  NAG B   2       9.378  28.385  33.8100  0.00  0.00     0.000 O
ATOM     23   O  NAG B   2       7.221  27.615  36.6910  0.00  0.00     0.000 O
ATOM     25  HD  NAG B   2       7.576  26.846  36.5100  0.00  0.00     0.000 HD
ATOM     25   C  NAG B   2       9.959  28.609  36.1560  0.00  0.00     0.000 C
ATOM     26   O  NAG B   2      10.879  27.522  35.9770  0.00  0.00     0.000 O
ATOM     28  HD  NAG B   2      11.234  26.753  35.7970  0.00  0.00     0.000 HD
BRANCH 18 30
ATOM     28   N  NAG B   2       6.643  27.672  31.6880  0.00  0.00     0.000 N
ATOM     30  HD  NAG B   2       6.558  26.816  31.7850  0.00  0.00     0.000 HD
ATOM     30   C  NAG B   2       6.164  26.713  30.8860  0.00  0.00     0.000 C
ATOM     31   C  NAG B   2       5.526  27.140  29.5940  0.00  0.00     0.000 C
ATOM     32   O  NAG B   2       6.239  25.537  31.1790  0.00  0.00     0.000 OA
ENDBRANCH 18 30
BRANCH 17 33
ATOM     33  O4  GCU B   3       8.945  28.330  31.4440  0.00  0.00     0.000 O
BRANCH 33 37
ATOM     34  C1  GCU B   3      11.647  30.698  29.3420  0.00  0.00     0.000 C
ATOM     35  C2  GCU B   3      12.217  29.649  30.2980  0.00  0.00     0.000 C
ATOM     36  C3  GCU B   3      11.146  28.631  30.6300  0.00  0.00     0.000 C
ATOM     37  C4  GCU B   3       9.916  29.342  31.1750  0.00  0.00     0.000 C
ATOM     38  C5  GCU B   3       9.418  30.366  30.1530  0.00  0.00     0.000 C
ATOM     39  O5  GCU B   3      10.472  31.299  29.8920  0.00  0.00     0.000 O
ATOM     40   O  GCU B   3      13.331  29.009  29.6730  0.00  0.00     0.000 O
ATOM     42  HD  GCU B   3      13.660  28.228  29.4940  0.00  0.00     0.000 HD
ATOM     42   O  GCU B   3      11.626  27.669  31.5860  0.00  0.00     0.000 O
ATOM     44  HD  GCU B   3      11.955  26.888  31.4070  0.00  0.00     0.000 HD
BRANCH 38 44
ATOM     44   C  GCU B   3       8.211  31.131  30.6360  0.00  0.00     0.000 C
ATOM     45   O  GCU B   3       8.388  32.209  31.2230  0.00  0.00     0.000 OA
ATOM     46   O  GCU B   3       7.070  30.674  30.4370  0.00  0.00     0.000 OA
ENDBRANCH 38 44
BRANCH 34 47
ATOM     47  O3  NAG B   4      12.521  31.688  29.2240  0.00  0.00     0.000 O
BRANCH 47 50
ATOM     48  C1  NAG B   4      12.796  34.015  26.3490  0.00  0.00     0.000 C
ATOM     49  C2  NAG B   4      12.390  33.522  27.7340  0.00  0.00     0.000 C
ATOM     50  C3  NAG B   4      13.237  32.340  28.1770  0.00  0.00     0.000 C
ATOM     51  C4  NAG B   4      13.528  31.335  27.0560  0.00  0.00     0.000 C
ATOM     52  C5  NAG B   4      14.269  31.994  25.9040  0.00  0.00     0.000 C
ATOM     53  O5  NAG B   4      13.773  33.306  25.5580  0.00  0.00     0.000 O
BRANCH 49 56
ATOM     54   N  NAG B   4      13.043  34.648  28.4260  0.00  0.00     0.000 N
ATOM     56  HD  NAG B   4      13.822  34.975  28.2360  0.00  0.00     0.000 HD
ATOM     56   C  NAG B   4      13.395  36.414  30.0530  0.00  0.00     0.000 C
ATOM     57   O  NAG B   4      11.678  34.826  30.2350  0.00  0.00     0.000 OA
ATOM     58   C  NAG B   4      12.632  35.215  29.5780  0.00  0.00     0.000 C
ENDBRANCH 49 56
ATOM     59   O  NAG B   4      15.195  31.438  23.6840  0.00  0.00     0.000 O
ATOM     61  HD  NAG B   4      14.533  31.733  24.1580  0.00  0.00     0.000 HD
ATOM     61   O  NAG B   4      15.195  31.438  23.6840  0.00  0.00     0.000 O
ATOM     63  HD  NAG B   4      14.533  31.733  24.1580  0.00  0.00     0.000 HD
ENDBRANCH 47 50
ENDBRANCH 34 47
ENDBRANCH 33 37
ENDBRANCH 17 33
ENDBRANCH 16 19
ENDBRANCH 1 16
TORSDOF 10
ENDMDL
MODEL 98
REMARK VINA RESULT:      -5.2      8.862     12.731
ROOT
ATOM      1  C1  GCU B   1      21.697  30.372  13.3880  0.00  0.00     0.000 C
ATOM      2  C2  GCU B   1      21.448  29.635  12.0820  0.00  0.00     0.000 C
ATOM      3  C3  GCU B   1      22.721  29.578  11.2520  0.00  0.00     0.000 C
ATOM      4  C4  GCU B   1      23.317  30.970  11.1080  0.00  0.00     0.000 C
ATOM      5  C5  GCU B   1      23.469  31.647  12.4710  0.00  0.00     0.000 C
ATOM      6  O5  GCU B   1      22.190  31.694  13.1180  0.00  0.00     0.000 O
ATOM      7   O  GCU B   1      20.997  28.323  12.4040  0.00  0.00     0.000 O
ATOM      9  HD  GCU B   1      20.281  27.940  12.1020  0.00  0.00     0.000 HD
ATOM      9   O  GCU B   1      22.456  29.028   9.9590  0.00  0.00     0.000 O
ATOM     11  HD  GCU B   1      21.740  28.645   9.6560  0.00  0.00     0.000 HD
ATOM     11   O  GCU B   1      24.593  30.863  10.4760  0.00  0.00     0.000 O
ATOM     13  HD  GCU B   1      23.877  30.479  10.1730  0.00  0.00     0.000 HD
ENDROOT
BRANCH 5 13
ATOM     13   C  GCU B   1      24.074  33.019  12.2980  0.00  0.00     0.000 C
ATOM     14   O  GCU B   1      24.825  33.493  13.1750  0.00  0.00     0.000 OA
ATOM     15   O  GCU B   1      23.816  33.632  11.2440  0.00  0.00     0.000 OA
ENDBRANCH 5 13
BRANCH 1 16
ATOM     16  O3  NAG B   2      20.805  31.028  14.1350  0.00  0.00     0.000 O
BRANCH 16 19
ATOM     17  C1  NAG B   2      19.657  30.487  17.6870  0.00  0.00     0.000 C
ATOM     18  C2  NAG B   2      19.944  30.130  16.2340  0.00  0.00     0.000 C
ATOM     19  C3  NAG B   2      20.688  31.272  15.5450  0.00  0.00     0.000 C
ATOM     20  C4  NAG B   2      19.938  32.590  15.7390  0.00  0.00     0.000 C
ATOM     21  C5  NAG B   2      19.712  32.842  17.2220  0.00  0.00     0.000 C
ATOM     22  O5  NAG B   2      18.965  31.743  17.7730  0.00  0.00     0.000 O
ATOM     23   O  NAG B   2      20.709  33.640  15.1450  0.00  0.00     0.000 O
ATOM     25  HD  NAG B   2      19.958  33.438  14.7650  0.00  0.00     0.000 HD
ATOM     25   C  NAG B   2      18.979  34.154  17.4940  0.00  0.00     0.000 C
ATOM     26   O  NAG B   2      17.589  34.067  17.1410  0.00  0.00     0.000 O
ATOM     28  HD  NAG B   2      16.838  33.866  16.7610  0.00  0.00     0.000 HD
BRANCH 18 30
ATOM     28   N  NAG B   2      19.430  28.778  16.1220  0.00  0.00     0.000 N
ATOM     30  HD  NAG B   2      20.280  28.678  15.9880  0.00  0.00     0.000 HD
ATOM     30   C  NAG B   2      20.171  27.727  15.7510  0.00  0.00     0.000 C
ATOM     31   C  NAG B   2      19.483  26.395  15.6380  0.00  0.00     0.000 C
ATOM     32   O  NAG B   2      21.356  27.832  15.5080  0.00  0.00     0.000 OA
ENDBRANCH 18 30
BRANCH 17 33
ATOM     33  O4  GCU B   3      18.925  29.389  18.2690  0.00  0.00     0.000 O
BRANCH 33 37
ATOM     34  C1  GCU B   3      18.532  28.187  22.2350  0.00  0.00     0.000 C
ATOM     35  C2  GCU B   3      17.572  29.261  21.7210  0.00  0.00     0.000 C
ATOM     36  C3  GCU B   3      17.573  29.257  20.2070  0.00  0.00     0.000 C
ATOM     37  C4  GCU B   3      18.997  29.424  19.6950  0.00  0.00     0.000 C
ATOM     38  C5  GCU B   3      19.879  28.308  20.2590  0.00  0.00     0.000 C
ATOM     39  O5  GCU B   3      19.840  28.374  21.6880  0.00  0.00     0.000 O
ATOM     40   O  GCU B   3      16.260  28.984  22.2150  0.00  0.00     0.000 O
ATOM     42  HD  GCU B   3      15.436  28.904  21.9620  0.00  0.00     0.000 HD
ATOM     42   O  GCU B   3      16.734  30.304  19.6860  0.00  0.00     0.000 O
ATOM     44  HD  GCU B   3      15.910  30.224  19.4330  0.00  0.00     0.000 HD
BRANCH 38 44
ATOM     44   C  GCU B   3      21.316  28.422  19.8140  0.00  0.00     0.000 C
ATOM     45   O  GCU B   3      22.058  29.222  20.4040  0.00  0.00     0.000 OA
ATOM     46   O  GCU B   3      21.730  27.717  18.8740  0.00  0.00     0.000 OA
ENDBRANCH 38 44
BRANCH 34 47
ATOM     47  O3  NAG B   4      18.678  28.337  23.5440  0.00  0.00     0.000 O
BRANCH 47 50
ATOM     48  C1  NAG B   4      19.832  27.634  26.9980  0.00  0.00     0.000 C
ATOM     49  C2  NAG B   4      19.187  28.410  25.8550  0.00  0.00     0.000 C
ATOM     50  C3  NAG B   4      18.842  27.500  24.6870  0.00  0.00     0.000 C
ATOM     51  C4  NAG B   4      19.911  26.441  24.3940  0.00  0.00     0.000 C
ATOM     52  C5  NAG B   4      20.137  25.539  25.5960  0.00  0.00     0.000 C
ATOM     53  O5  NAG B   4      20.172  26.239  26.8600  0.00  0.00     0.000 O
BRANCH 49 56
ATOM     54   N  NAG B   4      17.839  28.509  26.4420  0.00  0.00     0.000 N
ATOM     56  HD  NAG B   4      17.320  27.842  26.6310  0.00  0.00     0.000 HD
ATOM     56   C  NAG B   4      15.809  29.521  27.3070  0.00  0.00     0.000 C
ATOM     57   O  NAG B   4      17.484  30.742  26.2090  0.00  0.00     0.000 OA
ATOM     58   C  NAG B   4      17.122  29.640  26.5950  0.00  0.00     0.000 C
ENDBRANCH 49 56
ATOM     59   O  NAG B   4      21.528  23.620  26.2880  0.00  0.00     0.000 O
ATOM     61  HD  NAG B   4      21.413  24.478  26.2520  0.00  0.00     0.000 HD
ATOM     61   O  NAG B   4      21.528  23.620  26.2880  0.00  0.00     0.000 O
ATOM     63  HD  NAG B   4      21.413  24.478  26.2520  0.00  0.00     0.000 HD
ENDBRANCH 47 50
ENDBRANCH 34 47
ENDBRANCH 33 37
ENDBRANCH 17 33
ENDBRANCH 16 19
ENDBRANCH 1 16
TORSDOF 10
ENDMDL
MODEL 99
REMARK VINA RESULT:      -5.2     18.788     24.312
ROOT
ATOM      1  C1  GCU B   1      17.972  48.698   7.3170  0.00  0.00     0.000 C
ATOM      2  C2  GCU B   1      17.486  50.139   7.2740  0.00  0.00     0.000 C
ATOM      3  C3  GCU B   1      16.864  50.450   5.9210  0.00  0.00     0.000 C
ATOM      4  C4  GCU B   1      17.815  50.053   4.8020  0.00  0.00     0.000 C
ATOM      5  C5  GCU B   1      18.292  48.609   4.9720  0.00  0.00     0.000 C
ATOM      6  O5  GCU B   1      18.914  48.468   6.2570  0.00  0.00     0.000 O
ATOM      7   O  GCU B   1      16.532  50.305   8.3170  0.00  0.00     0.000 O
ATOM      9  HD  GCU B   1      16.542  50.921   8.9260  0.00  0.00     0.000 HD
ATOM      9   O  GCU B   1      16.551  51.841   5.8180  0.00  0.00     0.000 O
ATOM     11  HD  GCU B   1      16.561  52.457   6.4270  0.00  0.00     0.000 HD
ATOM     11   O  GCU B   1      17.141  50.195   3.5510  0.00  0.00     0.000 O
ATOM     13  HD  GCU B   1      17.151  50.811   4.1600  0.00  0.00     0.000 HD
ENDROOT
BRANCH 5 13
ATOM     13   C  GCU B   1      19.222  48.239   3.8420  0.00  0.00     0.000 C
ATOM     14   O  GCU B   1      20.020  49.080   3.3790  0.00  0.00     0.000 OA
ATOM     15   O  GCU B   1      19.175  47.067   3.4210  0.00  0.00     0.000 OA
ENDBRANCH 5 13
BRANCH 1 16
ATOM     16  O3  NAG B   2      18.944  48.191   8.0790  0.00  0.00     0.000 O
BRANCH 16 19
ATOM     17  C1  NAG B   2      19.072  45.871  11.0500  0.00  0.00     0.000 C
ATOM     18  C2  NAG B   2      18.727  47.130  10.2650  0.00  0.00     0.000 C
ATOM     19  C3  NAG B   2      19.094  46.954   8.7930  0.00  0.00     0.000 C
ATOM     20  C4  NAG B   2      20.547  46.500   8.6570  0.00  0.00     0.000 C
ATOM     21  C5  NAG B   2      20.771  45.237   9.4770  0.00  0.00     0.000 C
ATOM     22  O5  NAG B   2      20.449  45.511  10.8520  0.00  0.00     0.000 O
ATOM     23   O  NAG B   2      20.821  46.274   7.2700  0.00  0.00     0.000 O
ATOM     25  HD  NAG B   2      21.221  46.943   7.6480  0.00  0.00     0.000 HD
ATOM     25   C  NAG B   2      22.203  44.714   9.3760  0.00  0.00     0.000 C
ATOM     26   O  NAG B   2      23.121  45.538  10.1110  0.00  0.00     0.000 O
ATOM     28  HD  NAG B   2      23.521  46.207  10.4880  0.00  0.00     0.000 HD
BRANCH 18 30
ATOM     28   N  NAG B   2      17.404  47.290  10.8380  0.00  0.00     0.000 N
ATOM     30  HD  NAG B   2      17.660  48.106  10.7020  0.00  0.00     0.000 HD
ATOM     30   C  NAG B   2      16.871  48.474  11.1660  0.00  0.00     0.000 C
ATOM     31   C  NAG B   2      15.505  48.473  11.7940  0.00  0.00     0.000 C
ATOM     32   O  NAG B   2      17.461  49.518  10.9720  0.00  0.00     0.000 OA
ENDBRANCH 18 30
BRANCH 17 33
ATOM     33  O4  GCU B   3      18.737  46.112  12.4310  0.00  0.00     0.000 O
BRANCH 33 37
ATOM     34  C1  GCU B   3      17.646  43.423  15.4160  0.00  0.00     0.000 C
ATOM     35  C2  GCU B   3      19.110  43.860  15.3550  0.00  0.00     0.000 C
ATOM     36  C3  GCU B   3      19.229  45.118  14.5220  0.00  0.00     0.000 C
ATOM     37  C4  GCU B   3      18.610  44.885  13.1510  0.00  0.00     0.000 C
ATOM     38  C5  GCU B   3      17.151  44.456  13.3120  0.00  0.00     0.000 C
ATOM     39  O5  GCU B   3      17.111  43.261  14.0990  0.00  0.00     0.000 O
ATOM     40   O  GCU B   3      19.577  44.100  16.6840  0.00  0.00     0.000 O
ATOM     42  HD  GCU B   3      19.993  44.686  17.1680  0.00  0.00     0.000 HD
ATOM     42   O  GCU B   3      20.604  45.519  14.3830  0.00  0.00     0.000 O
ATOM     44  HD  GCU B   3      21.020  46.104  14.8670  0.00  0.00     0.000 HD
BRANCH 38 44
ATOM     44   C  GCU B   3      16.476  44.181  11.9910  0.00  0.00     0.000 C
ATOM     45   O  GCU B   3      16.816  43.175  11.3490  0.00  0.00     0.000 OA
ATOM     46   O  GCU B   3      15.597  44.957  11.5730  0.00  0.00     0.000 OA
ENDBRANCH 38 44
BRANCH 34 47
ATOM     47  O3  NAG B   4      17.582  42.219  15.9670  0.00  0.00     0.000 O
BRANCH 47 50
ATOM     48  C1  NAG B   4      16.663  40.400  19.0660  0.00  0.00     0.000 C
ATOM     49  C2  NAG B   4      17.259  41.505  18.2010  0.00  0.00     0.000 C
ATOM     50  C3  NAG B   4      16.680  41.488  16.7960  0.00  0.00     0.000 C
ATOM     51  C4  NAG B   4      16.490  40.079  16.2230  0.00  0.00     0.000 C
ATOM     52  C5  NAG B   4      15.554  39.253  17.0900  0.00  0.00     0.000 C
ATOM     53  O5  NAG B   4      15.773  39.410  18.5090  0.00  0.00     0.000 O
BRANCH 49 56
ATOM     54   N  NAG B   4      16.451  42.608  18.7490  0.00  0.00     0.000 N
ATOM     56  HD  NAG B   4      15.588  42.666  18.7200  0.00  0.00     0.000 HD
ATOM     56   C  NAG B   4      15.928  44.729  19.8080  0.00  0.00     0.000 C
ATOM     57   O  NAG B   4      18.099  44.118  19.1650  0.00  0.00     0.000 OA
ATOM     58   C  NAG B   4      16.923  43.787  19.2020  0.00  0.00     0.000 C
ENDBRANCH 49 56
ATOM     59   O  NAG B   4      14.573  36.990  17.1950  0.00  0.00     0.000 O
ATOM     61  HD  NAG B   4      15.205  37.535  17.4250  0.00  0.00     0.000 HD
ATOM     61   O  NAG B   4      14.573  36.990  17.1950  0.00  0.00     0.000 O
ATOM     63  HD  NAG B   4      15.205  37.535  17.4250  0.00  0.00     0.000 HD
ENDBRANCH 47 50
ENDBRANCH 34 47
ENDBRANCH 33 37
ENDBRANCH 17 33
ENDBRANCH 16 19
ENDBRANCH 1 16
TORSDOF 10
ENDMDL
MODEL 100
REMARK VINA RESULT:      -5.2     14.062     21.464
ROOT
ATOM      1  C1  GCU B   1      11.168  12.011  32.8030  0.00  0.00     0.000 C
ATOM      2  C2  GCU B   1       9.745  11.877  33.3250  0.00  0.00     0.000 C
ATOM      3  C3  GCU B   1       9.521  12.813  34.5020  0.00  0.00     0.000 C
ATOM      4  C4  GCU B   1      10.614  12.621  35.5420  0.00  0.00     0.000 C
ATOM      5  C5  GCU B   1      12.002  12.713  34.9050  0.00  0.00     0.000 C
ATOM      6  O5  GCU B   1      12.103  11.739  33.8580  0.00  0.00     0.000 O
ATOM      7   O  GCU B   1       8.860  12.192  32.2550  0.00  0.00     0.000 O
ATOM      9  HD  GCU B   1       8.202  11.703  31.9760  0.00  0.00     0.000 HD
ATOM      9   O  GCU B   1       8.242  12.578  35.0960  0.00  0.00     0.000 O
ATOM     11  HD  GCU B   1       7.583  12.090  34.8170  0.00  0.00     0.000 HD
ATOM     11   O  GCU B   1      10.476  13.625  36.5480  0.00  0.00     0.000 O
ATOM     13  HD  GCU B   1       9.818  13.137  36.2690  0.00  0.00     0.000 HD
ENDROOT
BRANCH 5 13
ATOM     13   C  GCU B   1      13.065  12.533  35.9620  0.00  0.00     0.000 C
ATOM     14   O  GCU B   1      13.685  11.454  36.0560  0.00  0.00     0.000 OA
ATOM     15   O  GCU B   1      13.309  13.505  36.7020  0.00  0.00     0.000 OA
ENDBRANCH 5 13
BRANCH 1 16
ATOM     16  O3  NAG B   2      11.882  11.095  32.1460  0.00  0.00     0.000 O
BRANCH 16 19
ATOM     17  C1  NAG B   2      13.070  10.823  28.5760  0.00  0.00     0.000 C
ATOM     18  C2  NAG B   2      12.068  10.941  29.7180  0.00  0.00     0.000 C
ATOM     19  C3  NAG B   2      12.798  11.163  31.0410  0.00  0.00     0.000 C
ATOM     20  C4  NAG B   2      13.869  10.092  31.2450  0.00  0.00     0.000 C
ATOM     21  C5  NAG B   2      14.809  10.070  30.0490  0.00  0.00     0.000 C
ATOM     22  O5  NAG B   2      14.044   9.806  28.8590  0.00  0.00     0.000 O
ATOM     23   O  NAG B   2      14.575  10.385  32.4550  0.00  0.00     0.000 O
ATOM     25  HD  NAG B   2      14.078   9.676  32.4500  0.00  0.00     0.000 HD
ATOM     25   C  NAG B   2      15.919   9.030  30.1900  0.00  0.00     0.000 C
ATOM     26   O  NAG B   2      15.421   7.695  30.0160  0.00  0.00     0.000 O
ATOM     28  HD  NAG B   2      14.923   6.986  30.0110  0.00  0.00     0.000 HD
BRANCH 18 30
ATOM     28   N  NAG B   2      10.764  10.829  29.0930  0.00  0.00     0.000 N
ATOM     30  HD  NAG B   2      10.789  11.655  29.3500  0.00  0.00     0.000 HD
ATOM     30   C  NAG B   2       9.845  11.803  29.1020  0.00  0.00     0.000 C
ATOM     31   C  NAG B   2       8.522  11.519  28.4500  0.00  0.00     0.000 C
ATOM     32   O  NAG B   2      10.061  12.881  29.6180  0.00  0.00     0.000 OA
ENDBRANCH 18 30
BRANCH 17 33
ATOM     33  O4  GCU B   3      12.324  10.580  27.3660  0.00  0.00     0.000 O
BRANCH 33 37
ATOM     34  C1  GCU B   3      13.183  11.724  23.4560  0.00  0.00     0.000 C
ATOM     35  C2  GCU B   3      13.517  10.289  23.8650  0.00  0.00     0.000 C
ATOM     36  C3  GCU B   3      12.766   9.936  25.1320  0.00  0.00     0.000 C
ATOM     37  C4  GCU B   3      13.078  10.960  26.2130  0.00  0.00     0.000 C
ATOM     38  C5  GCU B   3      12.711  12.360  25.7170  0.00  0.00     0.000 C
ATOM     39  O5  GCU B   3      13.459  12.632  24.5270  0.00  0.00     0.000 O
ATOM     40   O  GCU B   3      13.141   9.407  22.8050  0.00  0.00     0.000 O
ATOM     42  HD  GCU B   3      12.702   8.677  22.6450  0.00  0.00     0.000 HD
ATOM     42   O  GCU B   3      13.112   8.615  25.5870  0.00  0.00     0.000 O
ATOM     44  HD  GCU B   3      12.673   7.886  25.4260  0.00  0.00     0.000 HD
BRANCH 38 44
ATOM     44   C  GCU B   3      13.017  13.435  26.7300  0.00  0.00     0.000 C
ATOM     45   O  GCU B   3      14.203  13.716  26.9580  0.00  0.00     0.000 OA
ATOM     46   O  GCU B   3      12.083  14.019  27.3120  0.00  0.00     0.000 OA
ENDBRANCH 38 44
BRANCH 34 47
ATOM     47  O3  NAG B   4      13.996  12.089  22.4750  0.00  0.00     0.000 O
BRANCH 47 50
ATOM     48  C1  NAG B   4      17.365  12.936  21.1750  0.00  0.00     0.000 C
ATOM     49  C2  NAG B   4      16.124  13.037  22.0560  0.00  0.00     0.000 C
ATOM     50  C3  NAG B   4      15.306  11.757  22.0150  0.00  0.00     0.000 C
ATOM     51  C4  NAG B   4      15.212  11.128  20.6210  0.00  0.00     0.000 C
ATOM     52  C5  NAG B   4      16.589  10.780  20.0790  0.00  0.00     0.000 C
ATOM     53  O5  NAG B   4      17.592  11.791  20.3270  0.00  0.00     0.000 O
BRANCH 49 56
ATOM     54   N  NAG B   4      16.779  12.797  23.3540  0.00  0.00     0.000 N
ATOM     56  HD  NAG B   4      17.152  12.057  23.6030  0.00  0.00     0.000 HD
ATOM     56   C  NAG B   4      17.553  13.215  25.6160  0.00  0.00     0.000 C
ATOM     57   O  NAG B   4      16.082  14.645  24.4790  0.00  0.00     0.000 OA
ATOM     58   C  NAG B   4      16.731  13.611  24.4280  0.00  0.00     0.000 C
ENDBRANCH 49 56
ATOM     59   O  NAG B   4      17.643   9.810  18.0690  0.00  0.00     0.000 O
ATOM     61  HD  NAG B   4      17.379  10.512  18.5020  0.00  0.00     0.000 HD
ATOM     61   O  NAG B   4      17.643   9.810  18.0690  0.00  0.00     0.000 O
ATOM     63  HD  NAG B   4      17.379  10.512  18.5020  0.00  0.00     0.000 HD
ENDBRANCH 47 50
ENDBRANCH 34 47
ENDBRANCH 33 37
ENDBRANCH 17 33
ENDBRANCH 16 19
ENDBRANCH 1 16
TORSDOF 10
ENDMDL
