MODEL 1
REMARK VINA RESULT:      -9.6      0.000      0.000
ROOT
ATOM      1  C1  IDS C   1     153.045  17.632  56.9620  0.00  0.00     0.000 C
ATOM      2  C2  IDS C   1     151.818  17.318  56.1020  0.00  0.00     0.000 C
ATOM      3  C3  IDS C   1     151.233  18.591  55.5090  0.00  0.00     0.000 C
ATOM      4  C4  IDS C   1     150.839  19.565  56.6110  0.00  0.00     0.000 C
ATOM      5  C5  IDS C   1     151.877  19.539  57.7280  0.00  0.00     0.000 C
ATOM      6  O5  IDS C   1     153.115  19.025  57.2370  0.00  0.00     0.000 O
ATOM      7   O  IDS C   1     150.089  18.271  54.7050  0.00  0.00     0.000 O
ATOM      9  HD  IDS C   1     150.241  17.520  54.3030  0.00  0.00     0.000 HD
ENDROOT
BRANCH 2 9
ATOM      9   O  IDS C   1     152.177  16.425  54.9770  0.00  0.00     0.000 O
ATOM     10   S  IDS C   1     151.409  15.039  54.7990  0.00  0.00     0.000 S
ATOM     11   O  IDS C   1     151.974  14.421  53.6210  0.00  0.00     0.000 OA
ATOM     12   O  IDS C   1     151.673  14.290  56.0110  0.00  0.00     0.000 OA
ATOM     13   O  IDS C   1     150.012  15.380  54.6400  0.00  0.00     0.000 OA
ENDBRANCH 2 9
BRANCH 5 14
ATOM     14   C  IDS C   1     152.127  20.920  58.3100  0.00  0.00     0.000 C
ATOM     15   O  IDS C   1     151.509  21.275  59.2840  0.00  0.00     0.000 OA
ATOM     16   O  IDS C   1     152.945  21.658  57.7880  0.00  0.00     0.000 OA
ENDBRANCH 5 14
BRANCH 1 17
ATOM     17  O4  SGN C   2     154.164  16.902  56.9270  0.00  0.00     0.000 O
BRANCH 17 21
ATOM     18  C1  SGN C   2     158.056  16.052  55.6390  0.00  0.00     0.000 C
ATOM     19  C2  SGN C   2     157.494  17.430  55.2660  0.00  0.00     0.000 C
ATOM     20  C3  SGN C   2     156.277  17.750  56.1420  0.00  0.00     0.000 C
ATOM     21  C4  SGN C   2     155.257  16.620  56.0570  0.00  0.00     0.000 C
ATOM     22  C5  SGN C   2     155.930  15.310  56.4540  0.00  0.00     0.000 C
ATOM     23  O5  SGN C   2     157.057  15.056  55.5840  0.00  0.00     0.000 O
ATOM     24   O  SGN C   2     155.704  18.983  55.7410  0.00  0.00     0.000 O
ATOM     26  HD  SGN C   2     155.983  18.381  56.2980  0.00  0.00     0.000 HD
BRANCH 19 28
ATOM     26   N  SGN C   2     158.725  18.177  54.9720  0.00  0.00     0.000 N
ATOM     28  HD  SGN C   2     158.918  17.364  54.7450  0.00  0.00     0.000 HD
ATOM     28   O  SGN C   2     159.813  20.299  54.2410  0.00  0.00     0.000 OA
ATOM     29   S  SGN C   2     158.840  19.186  53.7250  0.00  0.00     0.000 S
ATOM     30   O  SGN C   2     159.469  18.489  52.6700  0.00  0.00     0.000 OA
ATOM     31   O  SGN C   2     157.558  19.765  53.5180  0.00  0.00     0.000 OA
ENDBRANCH 19 28
BRANCH 22 32
ATOM     32   C  SGN C   2     155.018  14.112  56.3480  0.00  0.00     0.000 C
ATOM     33   S  SGN C   2     155.200  11.553  56.1100  0.00  0.00     0.000 S
ATOM     34   O  SGN C   2     155.526  11.637  54.7080  0.00  0.00     0.000 OA
ATOM     35   O  SGN C   2     155.935  10.524  56.8160  0.00  0.00     0.000 OA
ATOM     36   O  SGN C   2     153.783  11.539  56.3860  0.00  0.00     0.000 OA
ATOM     37   O  SGN C   2     155.733  12.928  56.7210  0.00  0.00     0.000 O
ENDBRANCH 22 32
BRANCH 18 38
ATOM     38  O4  IDS C   3     158.824  15.685  56.6670  0.00  0.00     0.000 O
BRANCH 38 42
ATOM     39  C1  IDS C   3     161.518  14.137  58.2400  0.00  0.00     0.000 C
ATOM     40  C2  IDS C   3     160.843  13.499  57.0150  0.00  0.00     0.000 C
ATOM     41  C3  IDS C   3     159.331  13.391  57.2100  0.00  0.00     0.000 C
ATOM     42  C4  IDS C   3     158.745  14.705  57.7080  0.00  0.00     0.000 C
ATOM     43  C5  IDS C   3     159.520  15.186  58.9400  0.00  0.00     0.000 C
ATOM     44  O5  IDS C   3     160.892  15.359  58.5900  0.00  0.00     0.000 O
ATOM     45   O  IDS C   3     159.049  12.351  58.1490  0.00  0.00     0.000 O
ATOM     47  HD  IDS C   3     159.295  12.176  58.9600  0.00  0.00     0.000 HD
BRANCH 40 47
ATOM     47   O  IDS C   3     161.077  14.322  55.8040  0.00  0.00     0.000 O
ATOM     48   S  IDS C   3     160.775  13.713  54.3570  0.00  0.00     0.000 S
ATOM     49   O  IDS C   3     161.881  12.829  54.0590  0.00  0.00     0.000 OA
ATOM     50   O  IDS C   3     160.722  14.853  53.4680  0.00  0.00     0.000 OA
ATOM     51   O  IDS C   3     159.519  13.019  54.4620  0.00  0.00     0.000 OA
ENDBRANCH 40 47
BRANCH 43 52
ATOM     52   C  IDS C   3     158.974  16.477  59.5080  0.00  0.00     0.000 C
ATOM     53   O  IDS C   3     159.018  17.492  58.8510  0.00  0.00     0.000 OA
ATOM     54   O  IDS C   3     158.496  16.488  60.6140  0.00  0.00     0.000 OA
ENDBRANCH 43 52
BRANCH 39 55
ATOM     55  O4  SGN C   4     161.966  13.438  59.2830  0.00  0.00     0.000 O
BRANCH 55 59
ATOM     56  C1  SGN C   4     162.908   9.856  61.2290  0.00  0.00     0.000 C
ATOM     57  C2  SGN C   4     163.531  10.068  59.8390  0.00  0.00     0.000 C
ATOM     58  C3  SGN C   4     163.442  11.534  59.4230  0.00  0.00     0.000 C
ATOM     59  C4  SGN C   4     162.015  12.048  59.5730  0.00  0.00     0.000 C
ATOM     60  C5  SGN C   4     161.551  11.799  61.0060  0.00  0.00     0.000 C
ATOM     61  O5  SGN C   4     161.589  10.379  61.2540  0.00  0.00     0.000 O
ATOM     62   O  SGN C   4     163.887  11.675  58.0810  0.00  0.00     0.000 O
ATOM     64  HD  SGN C   4     164.318  10.986  58.3800  0.00  0.00     0.000 HD
BRANCH 57 66
ATOM     64   N  SGN C   4     163.794   8.625  59.7100  0.00  0.00     0.000 N
ATOM     66  HD  SGN C   4     164.096   8.097  59.0940  0.00  0.00     0.000 HD
ATOM     66   S  SGN C   4     165.230   8.099  59.2550  0.00  0.00     0.000 S
ATOM     67   O  SGN C   4     165.155   6.686  59.1650  0.00  0.00     0.000 OA
ATOM     68   O  SGN C   4     165.606   8.854  58.1100  0.00  0.00     0.000 OA
ATOM     69   O  SGN C   4     166.163   8.494  60.4440  0.00  0.00     0.000 OA
ENDBRANCH 57 66
BRANCH 60 70
ATOM     70   C  SGN C   4     160.143  12.278  61.2850  0.00  0.00     0.000 C
ATOM     71   O  SGN C   4     158.176  11.784  64.4460  0.00  0.00     0.000 OA
ATOM     72   O  SGN C   4     159.338  13.780  63.7290  0.00  0.00     0.000 OA
ATOM     73   O  SGN C   4     159.655  11.721  62.5200  0.00  0.00     0.000 O
ATOM     74   S  SGN C   4     158.598  12.603  63.3330  0.00  0.00     0.000 S
ATOM     75   O  SGN C   4     157.538  12.880  62.3840  0.00  0.00     0.000 OA
ENDBRANCH 60 70
BRANCH 56 76
ATOM     76  O4  IDS C   5     163.363   9.841  62.4950  0.00  0.00     0.000 O
BRANCH 76 80
ATOM     77  C1  IDS C   5     164.507   8.581  66.2050  0.00  0.00     0.000 C
ATOM     78  C2  IDS C   5     165.359   9.711  65.6280  0.00  0.00     0.000 C
ATOM     79  C3  IDS C   5     164.615  10.389  64.4950  0.00  0.00     0.000 C
ATOM     80  C4  IDS C   5     164.440   9.407  63.3390  0.00  0.00     0.000 C
ATOM     81  C5  IDS C   5     164.152   8.008  63.9010  0.00  0.00     0.000 C
ATOM     82  O5  IDS C   5     163.598   8.098  65.2160  0.00  0.00     0.000 O
BRANCH 78 83
ATOM     83   O  IDS C   5     165.657  10.725  66.6660  0.00  0.00     0.000 O
ATOM     84   S  IDS C   5     167.171  11.099  66.9990  0.00  0.00     0.000 S
ATOM     85   O  IDS C   5     167.858   9.848  67.1750  0.00  0.00     0.000 OA
ATOM     86   O  IDS C   5     167.636  11.847  65.8540  0.00  0.00     0.000 OA
ATOM     87   O  IDS C   5     167.122  11.896  68.2000  0.00  0.00     0.000 OA
ENDBRANCH 78 83
BRANCH 81 88
ATOM     88   C  IDS C   5     163.193   7.191  63.0550  0.00  0.00     0.000 C
ATOM     89   O  IDS C   5     162.030   7.133  63.3550  0.00  0.00     0.000 OA
ATOM     90   O  IDS C   5     163.604   6.602  62.0810  0.00  0.00     0.000 OA
ENDBRANCH 81 88
ENDBRANCH 76 80
ENDBRANCH 56 76
ENDBRANCH 55 59
ENDBRANCH 39 55
ENDBRANCH 38 42
ENDBRANCH 18 38
ENDBRANCH 17 21
ENDBRANCH 1 17
TORSDOF 18
ENDMDL
MODEL 2
REMARK VINA RESULT:      -9.3     26.266     31.890
ROOT
ATOM      1  C1  IDS C   1     133.632  32.435  45.7490  0.00  0.00     0.000 C
ATOM      2  C2  IDS C   1     132.461  31.475  45.9800  0.00  0.00     0.000 C
ATOM      3  C3  IDS C   1     131.153  32.095  45.5130  0.00  0.00     0.000 C
ATOM      4  C4  IDS C   1     130.885  33.400  46.2490  0.00  0.00     0.000 C
ATOM      5  C5  IDS C   1     132.185  34.178  46.4270  0.00  0.00     0.000 C
ATOM      6  O5  IDS C   1     133.151  33.743  45.4700  0.00  0.00     0.000 O
ATOM      7   O  IDS C   1     130.074  31.177  45.7350  0.00  0.00     0.000 O
ATOM      9  HD  IDS C   1     130.364  30.374  45.5850  0.00  0.00     0.000 HD
ENDROOT
BRANCH 2 9
ATOM      9   O  IDS C   1     132.654  30.217  45.2230  0.00  0.00     0.000 O
ATOM     10   S  IDS C   1     132.792  28.839  46.0140  0.00  0.00     0.000 S
ATOM     11   O  IDS C   1     132.952  27.817  45.0040  0.00  0.00     0.000 OA
ATOM     12   O  IDS C   1     133.961  28.989  46.8560  0.00  0.00     0.000 OA
ATOM     13   O  IDS C   1     131.568  28.694  46.7700  0.00  0.00     0.000 OA
ENDBRANCH 2 9
BRANCH 5 14
ATOM     14   C  IDS C   1     131.985  35.675  46.2640  0.00  0.00     0.000 C
ATOM     15   O  IDS C   1     132.935  36.378  46.0170  0.00  0.00     0.000 OA
ATOM     16   O  IDS C   1     130.870  36.153  46.3850  0.00  0.00     0.000 OA
ENDBRANCH 5 14
BRANCH 1 17
ATOM     17  O4  SGN C   2     134.812  32.040  45.2630  0.00  0.00     0.000 O
BRANCH 17 21
ATOM     18  C1  SGN C   2     137.661  32.026  42.1950  0.00  0.00     0.000 C
ATOM     19  C2  SGN C   2     136.347  32.763  41.9090  0.00  0.00     0.000 C
ATOM     20  C3  SGN C   2     135.611  33.044  43.2250  0.00  0.00     0.000 C
ATOM     21  C4  SGN C   2     135.437  31.752  44.0150  0.00  0.00     0.000 C
ATOM     22  C5  SGN C   2     136.807  31.117  44.2390  0.00  0.00     0.000 C
ATOM     23  O5  SGN C   2     137.442  30.863  42.9650  0.00  0.00     0.000 O
ATOM     24   O  SGN C   2     134.356  33.647  42.9570  0.00  0.00     0.000 O
ATOM     26  HD  SGN C   2     135.108  33.530  43.3700  0.00  0.00     0.000 HD
BRANCH 19 28
ATOM     26   N  SGN C   2     136.728  33.608  40.7680  0.00  0.00     0.000 N
ATOM     28  HD  SGN C   2     137.187  32.883  40.6500  0.00  0.00     0.000 HD
ATOM     28   O  SGN C   2     136.101  35.345  39.0920  0.00  0.00     0.000 OA
ATOM     29   S  SGN C   2     135.733  33.890  39.5380  0.00  0.00     0.000 S
ATOM     30   O  SGN C   2     136.078  32.998  38.4980  0.00  0.00     0.000 OA
ATOM     31   O  SGN C   2     134.406  33.895  40.0480  0.00  0.00     0.000 OA
ENDBRANCH 19 28
BRANCH 22 32
ATOM     32   C  SGN C   2     136.743  29.796  44.9660  0.00  0.00     0.000 C
ATOM     33   S  SGN C   2     137.889  28.618  46.9510  0.00  0.00     0.000 S
ATOM     34   O  SGN C   2     139.073  28.327  46.1830  0.00  0.00     0.000 OA
ATOM     35   O  SGN C   2     138.163  28.991  48.3230  0.00  0.00     0.000 OA
ATOM     36   O  SGN C   2     136.844  27.629  46.8220  0.00  0.00     0.000 OA
ATOM     37   O  SGN C   2     137.299  29.940  46.2780  0.00  0.00     0.000 O
ENDBRANCH 22 32
BRANCH 18 38
ATOM     38  O4  IDS C   3     138.832  32.491  42.6360  0.00  0.00     0.000 O
BRANCH 38 42
ATOM     39  C1  IDS C   3     141.881  34.171  42.7380  0.00  0.00     0.000 C
ATOM     40  C2  IDS C   3     141.423  33.438  41.4670  0.00  0.00     0.000 C
ATOM     41  C3  IDS C   3     141.028  31.994  41.7740  0.00  0.00     0.000 C
ATOM     42  C4  IDS C   3     140.099  31.920  42.9780  0.00  0.00     0.000 C
ATOM     43  C5  IDS C   3     140.716  32.683  44.1570  0.00  0.00     0.000 C
ATOM     44  O5  IDS C   3     140.924  34.042  43.7760  0.00  0.00     0.000 O
ATOM     45   O  IDS C   3     142.206  31.225  42.0260  0.00  0.00     0.000 O
ATOM     47  HD  IDS C   3     142.876  31.292  42.5700  0.00  0.00     0.000 HD
BRANCH 40 47
ATOM     47   O  IDS C   3     140.238  34.107  40.8780  0.00  0.00     0.000 O
ATOM     48   S  IDS C   3     140.411  35.497  40.1070  0.00  0.00     0.000 S
ATOM     49   O  IDS C   3     140.561  36.505  41.1340  0.00  0.00     0.000 OA
ATOM     50   O  IDS C   3     139.194  35.663  39.3430  0.00  0.00     0.000 OA
ATOM     51   O  IDS C   3     141.582  35.362  39.2830  0.00  0.00     0.000 OA
ENDBRANCH 40 47
BRANCH 43 52
ATOM     52   C  IDS C   3     139.859  32.630  45.4020  0.00  0.00     0.000 C
ATOM     53   O  IDS C   3     139.805  31.613  46.0540  0.00  0.00     0.000 OA
ATOM     54   O  IDS C   3     139.233  33.603  45.7380  0.00  0.00     0.000 OA
ENDBRANCH 43 52
BRANCH 39 55
ATOM     55  O4  SGN C   4     143.144  34.192  43.1630  0.00  0.00     0.000 O
BRANCH 55 59
ATOM     56  C1  SGN C   4     145.779  35.001  46.3110  0.00  0.00     0.000 C
ATOM     57  C2  SGN C   4     145.814  33.576  45.7340  0.00  0.00     0.000 C
ATOM     58  C3  SGN C   4     145.121  33.524  44.3750  0.00  0.00     0.000 C
ATOM     59  C4  SGN C   4     143.734  34.152  44.4550  0.00  0.00     0.000 C
ATOM     60  C5  SGN C   4     143.868  35.568  45.0110  0.00  0.00     0.000 C
ATOM     61  O5  SGN C   4     144.446  35.484  46.3290  0.00  0.00     0.000 O
ATOM     62   O  SGN C   4     145.036  32.175  43.9350  0.00  0.00     0.000 O
ATOM     64  HD  SGN C   4     145.740  32.195  44.4390  0.00  0.00     0.000 HD
BRANCH 57 66
ATOM     64   N  SGN C   4     146.993  33.526  46.6130  0.00  0.00     0.000 N
ATOM     66  HD  SGN C   4     147.243  33.060  47.3000  0.00  0.00     0.000 HD
ATOM     66   S  SGN C   4     147.775  32.154  46.8450  0.00  0.00     0.000 S
ATOM     67   O  SGN C   4     148.813  32.409  47.7760  0.00  0.00     0.000 OA
ATOM     68   O  SGN C   4     146.799  31.163  47.1400  0.00  0.00     0.000 OA
ATOM     69   O  SGN C   4     148.399  31.842  45.4470  0.00  0.00     0.000 OA
ENDBRANCH 57 66
BRANCH 60 70
ATOM     70   C  SGN C   4     142.551  36.305  45.1290  0.00  0.00     0.000 C
ATOM     71   O  SGN C   4     140.048  36.016  47.9150  0.00  0.00     0.000 OA
ATOM     72   O  SGN C   4     141.669  37.777  47.5650  0.00  0.00     0.000 OA
ATOM     73   O  SGN C   4     141.775  35.779  46.2230  0.00  0.00     0.000 O
ATOM     74   S  SGN C   4     140.791  36.803  46.9570  0.00  0.00     0.000 S
ATOM     75   O  SGN C   4     139.968  37.350  45.8970  0.00  0.00     0.000 OA
ENDBRANCH 60 70
BRANCH 56 76
ATOM     76  O4  IDS C   5     146.598  36.069  46.2870  0.00  0.00     0.000 O
BRANCH 76 80
ATOM     77  C1  IDS C   5     148.452  39.693  45.9990  0.00  0.00     0.000 C
ATOM     78  C2  IDS C   5     147.324  39.476  44.9910  0.00  0.00     0.000 C
ATOM     79  C3  IDS C   5     146.437  38.335  45.4500  0.00  0.00     0.000 C
ATOM     80  C4  IDS C   5     147.230  37.032  45.4300  0.00  0.00     0.000 C
ATOM     81  C5  IDS C   5     148.667  37.304  45.8970  0.00  0.00     0.000 C
ATOM     82  O5  IDS C   5     148.718  38.482  46.7070  0.00  0.00     0.000 O
BRANCH 78 83
ATOM     83   O  IDS C   5     146.492  40.695  44.8650  0.00  0.00     0.000 O
ATOM     84   S  IDS C   5     145.479  40.841  43.6410  0.00  0.00     0.000 S
ATOM     85   O  IDS C   5     146.232  40.510  42.4620  0.00  0.00     0.000 OA
ATOM     86   O  IDS C   5     144.415  39.904  43.9170  0.00  0.00     0.000 OA
ATOM     87   O  IDS C   5     145.031  42.212  43.6660  0.00  0.00     0.000 OA
ENDBRANCH 78 83
BRANCH 81 88
ATOM     88   C  IDS C   5     149.279  36.171  46.7010  0.00  0.00     0.000 C
ATOM     89   O  IDS C   5     149.381  36.270  47.8940  0.00  0.00     0.000 OA
ATOM     90   O  IDS C   5     149.659  35.172  46.1330  0.00  0.00     0.000 OA
ENDBRANCH 81 88
ENDBRANCH 76 80
ENDBRANCH 56 76
ENDBRANCH 55 59
ENDBRANCH 39 55
ENDBRANCH 38 42
ENDBRANCH 18 38
ENDBRANCH 17 21
ENDBRANCH 1 17
TORSDOF 18
ENDMDL
MODEL 3
REMARK VINA RESULT:      -9.2      4.761     10.141
ROOT
ATOM      1  C1  IDS C   1     146.344  21.231  56.5800  0.00  0.00     0.000 C
ATOM      2  C2  IDS C   1     145.759  21.376  57.9880  0.00  0.00     0.000 C
ATOM      3  C3  IDS C   1     144.240  21.431  57.9390  0.00  0.00     0.000 C
ATOM      4  C4  IDS C   1     143.772  22.597  57.0790  0.00  0.00     0.000 C
ATOM      5  C5  IDS C   1     144.673  22.740  55.8560  0.00  0.00     0.000 C
ATOM      6  O5  IDS C   1     145.352  21.510  55.6000  0.00  0.00     0.000 O
ATOM      7   O  IDS C   1     143.716  21.562  59.2680  0.00  0.00     0.000 O
ATOM      9  HD  IDS C   1     144.213  21.097  59.8030  0.00  0.00     0.000 HD
ENDROOT
BRANCH 2 9
ATOM      9   O  IDS C   1     146.137  20.223  58.8360  0.00  0.00     0.000 O
ATOM     10   S  IDS C   1     146.741  20.484  60.2890  0.00  0.00     0.000 S
ATOM     11   O  IDS C   1     146.988  19.176  60.8560  0.00  0.00     0.000 OA
ATOM     12   O  IDS C   1     147.955  21.244  60.0750  0.00  0.00     0.000 OA
ATOM     13   O  IDS C   1     145.731  21.226  61.0090  0.00  0.00     0.000 OA
ENDBRANCH 2 9
BRANCH 5 14
ATOM     14   C  IDS C   1     143.894  23.127  54.6110  0.00  0.00     0.000 C
ATOM     15   O  IDS C   1     144.487  23.525  53.6380  0.00  0.00     0.000 OA
ATOM     16   O  IDS C   1     142.677  23.036  54.6060  0.00  0.00     0.000 OA
ENDBRANCH 5 14
BRANCH 1 17
ATOM     17  O4  SGN C   2     147.351  20.402  56.2920  0.00  0.00     0.000 O
BRANCH 17 21
ATOM     18  C1  SGN C   2     149.108  16.743  55.2650  0.00  0.00     0.000 C
ATOM     19  C2  SGN C   2     147.613  16.896  54.9610  0.00  0.00     0.000 C
ATOM     20  C3  SGN C   2     147.226  18.380  54.9890  0.00  0.00     0.000 C
ATOM     21  C4  SGN C   2     147.658  19.010  56.3090  0.00  0.00     0.000 C
ATOM     22  C5  SGN C   2     149.157  18.797  56.4950  0.00  0.00     0.000 C
ATOM     23  O5  SGN C   2     149.457  17.383  56.4750  0.00  0.00     0.000 O
ATOM     24   O  SGN C   2     145.829  18.518  54.7940  0.00  0.00     0.000 O
ATOM     26  HD  SGN C   2     146.667  18.710  54.6920  0.00  0.00     0.000 HD
BRANCH 19 28
ATOM     26   N  SGN C   2     147.405  15.826  53.9750  0.00  0.00     0.000 N
ATOM     28  HD  SGN C   2     148.012  15.506  54.5020  0.00  0.00     0.000 HD
ATOM     28   O  SGN C   2     145.861  14.599  52.4480  0.00  0.00     0.000 OA
ATOM     29   S  SGN C   2     146.082  14.912  53.9660  0.00  0.00     0.000 S
ATOM     30   O  SGN C   2     146.392  13.708  54.6360  0.00  0.00     0.000 OA
ATOM     31   O  SGN C   2     145.001  15.713  54.4260  0.00  0.00     0.000 OA
ENDBRANCH 19 28
BRANCH 22 32
ATOM     32   C  SGN C   2     149.680  19.335  57.8040  0.00  0.00     0.000 C
ATOM     33   S  SGN C   2     151.809  20.456  58.7280  0.00  0.00     0.000 S
ATOM     34   O  SGN C   2     152.533  19.210  58.7610  0.00  0.00     0.000 OA
ATOM     35   O  SGN C   2     152.615  21.586  58.3140  0.00  0.00     0.000 OA
ATOM     36   O  SGN C   2     151.025  20.713  59.9130  0.00  0.00     0.000 OA
ATOM     37   O  SGN C   2     150.744  20.261  57.5550  0.00  0.00     0.000 O
ENDBRANCH 22 32
BRANCH 18 38
ATOM     38  O4  IDS C   3     150.171  16.933  54.4810  0.00  0.00     0.000 O
BRANCH 38 42
ATOM     39  C1  IDS C   3     153.561  16.581  55.1980  0.00  0.00     0.000 C
ATOM     40  C2  IDS C   3     153.073  17.606  54.1620  0.00  0.00     0.000 C
ATOM     41  C3  IDS C   3     152.164  16.951  53.1220  0.00  0.00     0.000 C
ATOM     42  C4  IDS C   3     151.098  16.091  53.7870  0.00  0.00     0.000 C
ATOM     43  C5  IDS C   3     151.756  15.116  54.7710  0.00  0.00     0.000 C
ATOM     44  O5  IDS C   3     152.474  15.859  55.7540  0.00  0.00     0.000 O
ATOM     45   O  IDS C   3     152.953  16.148  52.2430  0.00  0.00     0.000 O
ATOM     47  HD  IDS C   3     153.515  15.498  52.3470  0.00  0.00     0.000 HD
BRANCH 40 47
ATOM     47   O  IDS C   3     152.294  18.682  54.8200  0.00  0.00     0.000 O
ATOM     48   S  IDS C   3     152.710  20.211  54.6060  0.00  0.00     0.000 S
ATOM     49   O  IDS C   3     153.865  20.431  55.4500  0.00  0.00     0.000 OA
ATOM     50   O  IDS C   3     151.561  20.981  55.0290  0.00  0.00     0.000 OA
ATOM     51   O  IDS C   3     153.006  20.359  53.2060  0.00  0.00     0.000 OA
ENDBRANCH 40 47
BRANCH 43 52
ATOM     52   C  IDS C   3     150.758  14.206  55.4510  0.00  0.00     0.000 C
ATOM     53   O  IDS C   3     150.888  13.936  56.6230  0.00  0.00     0.000 OA
ATOM     54   O  IDS C   3     149.836  13.755  54.8210  0.00  0.00     0.000 OA
ENDBRANCH 43 52
BRANCH 39 55
ATOM     55  O4  SGN C   4     154.675  15.863  55.0590  0.00  0.00     0.000 O
BRANCH 55 59
ATOM     56  C1  SGN C   4     158.747  15.940  54.1020  0.00  0.00     0.000 C
ATOM     57  C2  SGN C   4     158.044  17.303  54.2230  0.00  0.00     0.000 C
ATOM     58  C3  SGN C   4     156.707  17.159  54.9470  0.00  0.00     0.000 C
ATOM     59  C4  SGN C   4     155.868  16.056  54.3130  0.00  0.00     0.000 C
ATOM     60  C5  SGN C   4     156.686  14.766  54.2950  0.00  0.00     0.000 C
ATOM     61  O5  SGN C   4     157.873  14.994  53.5090  0.00  0.00     0.000 O
ATOM     62   O  SGN C   4     156.013  18.399  54.9140  0.00  0.00     0.000 O
ATOM     64  HD  SGN C   4     156.850  18.619  54.8820  0.00  0.00     0.000 HD
BRANCH 57 66
ATOM     64   N  SGN C   4     159.138  18.094  54.8090  0.00  0.00     0.000 N
ATOM     66  HD  SGN C   4     159.940  18.320  54.5760  0.00  0.00     0.000 HD
ATOM     66   S  SGN C   4     159.797  19.296  53.9930  0.00  0.00     0.000 S
ATOM     67   O  SGN C   4     160.851  19.819  54.7840  0.00  0.00     0.000 OA
ATOM     68   O  SGN C   4     160.079  18.807  52.6880  0.00  0.00     0.000 OA
ATOM     69   O  SGN C   4     158.649  20.351  53.8950  0.00  0.00     0.000 OA
ENDBRANCH 57 66
BRANCH 60 70
ATOM     70   C  SGN C   4     155.953  13.587  53.6930  0.00  0.00     0.000 C
ATOM     71   O  SGN C   4     155.190  10.313  55.3680  0.00  0.00     0.000 OA
ATOM     72   O  SGN C   4     153.686  12.173  55.0140  0.00  0.00     0.000 OA
ATOM     73   O  SGN C   4     156.038  12.442  54.5640  0.00  0.00     0.000 O
ATOM     74   S  SGN C   4     154.812  11.416  54.5150  0.00  0.00     0.000 S
ATOM     75   O  SGN C   4     154.690  11.051  53.1180  0.00  0.00     0.000 OA
ENDBRANCH 60 70
BRANCH 56 76
ATOM     76  O4  IDS C   5     159.654  15.258  54.8260  0.00  0.00     0.000 O
BRANCH 76 80
ATOM     77  C1  IDS C   5     160.387  12.718  57.9350  0.00  0.00     0.000 C
ATOM     78  C2  IDS C   5     159.724  14.036  58.3350  0.00  0.00     0.000 C
ATOM     79  C3  IDS C   5     159.107  14.692  57.1160  0.00  0.00     0.000 C
ATOM     80  C4  IDS C   5     160.209  15.093  56.1400  0.00  0.00     0.000 C
ATOM     81  C5  IDS C   5     161.299  14.012  56.1300  0.00  0.00     0.000 C
ATOM     82  O5  IDS C   5     160.764  12.756  56.5590  0.00  0.00     0.000 O
BRANCH 78 83
ATOM     83   O  IDS C   5     158.655  13.802  59.3340  0.00  0.00     0.000 O
ATOM     84   S  IDS C   5     158.815  14.372  60.8150  0.00  0.00     0.000 S
ATOM     85   O  IDS C   5     160.130  13.983  61.2490  0.00  0.00     0.000 OA
ATOM     86   O  IDS C   5     158.658  15.802  60.6890  0.00  0.00     0.000 OA
ATOM     87   O  IDS C   5     157.757  13.763  61.5840  0.00  0.00     0.000 OA
ENDBRANCH 78 83
BRANCH 81 88
ATOM     88   C  IDS C   5     161.940  13.796  54.7710  0.00  0.00     0.000 C
ATOM     89   O  IDS C   5     161.632  12.842  54.1090  0.00  0.00     0.000 OA
ATOM     90   O  IDS C   5     162.758  14.589  54.3630  0.00  0.00     0.000 OA
ENDBRANCH 81 88
ENDBRANCH 76 80
ENDBRANCH 56 76
ENDBRANCH 55 59
ENDBRANCH 39 55
ENDBRANCH 38 42
ENDBRANCH 18 38
ENDBRANCH 17 21
ENDBRANCH 1 17
TORSDOF 18
ENDMDL
MODEL 4
REMARK VINA RESULT:      -9.0      4.367      9.663
ROOT
ATOM      1  C1  IDS C   1     146.408  20.727  56.0740  0.00  0.00     0.000 C
ATOM      2  C2  IDS C   1     145.698  20.914  57.4180  0.00  0.00     0.000 C
ATOM      3  C3  IDS C   1     144.189  20.814  57.2500  0.00  0.00     0.000 C
ATOM      4  C4  IDS C   1     143.687  21.862  56.2670  0.00  0.00     0.000 C
ATOM      5  C5  IDS C   1     144.669  22.006  55.1080  0.00  0.00     0.000 C
ATOM      6  O5  IDS C   1     145.478  20.835  55.0030  0.00  0.00     0.000 O
ATOM      7   O  IDS C   1     143.548  20.988  58.5220  0.00  0.00     0.000 O
ATOM      9  HD  IDS C   1     144.040  20.615  59.1280  0.00  0.00     0.000 HD
ENDROOT
BRANCH 2 9
ATOM      9   O  IDS C   1     146.111  19.868  58.3810  0.00  0.00     0.000 O
ATOM     10   S  IDS C   1     146.584  20.293  59.8440  0.00  0.00     0.000 S
ATOM     11   O  IDS C   1     146.900  19.061  60.5320  0.00  0.00     0.000 OA
ATOM     12   O  IDS C   1     147.741  21.143  59.6470  0.00  0.00     0.000 OA
ATOM     13   O  IDS C   1     145.464  20.993  60.4330  0.00  0.00     0.000 OA
ENDBRANCH 2 9
BRANCH 5 14
ATOM     14   C  IDS C   1     143.962  22.223  53.7820  0.00  0.00     0.000 C
ATOM     15   O  IDS C   1     143.572  23.327  53.4900  0.00  0.00     0.000 OA
ATOM     16   O  IDS C   1     143.792  21.282  53.0250  0.00  0.00     0.000 OA
ENDBRANCH 5 14
BRANCH 1 17
ATOM     17  O4  SGN C   2     147.508  19.983  55.9290  0.00  0.00     0.000 O
BRANCH 17 21
ATOM     18  C1  SGN C   2     149.589  16.468  55.0150  0.00  0.00     0.000 C
ATOM     19  C2  SGN C   2     148.107  16.510  54.6230  0.00  0.00     0.000 C
ATOM     20  C3  SGN C   2     147.610  17.961  54.6250  0.00  0.00     0.000 C
ATOM     21  C4  SGN C   2     147.916  18.618  55.9660  0.00  0.00     0.000 C
ATOM     22  C5  SGN C   2     149.414  18.517  56.2410  0.00  0.00     0.000 C
ATOM     23  O5  SGN C   2     149.818  17.128  56.2420  0.00  0.00     0.000 O
ATOM     24   O  SGN C   2     146.220  17.995  54.3490  0.00  0.00     0.000 O
ATOM     26  HD  SGN C   2     147.047  18.249  54.2950  0.00  0.00     0.000 HD
BRANCH 19 28
ATOM     26   N  SGN C   2     148.036  15.428  53.6310  0.00  0.00     0.000 N
ATOM     28  HD  SGN C   2     148.631  15.151  54.1960  0.00  0.00     0.000 HD
ATOM     28   O  SGN C   2     146.681  14.095  52.0160  0.00  0.00     0.000 OA
ATOM     29   S  SGN C   2     146.784  14.424  53.5440  0.00  0.00     0.000 S
ATOM     30   O  SGN C   2     147.135  13.244  54.2370  0.00  0.00     0.000 OA
ATOM     31   O  SGN C   2     145.623  15.147  53.9310  0.00  0.00     0.000 OA
ENDBRANCH 19 28
BRANCH 22 32
ATOM     32   C  SGN C   2     149.817  19.089  57.5780  0.00  0.00     0.000 C
ATOM     33   S  SGN C   2     151.792  20.377  58.6180  0.00  0.00     0.000 S
ATOM     34   O  SGN C   2     152.614  19.195  58.6900  0.00  0.00     0.000 OA
ATOM     35   O  SGN C   2     152.523  21.572  58.2500  0.00  0.00     0.000 OA
ATOM     36   O  SGN C   2     150.925  20.561  59.7590  0.00  0.00     0.000 OA
ATOM     37   O  SGN C   2     150.813  20.101  57.3880  0.00  0.00     0.000 O
ENDBRANCH 22 32
BRANCH 18 38
ATOM     38  O4  IDS C   3     150.680  16.738  54.2930  0.00  0.00     0.000 O
BRANCH 38 42
ATOM     39  C1  IDS C   3     154.022  16.689  55.2680  0.00  0.00     0.000 C
ATOM     40  C2  IDS C   3     153.529  17.655  54.1790  0.00  0.00     0.000 C
ATOM     41  C3  IDS C   3     152.761  16.911  53.0870  0.00  0.00     0.000 C
ATOM     42  C4  IDS C   3     151.725  15.970  53.6870  0.00  0.00     0.000 C
ATOM     43  C5  IDS C   3     152.387  15.068  54.7360  0.00  0.00     0.000 C
ATOM     44  O5  IDS C   3     152.963  15.883  55.7550  0.00  0.00     0.000 O
ATOM     45   O  IDS C   3     153.680  16.168  52.2840  0.00  0.00     0.000 O
ATOM     47  HD  IDS C   3     154.286  15.570  52.4430  0.00  0.00     0.000 HD
BRANCH 40 47
ATOM     47   O  IDS C   3     152.614  18.667  54.7570  0.00  0.00     0.000 O
ATOM     48   S  IDS C   3     152.842  20.218  54.4420  0.00  0.00     0.000 S
ATOM     49   O  IDS C   3     153.947  20.635  55.2790  0.00  0.00     0.000 OA
ATOM     50   O  IDS C   3     151.601  20.867  54.8030  0.00  0.00     0.000 OA
ATOM     51   O  IDS C   3     153.141  20.309  53.0380  0.00  0.00     0.000 OA
ENDBRANCH 40 47
BRANCH 43 52
ATOM     52   C  IDS C   3     151.421  14.084  55.3570  0.00  0.00     0.000 C
ATOM     53   O  IDS C   3     150.653  13.468  54.6540  0.00  0.00     0.000 OA
ATOM     54   O  IDS C   3     151.422  13.919  56.5500  0.00  0.00     0.000 OA
ENDBRANCH 43 52
BRANCH 39 55
ATOM     55  O4  SGN C   4     155.201  16.068  55.2260  0.00  0.00     0.000 O
BRANCH 55 59
ATOM     56  C1  SGN C   4     158.931  15.190  56.9050  0.00  0.00     0.000 C
ATOM     57  C2  SGN C   4     157.766  15.396  57.8880  0.00  0.00     0.000 C
ATOM     58  C3  SGN C   4     156.425  15.312  57.1640  0.00  0.00     0.000 C
ATOM     59  C4  SGN C   4     156.413  16.234  55.9490  0.00  0.00     0.000 C
ATOM     60  C5  SGN C   4     157.603  15.887  55.0580  0.00  0.00     0.000 C
ATOM     61  O5  SGN C   4     158.811  16.091  55.8160  0.00  0.00     0.000 O
ATOM     62   O  SGN C   4     155.377  15.651  58.0620  0.00  0.00     0.000 O
ATOM     64  HD  SGN C   4     155.999  15.325  58.5680  0.00  0.00     0.000 HD
BRANCH 57 66
ATOM     64   N  SGN C   4     157.575  14.634  59.1330  0.00  0.00     0.000 N
ATOM     66  HD  SGN C   4     158.066  14.137  59.6440  0.00  0.00     0.000 HD
ATOM     66   S  SGN C   4     158.534  14.873  60.3860  0.00  0.00     0.000 S
ATOM     67   O  SGN C   4     158.144  13.962  61.4000  0.00  0.00     0.000 OA
ATOM     68   O  SGN C   4     159.869  14.847  59.8990  0.00  0.00     0.000 OA
ATOM     69   O  SGN C   4     158.195  16.329  60.8400  0.00  0.00     0.000 OA
ENDBRANCH 57 66
BRANCH 60 70
ATOM     70   C  SGN C   4     157.695  16.733  53.8060  0.00  0.00     0.000 C
ATOM     71   O  SGN C   4     158.337  20.429  53.6220  0.00  0.00     0.000 OA
ATOM     72   O  SGN C   4     159.914  18.637  53.2300  0.00  0.00     0.000 OA
ATOM     73   O  SGN C   4     157.743  18.132  54.1440  0.00  0.00     0.000 O
ATOM     74   S  SGN C   4     158.542  19.083  53.1380  0.00  0.00     0.000 S
ATOM     75   O  SGN C   4     157.942  18.838  51.8410  0.00  0.00     0.000 OA
ENDBRANCH 60 70
BRANCH 56 76
ATOM     76  O4  IDS C   5     159.663  14.141  56.4870  0.00  0.00     0.000 O
BRANCH 76 80
ATOM     77  C1  IDS C   5     160.674  10.212  56.0450  0.00  0.00     0.000 C
ATOM     78  C2  IDS C   5     160.408  10.640  57.4880  0.00  0.00     0.000 C
ATOM     79  C3  IDS C   5     159.634  11.944  57.5040  0.00  0.00     0.000 C
ATOM     80  C4  IDS C   5     160.499  13.058  56.9220  0.00  0.00     0.000 C
ATOM     81  C5  IDS C   5     161.316  12.506  55.7450  0.00  0.00     0.000 C
ATOM     82  O5  IDS C   5     160.679  11.353  55.1870  0.00  0.00     0.000 O
BRANCH 78 83
ATOM     83   O  IDS C   5     159.612   9.614  58.2010  0.00  0.00     0.000 O
ATOM     84   S  IDS C   5     159.786   9.429  59.7760  0.00  0.00     0.000 S
ATOM     85   O  IDS C   5     161.203   9.354  60.0120  0.00  0.00     0.000 OA
ATOM     86   O  IDS C   5     159.174  10.597  60.3640  0.00  0.00     0.000 OA
ATOM     87   O  IDS C   5     159.088   8.210  60.1060  0.00  0.00     0.000 OA
ENDBRANCH 78 83
BRANCH 81 88
ATOM     88   C  IDS C   5     161.526  13.502  54.6200  0.00  0.00     0.000 C
ATOM     89   O  IDS C   5     162.319  14.396  54.7510  0.00  0.00     0.000 OA
ATOM     90   O  IDS C   5     160.893  13.389  53.5950  0.00  0.00     0.000 OA
ENDBRANCH 81 88
ENDBRANCH 76 80
ENDBRANCH 56 76
ENDBRANCH 55 59
ENDBRANCH 39 55
ENDBRANCH 38 42
ENDBRANCH 18 38
ENDBRANCH 17 21
ENDBRANCH 1 17
TORSDOF 18
ENDMDL
MODEL 5
REMARK VINA RESULT:      -8.9     26.426     31.819
ROOT
ATOM      1  C1  IDS C   1     147.759  35.206  72.5930  0.00  0.00     0.000 C
ATOM      2  C2  IDS C   1     149.253  35.010  72.3190  0.00  0.00     0.000 C
ATOM      3  C3  IDS C   1     149.993  36.338  72.3870  0.00  0.00     0.000 C
ATOM      4  C4  IDS C   1     149.422  37.323  71.3760  0.00  0.00     0.000 C
ATOM      5  C5  IDS C   1     147.903  37.192  71.3180  0.00  0.00     0.000 C
ATOM      6  O5  IDS C   1     147.417  36.584  72.5150  0.00  0.00     0.000 O
ATOM      7   O  IDS C   1     151.389  36.128  72.1320  0.00  0.00     0.000 O
ATOM      9  HD  IDS C   1     151.620  35.373  72.4870  0.00  0.00     0.000 HD
ENDROOT
BRANCH 2 9
ATOM      9   O  IDS C   1     149.859  34.110  73.3260  0.00  0.00     0.000 O
ATOM     10   S  IDS C   1     150.606  32.786  72.8430  0.00  0.00     0.000 S
ATOM     11   O  IDS C   1     151.091  32.144  74.0450  0.00  0.00     0.000 OA
ATOM     12   O  IDS C   1     149.603  32.003  72.1500  0.00  0.00     0.000 OA
ATOM     13   O  IDS C   1     151.674  33.230  71.9750  0.00  0.00     0.000 OA
ENDBRANCH 2 9
BRANCH 5 14
ATOM     14   C  IDS C   1     147.218  38.538  71.1490  0.00  0.00     0.000 C
ATOM     15   O  IDS C   1     146.062  38.660  71.4710  0.00  0.00     0.000 OA
ATOM     16   O  IDS C   1     147.840  39.480  70.6890  0.00  0.00     0.000 OA
ENDBRANCH 5 14
BRANCH 1 17
ATOM     17  O4  SGN C   2     147.048  34.386  73.3730  0.00  0.00     0.000 O
BRANCH 17 21
ATOM     18  C1  SGN C   2     144.813  33.423  76.7790  0.00  0.00     0.000 C
ATOM     19  C2  SGN C   2     145.110  34.910  76.5500  0.00  0.00     0.000 C
ATOM     20  C3  SGN C   2     145.543  35.136  75.0960  0.00  0.00     0.000 C
ATOM     21  C4  SGN C   2     146.702  34.211  74.7440  0.00  0.00     0.000 C
ATOM     22  C5  SGN C   2     146.285  32.767  75.0080  0.00  0.00     0.000 C
ATOM     23  O5  SGN C   2     145.905  32.614  76.3950  0.00  0.00     0.000 O
ATOM     24   O  SGN C   2     145.901  36.494  74.9050  0.00  0.00     0.000 O
ATOM     26  HD  SGN C   2     145.535  35.735  74.7080  0.00  0.00     0.000 HD
BRANCH 19 28
ATOM     26   N  SGN C   2     144.096  35.545  77.4030  0.00  0.00     0.000 N
ATOM     28  HD  SGN C   2     144.298  34.819  77.8300  0.00  0.00     0.000 HD
ATOM     28   O  SGN C   2     143.046  37.629  78.2850  0.00  0.00     0.000 OA
ATOM     29   S  SGN C   2     144.408  36.857  78.2780  0.00  0.00     0.000 S
ATOM     30   O  SGN C   2     144.693  36.432  79.5950  0.00  0.00     0.000 OA
ATOM     31   O  SGN C   2     145.365  37.632  77.5680  0.00  0.00     0.000 OA
ENDBRANCH 19 28
BRANCH 22 32
ATOM     32   C  SGN C   2     147.386  31.769  74.7450  0.00  0.00     0.000 C
ATOM     33   S  SGN C   2     148.739  29.992  76.0320  0.00  0.00     0.000 S
ATOM     34   O  SGN C   2     149.566  30.985  76.6700  0.00  0.00     0.000 OA
ATOM     35   O  SGN C   2     148.386  28.887  76.8980  0.00  0.00     0.000 OA
ATOM     36   O  SGN C   2     149.214  29.576  74.7330  0.00  0.00     0.000 OA
ATOM     37   O  SGN C   2     147.362  30.749  75.7510  0.00  0.00     0.000 O
ENDBRANCH 22 32
BRANCH 18 38
ATOM     38  O4  IDS C   3     143.741  32.698  76.4510  0.00  0.00     0.000 O
BRANCH 38 42
ATOM     39  C1  IDS C   3     141.206  30.352  76.0090  0.00  0.00     0.000 C
ATOM     40  C2  IDS C   3     142.062  30.825  74.8240  0.00  0.00     0.000 C
ATOM     41  C3  IDS C   3     142.086  32.350  74.7320  0.00  0.00     0.000 C
ATOM     42  C4  IDS C   3     142.385  32.979  76.0860  0.00  0.00     0.000 C
ATOM     43  C5  IDS C   3     141.431  32.412  77.1450  0.00  0.00     0.000 C
ATOM     44  O5  IDS C   3     141.594  30.997  77.2110  0.00  0.00     0.000 O
ATOM     45   O  IDS C   3     140.822  32.815  74.2540  0.00  0.00     0.000 O
ATOM     47  HD  IDS C   3     139.999  32.715  74.5040  0.00  0.00     0.000 HD
BRANCH 40 47
ATOM     47   O  IDS C   3     143.464  30.367  74.9800  0.00  0.00     0.000 O
ATOM     48   S  IDS C   3     143.793  28.802  74.9890  0.00  0.00     0.000 S
ATOM     49   O  IDS C   3     143.414  28.325  76.3020  0.00  0.00     0.000 OA
ATOM     50   O  IDS C   3     145.218  28.711  74.7580  0.00  0.00     0.000 OA
ATOM     51   O  IDS C   3     143.009  28.215  73.9350  0.00  0.00     0.000 OA
ENDBRANCH 40 47
BRANCH 43 52
ATOM     52   C  IDS C   3     141.652  33.014  78.5150  0.00  0.00     0.000 C
ATOM     53   O  IDS C   3     141.693  34.215  78.6460  0.00  0.00     0.000 OA
ATOM     54   O  IDS C   3     141.785  32.291  79.4700  0.00  0.00     0.000 OA
ENDBRANCH 43 52
BRANCH 39 55
ATOM     55  O4  SGN C   4     139.898  30.106  75.9240  0.00  0.00     0.000 O
BRANCH 55 59
ATOM     56  C1  SGN C   4     137.983  28.218  79.1290  0.00  0.00     0.000 C
ATOM     57  C2  SGN C   4     138.912  27.342  78.2710  0.00  0.00     0.000 C
ATOM     58  C3  SGN C   4     139.831  28.208  77.4120  0.00  0.00     0.000 C
ATOM     59  C4  SGN C   4     139.024  29.242  76.6360  0.00  0.00     0.000 C
ATOM     60  C5  SGN C   4     138.183  30.050  77.6230  0.00  0.00     0.000 C
ATOM     61  O5  SGN C   4     137.293  29.144  78.3060  0.00  0.00     0.000 O
ATOM     62   O  SGN C   4     140.571  27.380  76.5250  0.00  0.00     0.000 O
ATOM     64  HD  SGN C   4     140.409  26.874  77.2090  0.00  0.00     0.000 HD
BRANCH 57 66
ATOM     64   N  SGN C   4     138.279  26.074  78.6660  0.00  0.00     0.000 N
ATOM     66  HD  SGN C   4     138.410  25.233  78.5050  0.00  0.00     0.000 HD
ATOM     66   S  SGN C   4     139.145  24.903  79.3180  0.00  0.00     0.000 S
ATOM     67   O  SGN C   4     138.279  23.801  79.5290  0.00  0.00     0.000 OA
ATOM     68   O  SGN C   4     140.301  24.738  78.5060  0.00  0.00     0.000 OA
ATOM     69   O  SGN C   4     139.583  25.491  80.6980  0.00  0.00     0.000 OA
ENDBRANCH 57 66
BRANCH 60 70
ATOM     70   C  SGN C   4     137.339  31.123  76.9700  0.00  0.00     0.000 C
ATOM     71   O  SGN C   4     138.546  34.365  75.5070  0.00  0.00     0.000 OA
ATOM     72   O  SGN C   4     137.940  32.347  74.3200  0.00  0.00     0.000 OA
ATOM     73   O  SGN C   4     138.126  32.303  76.7220  0.00  0.00     0.000 O
ATOM     74   S  SGN C   4     137.699  33.195  75.4650  0.00  0.00     0.000 S
ATOM     75   O  SGN C   4     136.296  33.490  75.6800  0.00  0.00     0.000 OA
ENDBRANCH 60 70
BRANCH 56 76
ATOM     76  O4  IDS C   5     138.022  28.730  80.3730  0.00  0.00     0.000 O
BRANCH 76 80
ATOM     77  C1  IDS C   5     138.239  29.626  84.3490  0.00  0.00     0.000 C
ATOM     78  C2  IDS C   5     137.672  28.240  84.0410  0.00  0.00     0.000 C
ATOM     79  C3  IDS C   5     138.035  27.839  82.6250  0.00  0.00     0.000 C
ATOM     80  C4  IDS C   5     137.340  28.770  81.6360  0.00  0.00     0.000 C
ATOM     81  C5  IDS C   5     137.338  30.199  82.1980  0.00  0.00     0.000 C
ATOM     82  O5  IDS C   5     138.400  30.370  83.1410  0.00  0.00     0.000 O
BRANCH 78 83
ATOM     83   O  IDS C   5     138.225  27.229  84.9720  0.00  0.00     0.000 O
ATOM     84   S  IDS C   5     137.238  26.322  85.8360  0.00  0.00     0.000 S
ATOM     85   O  IDS C   5     136.291  27.225  86.4320  0.00  0.00     0.000 OA
ATOM     86   O  IDS C   5     136.636  25.411  84.8900  0.00  0.00     0.000 OA
ATOM     87   O  IDS C   5     138.071  25.649  86.8020  0.00  0.00     0.000 OA
ENDBRANCH 78 83
BRANCH 81 88
ATOM     88   C  IDS C   5     137.487  31.277  81.1410  0.00  0.00     0.000 C
ATOM     89   O  IDS C   5     138.559  31.787  80.9530  0.00  0.00     0.000 OA
ATOM     90   O  IDS C   5     136.525  31.616  80.4910  0.00  0.00     0.000 OA
ENDBRANCH 81 88
ENDBRANCH 76 80
ENDBRANCH 56 76
ENDBRANCH 55 59
ENDBRANCH 39 55
ENDBRANCH 38 42
ENDBRANCH 18 38
ENDBRANCH 17 21
ENDBRANCH 1 17
TORSDOF 18
ENDMDL
MODEL 6
REMARK VINA RESULT:      -8.9     27.046     31.568
ROOT
ATOM      1  C1  IDS C   1     135.061  32.742  45.6540  0.00  0.00     0.000 C
ATOM      2  C2  IDS C   1     134.078  31.576  45.7870  0.00  0.00     0.000 C
ATOM      3  C3  IDS C   1     132.822  31.831  44.9670  0.00  0.00     0.000 C
ATOM      4  C4  IDS C   1     132.140  33.116  45.4170  0.00  0.00     0.000 C
ATOM      5  C5  IDS C   1     133.185  34.180  45.7350  0.00  0.00     0.000 C
ATOM      6  O5  IDS C   1     134.416  33.871  45.0790  0.00  0.00     0.000 O
ATOM      7   O  IDS C   1     131.920  30.724  45.1030  0.00  0.00     0.000 O
ATOM      9  HD  IDS C   1     132.387  29.996  45.1450  0.00  0.00     0.000 HD
ENDROOT
BRANCH 2 9
ATOM      9   O  IDS C   1     134.684  30.318  45.2940  0.00  0.00     0.000 O
ATOM     10   S  IDS C   1     134.810  29.070  46.2790  0.00  0.00     0.000 S
ATOM     11   O  IDS C   1     135.420  28.013  45.5040  0.00  0.00     0.000 OA
ATOM     12   O  IDS C   1     135.645  29.521  47.3740  0.00  0.00     0.000 OA
ATOM     13   O  IDS C   1     133.460  28.756  46.6920  0.00  0.00     0.000 OA
ENDBRANCH 2 9
BRANCH 5 14
ATOM     14   C  IDS C   1     132.743  35.567  45.2990  0.00  0.00     0.000 C
ATOM     15   O  IDS C   1     132.270  35.721  44.2000  0.00  0.00     0.000 OA
ATOM     16   O  IDS C   1     132.871  36.510  46.0610  0.00  0.00     0.000 OA
ENDBRANCH 5 14
BRANCH 1 17
ATOM     17  O4  SGN C   2     136.376  32.571  45.4920  0.00  0.00     0.000 O
BRANCH 17 21
ATOM     18  C1  SGN C   2     139.794  32.160  43.1100  0.00  0.00     0.000 C
ATOM     19  C2  SGN C   2     138.475  32.435  42.3770  0.00  0.00     0.000 C
ATOM     20  C3  SGN C   2     137.434  32.972  43.3660  0.00  0.00     0.000 C
ATOM     21  C4  SGN C   2     137.298  32.025  44.5520  0.00  0.00     0.000 C
ATOM     22  C5  SGN C   2     138.667  31.836  45.1980  0.00  0.00     0.000 C
ATOM     23  O5  SGN C   2     139.599  31.313  44.2230  0.00  0.00     0.000 O
ATOM     24   O  SGN C   2     136.189  33.144  42.7090  0.00  0.00     0.000 O
ATOM     26  HD  SGN C   2     136.841  33.350  43.2400  0.00  0.00     0.000 HD
BRANCH 19 28
ATOM     26   N  SGN C   2     138.959  32.913  41.0750  0.00  0.00     0.000 N
ATOM     28  HD  SGN C   2     139.554  32.331  41.3140  0.00  0.00     0.000 HD
ATOM     28   O  SGN C   2     138.448  33.769  38.7880  0.00  0.00     0.000 OA
ATOM     29   S  SGN C   2     138.249  32.506  39.6910  0.00  0.00     0.000 S
ATOM     30   O  SGN C   2     138.982  31.433  39.1360  0.00  0.00     0.000 OA
ATOM     31   O  SGN C   2     136.859  32.348  39.9500  0.00  0.00     0.000 OA
ENDBRANCH 19 28
BRANCH 22 32
ATOM     32   C  SGN C   2     138.656  30.866  46.3530  0.00  0.00     0.000 C
ATOM     33   S  SGN C   2     139.570  28.526  46.9290  0.00  0.00     0.000 S
ATOM     34   O  SGN C   2     138.557  27.862  46.1460  0.00  0.00     0.000 OA
ATOM     35   O  SGN C   2     140.874  27.902  46.8400  0.00  0.00     0.000 OA
ATOM     36   O  SGN C   2     139.166  28.824  48.2830  0.00  0.00     0.000 OA
ATOM     37   O  SGN C   2     139.746  29.946  46.2210  0.00  0.00     0.000 O
ENDBRANCH 22 32
BRANCH 18 38
ATOM     38  O4  IDS C   3     140.751  33.002  43.5070  0.00  0.00     0.000 O
BRANCH 38 42
ATOM     39  C1  IDS C   3     142.783  35.305  45.1490  0.00  0.00     0.000 C
ATOM     40  C2  IDS C   3     141.321  35.639  44.8100  0.00  0.00     0.000 C
ATOM     41  C3  IDS C   3     141.027  35.391  43.3300  0.00  0.00     0.000 C
ATOM     42  C4  IDS C   3     141.537  34.027  42.8890  0.00  0.00     0.000 C
ATOM     43  C5  IDS C   3     143.010  33.868  43.2870  0.00  0.00     0.000 C
ATOM     44  O5  IDS C   3     143.127  34.005  44.7020  0.00  0.00     0.000 O
ATOM     45   O  IDS C   3     141.646  36.414  42.5470  0.00  0.00     0.000 O
ATOM     47  HD  IDS C   3     142.452  36.720  42.4670  0.00  0.00     0.000 HD
BRANCH 40 47
ATOM     47   O  IDS C   3     140.397  34.788  45.5960  0.00  0.00     0.000 O
ATOM     48   S  IDS C   3     140.193  35.066  47.1570  0.00  0.00     0.000 S
ATOM     49   O  IDS C   3     141.365  34.525  47.8130  0.00  0.00     0.000 OA
ATOM     50   O  IDS C   3     138.983  34.359  47.5150  0.00  0.00     0.000 OA
ATOM     51   O  IDS C   3     140.080  36.493  47.3060  0.00  0.00     0.000 OA
ENDBRANCH 40 47
BRANCH 43 52
ATOM     52   C  IDS C   3     143.594  32.542  42.8540  0.00  0.00     0.000 C
ATOM     53   O  IDS C   3     143.442  32.159  41.7170  0.00  0.00     0.000 OA
ATOM     54   O  IDS C   3     144.210  31.874  43.6450  0.00  0.00     0.000 OA
ENDBRANCH 43 52
BRANCH 39 55
ATOM     55  O4  SGN C   4     143.779  36.187  45.0730  0.00  0.00     0.000 O
BRANCH 55 59
ATOM     56  C1  SGN C   4     147.755  37.118  44.1600  0.00  0.00     0.000 C
ATOM     57  C2  SGN C   4     146.691  37.588  43.1540  0.00  0.00     0.000 C
ATOM     58  C3  SGN C   4     145.299  37.544  43.7790  0.00  0.00     0.000 C
ATOM     59  C4  SGN C   4     145.033  36.180  44.4050  0.00  0.00     0.000 C
ATOM     60  C5  SGN C   4     146.151  35.871  45.3990  0.00  0.00     0.000 C
ATOM     61  O5  SGN C   4     147.401  35.847  44.6820  0.00  0.00     0.000 O
ATOM     62   O  SGN C   4     144.323  37.840  42.7880  0.00  0.00     0.000 O
ATOM     64  HD  SGN C   4     145.034  38.257  42.5230  0.00  0.00     0.000 HD
BRANCH 57 66
ATOM     64   N  SGN C   4     146.554  38.296  41.8710  0.00  0.00     0.000 N
ATOM     66  HD  SGN C   4     146.700  39.099  41.5810  0.00  0.00     0.000 HD
ATOM     66   S  SGN C   4     147.793  39.078  41.2390  0.00  0.00     0.000 S
ATOM     67   O  SGN C   4     147.340  39.701  40.0490  0.00  0.00     0.000 OA
ATOM     68   O  SGN C   4     148.354  39.874  42.2750  0.00  0.00     0.000 OA
ATOM     69   O  SGN C   4     148.803  37.943  40.8780  0.00  0.00     0.000 OA
ENDBRANCH 57 66
BRANCH 60 70
ATOM     70   C  SGN C   4     145.994  34.538  46.0990  0.00  0.00     0.000 C
ATOM     71   O  SGN C   4     147.544  31.268  45.0940  0.00  0.00     0.000 OA
ATOM     72   O  SGN C   4     148.267  32.764  46.8510  0.00  0.00     0.000 OA
ATOM     73   O  SGN C   4     146.565  33.481  45.3040  0.00  0.00     0.000 O
ATOM     74   S  SGN C   4     147.154  32.226  46.1020  0.00  0.00     0.000 S
ATOM     75   O  SGN C   4     146.061  31.773  46.9390  0.00  0.00     0.000 OA
ENDBRANCH 60 70
BRANCH 56 76
ATOM     76  O4  IDS C   5     148.562  37.715  45.0560  0.00  0.00     0.000 O
BRANCH 76 80
ATOM     77  C1  IDS C   5     148.659  40.428  48.1030  0.00  0.00     0.000 C
ATOM     78  C2  IDS C   5     148.304  41.019  46.7390  0.00  0.00     0.000 C
ATOM     79  C3  IDS C   5     147.869  39.913  45.7970  0.00  0.00     0.000 C
ATOM     80  C4  IDS C   5     149.046  38.983  45.5220  0.00  0.00     0.000 C
ATOM     81  C5  IDS C   5     149.865  38.805  46.8090  0.00  0.00     0.000 C
ATOM     82  O5  IDS C   5     149.055  39.065  47.9600  0.00  0.00     0.000 O
BRANCH 78 83
ATOM     83   O  IDS C   5     147.195  41.993  46.8620  0.00  0.00     0.000 O
ATOM     84   S  IDS C   5     147.400  43.495  46.3640  0.00  0.00     0.000 S
ATOM     85   O  IDS C   5     148.645  43.935  46.9340  0.00  0.00     0.000 OA
ATOM     86   O  IDS C   5     147.432  43.414  44.9230  0.00  0.00     0.000 OA
ATOM     87   O  IDS C   5     146.258  44.228  46.8540  0.00  0.00     0.000 OA
ENDBRANCH 78 83
BRANCH 81 88
ATOM     88   C  IDS C   5     150.461  37.419  46.9720  0.00  0.00     0.000 C
ATOM     89   O  IDS C   5     151.434  37.107  46.3390  0.00  0.00     0.000 OA
ATOM     90   O  IDS C   5     149.953  36.635  47.7410  0.00  0.00     0.000 OA
ENDBRANCH 81 88
ENDBRANCH 76 80
ENDBRANCH 56 76
ENDBRANCH 55 59
ENDBRANCH 39 55
ENDBRANCH 38 42
ENDBRANCH 18 38
ENDBRANCH 17 21
ENDBRANCH 1 17
TORSDOF 18
ENDMDL
MODEL 7
REMARK VINA RESULT:      -8.8     25.308     30.249
ROOT
ATOM      1  C1  IDS C   1     148.447  43.221  69.5590  0.00  0.00     0.000 C
ATOM      2  C2  IDS C   1     147.910  43.723  68.2160  0.00  0.00     0.000 C
ATOM      3  C3  IDS C   1     148.755  44.874  67.6920  0.00  0.00     0.000 C
ATOM      4  C4  IDS C   1     148.771  46.026  68.6880  0.00  0.00     0.000 C
ATOM      5  C5  IDS C   1     148.851  45.484  70.1120  0.00  0.00     0.000 C
ATOM      6  O5  IDS C   1     149.371  44.155  70.1030  0.00  0.00     0.000 O
ATOM      7   O  IDS C   1     148.234  45.324  66.4320  0.00  0.00     0.000 O
ATOM      9  HD  IDS C   1     147.948  44.634  65.9950  0.00  0.00     0.000 HD
ENDROOT
BRANCH 2 9
ATOM      9   O  IDS C   1     147.942  42.646  67.2000  0.00  0.00     0.000 O
ATOM     10   S  IDS C   1     146.578  42.152  66.5380  0.00  0.00     0.000 S
ATOM     11   O  IDS C   1     146.947  41.121  65.5930  0.00  0.00     0.000 OA
ATOM     12   O  IDS C   1     145.773  41.651  67.6330  0.00  0.00     0.000 OA
ATOM     13   O  IDS C   1     146.003  43.316  65.9020  0.00  0.00     0.000 OA
ENDBRANCH 2 9
BRANCH 5 14
ATOM     14   C  IDS C   1     149.735  46.341  71.0020  0.00  0.00     0.000 C
ATOM     15   O  IDS C   1     149.240  47.229  71.6520  0.00  0.00     0.000 OA
ATOM     16   O  IDS C   1     150.934  46.127  71.0500  0.00  0.00     0.000 OA
ENDBRANCH 5 14
BRANCH 1 17
ATOM     17  O4  SGN C   2     148.554  41.924  69.8620  0.00  0.00     0.000 O
BRANCH 17 21
ATOM     18  C1  SGN C   2     150.697  38.597  71.2260  0.00  0.00     0.000 C
ATOM     19  C2  SGN C   2     151.422  39.948  71.2740  0.00  0.00     0.000 C
ATOM     20  C3  SGN C   2     150.404  41.088  71.1580  0.00  0.00     0.000 C
ATOM     21  C4  SGN C   2     149.537  40.893  69.9190  0.00  0.00     0.000 C
ATOM     22  C5  SGN C   2     148.869  39.523  69.9890  0.00  0.00     0.000 C
ATOM     23  O5  SGN C   2     149.878  38.491  70.0810  0.00  0.00     0.000 O
ATOM     24   O  SGN C   2     151.078  42.334  71.1140  0.00  0.00     0.000 O
ATOM     26  HD  SGN C   2     150.463  41.773  71.3520  0.00  0.00     0.000 HD
BRANCH 19 28
ATOM     26   N  SGN C   2     152.261  40.037  72.4770  0.00  0.00     0.000 N
ATOM     28  HD  SGN C   2     151.687  39.418  72.6720  0.00  0.00     0.000 HD
ATOM     28   O  SGN C   2     154.497  40.464  73.4960  0.00  0.00     0.000 OA
ATOM     29   S  SGN C   2     153.770  39.483  72.5160  0.00  0.00     0.000 S
ATOM     30   O  SGN C   2     153.737  38.199  73.1030  0.00  0.00     0.000 OA
ATOM     31   O  SGN C   2     154.323  39.648  71.2160  0.00  0.00     0.000 OA
ENDBRANCH 19 28
BRANCH 22 32
ATOM     32   C  SGN C   2     148.029  39.205  68.7760  0.00  0.00     0.000 C
ATOM     33   S  SGN C   2     146.045  37.688  68.1360  0.00  0.00     0.000 S
ATOM     34   O  SGN C   2     146.876  36.512  68.0760  0.00  0.00     0.000 OA
ATOM     35   O  SGN C   2     144.736  37.447  68.7060  0.00  0.00     0.000 OA
ATOM     36   O  SGN C   2     146.007  38.446  66.9080  0.00  0.00     0.000 OA
ATOM     37   O  SGN C   2     146.781  38.635  69.1900  0.00  0.00     0.000 O
ENDBRANCH 22 32
BRANCH 18 38
ATOM     38  O4  IDS C   3     150.014  37.951  72.1740  0.00  0.00     0.000 O
BRANCH 38 42
ATOM     39  C1  IDS C   3     147.635  35.912  73.6930  0.00  0.00     0.000 C
ATOM     40  C2  IDS C   3     148.160  37.174  74.3950  0.00  0.00     0.000 C
ATOM     41  C3  IDS C   3     149.688  37.188  74.4380  0.00  0.00     0.000 C
ATOM     42  C4  IDS C   3     150.280  36.868  73.0720  0.00  0.00     0.000 C
ATOM     43  C5  IDS C   3     149.663  35.574  72.5280  0.00  0.00     0.000 C
ATOM     44  O5  IDS C   3     148.249  35.737  72.4280  0.00  0.00     0.000 O
ATOM     45   O  IDS C   3     150.143  36.231  75.3960  0.00  0.00     0.000 O
ATOM     47  HD  IDS C   3     150.020  35.382  75.5200  0.00  0.00     0.000 HD
BRANCH 40 47
ATOM     47   O  IDS C   3     147.725  38.392  73.6710  0.00  0.00     0.000 O
ATOM     48   S  IDS C   3     146.165  38.686  73.4740  0.00  0.00     0.000 S
ATOM     49   O  IDS C   3     145.727  37.808  72.4110  0.00  0.00     0.000 OA
ATOM     50   O  IDS C   3     146.085  40.083  73.1070  0.00  0.00     0.000 OA
ATOM     51   O  IDS C   3     145.535  38.394  74.7340  0.00  0.00     0.000 OA
ENDBRANCH 40 47
BRANCH 43 52
ATOM     52   C  IDS C   3     150.226  35.177  71.1810  0.00  0.00     0.000 C
ATOM     53   O  IDS C   3     149.534  35.256  70.1920  0.00  0.00     0.000 OA
ATOM     54   O  IDS C   3     151.362  34.785  71.1010  0.00  0.00     0.000 OA
ENDBRANCH 43 52
BRANCH 39 55
ATOM     55  O4  SGN C   4     147.367  34.771  74.3280  0.00  0.00     0.000 O
BRANCH 55 59
ATOM     56  C1  SGN C   4     147.161  32.385  77.7590  0.00  0.00     0.000 C
ATOM     57  C2  SGN C   4     146.424  33.734  77.8150  0.00  0.00     0.000 C
ATOM     58  C3  SGN C   4     146.242  34.309  76.4130  0.00  0.00     0.000 C
ATOM     59  C4  SGN C   4     147.569  34.332  75.6640  0.00  0.00     0.000 C
ATOM     60  C5  SGN C   4     148.158  32.923  75.6660  0.00  0.00     0.000 C
ATOM     61  O5  SGN C   4     148.373  32.524  77.0340  0.00  0.00     0.000 O
ATOM     62   O  SGN C   4     145.694  35.618  76.5030  0.00  0.00     0.000 O
ATOM     64  HD  SGN C   4     145.405  35.213  77.2120  0.00  0.00     0.000 HD
BRANCH 57 66
ATOM     64   N  SGN C   4     146.398  34.079  79.2450  0.00  0.00     0.000 N
ATOM     66  HD  SGN C   4     145.935  34.605  79.7530  0.00  0.00     0.000 HD
ATOM     66   S  SGN C   4     145.045  33.964  80.0830  0.00  0.00     0.000 S
ATOM     67   O  SGN C   4     145.320  34.418  81.3980  0.00  0.00     0.000 OA
ATOM     68   O  SGN C   4     144.028  34.603  79.3210  0.00  0.00     0.000 OA
ATOM     69   O  SGN C   4     144.757  32.429  80.1140  0.00  0.00     0.000 OA
ENDBRANCH 57 66
BRANCH 60 70
ATOM     70   C  SGN C   4     149.481  32.814  74.9400  0.00  0.00     0.000 C
ATOM     71   O  SGN C   4     150.612  29.999  72.7240  0.00  0.00     0.000 OA
ATOM     72   O  SGN C   4     149.754  32.156  72.0460  0.00  0.00     0.000 OA
ATOM     73   O  SGN C   4     149.633  31.503  74.3610  0.00  0.00     0.000 O
ATOM     74   S  SGN C   4     150.508  31.408  73.0260  0.00  0.00     0.000 S
ATOM     75   O  SGN C   4     151.775  32.021  73.3700  0.00  0.00     0.000 OA
ENDBRANCH 60 70
BRANCH 56 76
ATOM     76  O4  IDS C   5     146.797  31.091  77.6970  0.00  0.00     0.000 O
BRANCH 76 80
ATOM     77  C1  IDS C   5     144.899  29.608  74.4010  0.00  0.00     0.000 C
ATOM     78  C2  IDS C   5     143.963  30.055  75.5250  0.00  0.00     0.000 C
ATOM     79  C3  IDS C   5     144.706  30.969  76.4790  0.00  0.00     0.000 C
ATOM     80  C4  IDS C   5     145.809  30.184  77.1830  0.00  0.00     0.000 C
ATOM     81  C5  IDS C   5     146.448  29.202  76.1910  0.00  0.00     0.000 C
ATOM     82  O5  IDS C   5     146.255  29.651  74.8460  0.00  0.00     0.000 O
BRANCH 78 83
ATOM     83   O  IDS C   5     142.802  30.795  74.9760  0.00  0.00     0.000 O
ATOM     84   S  IDS C   5     141.321  30.318  75.3280  0.00  0.00     0.000 S
ATOM     85   O  IDS C   5     141.293  28.901  75.0850  0.00  0.00     0.000 OA
ATOM     86   O  IDS C   5     141.134  30.660  76.7190  0.00  0.00     0.000 OA
ATOM     87   O  IDS C   5     140.452  31.064  74.4510  0.00  0.00     0.000 OA
ENDBRANCH 78 83
BRANCH 81 88
ATOM     88   C  IDS C   5     147.938  29.000  76.3960  0.00  0.00     0.000 C
ATOM     89   O  IDS C   5     148.354  28.667  77.4730  0.00  0.00     0.000 OA
ATOM     90   O  IDS C   5     148.699  29.175  75.4720  0.00  0.00     0.000 OA
ENDBRANCH 81 88
ENDBRANCH 76 80
ENDBRANCH 56 76
ENDBRANCH 55 59
ENDBRANCH 39 55
ENDBRANCH 38 42
ENDBRANCH 18 38
ENDBRANCH 17 21
ENDBRANCH 1 17
TORSDOF 18
ENDMDL
MODEL 8
REMARK VINA RESULT:      -8.8     21.909     29.310
ROOT
ATOM      1  C1  IDS C   1     159.547  35.248  48.9420  0.00  0.00     0.000 C
ATOM      2  C2  IDS C   1     159.991  33.956  49.6340  0.00  0.00     0.000 C
ATOM      3  C3  IDS C   1     161.509  33.882  49.7160  0.00  0.00     0.000 C
ATOM      4  C4  IDS C   1     162.126  33.944  48.3260  0.00  0.00     0.000 C
ATOM      5  C5  IDS C   1     161.364  34.943  47.4600  0.00  0.00     0.000 C
ATOM      6  O5  IDS C   1     160.649  35.862  48.2850  0.00  0.00     0.000 O
ATOM      7   O  IDS C   1     161.900  32.667  50.3720  0.00  0.00     0.000 O
ATOM      9  HD  IDS C   1     161.325  32.498  50.9970  0.00  0.00     0.000 HD
ENDROOT
BRANCH 2 9
ATOM      9   O  IDS C   1     159.465  33.892  51.0160  0.00  0.00     0.000 O
ATOM     10   S  IDS C   1     158.508  32.687  51.4350  0.00  0.00     0.000 S
ATOM     11   O  IDS C   1     158.185  32.903  52.8280  0.00  0.00     0.000 OA
ATOM     12   O  IDS C   1     157.353  32.788  50.5660  0.00  0.00     0.000 OA
ATOM     13   O  IDS C   1     159.274  31.480  51.2170  0.00  0.00     0.000 OA
ENDBRANCH 2 9
BRANCH 5 14
ATOM     14   C  IDS C   1     162.288  35.732  46.5480  0.00  0.00     0.000 C
ATOM     15   O  IDS C   1     161.866  36.707  45.9760  0.00  0.00     0.000 OA
ATOM     16   O  IDS C   1     163.444  35.373  46.4000  0.00  0.00     0.000 OA
ENDBRANCH 5 14
BRANCH 1 17
ATOM     17  O4  SGN C   2     158.531  35.996  49.3800  0.00  0.00     0.000 O
BRANCH 17 21
ATOM     18  C1  SGN C   2     156.805  39.556  50.7500  0.00  0.00     0.000 C
ATOM     19  C2  SGN C   2     158.233  39.653  50.1990  0.00  0.00     0.000 C
ATOM     20  C3  SGN C   2     158.555  38.404  49.3690  0.00  0.00     0.000 C
ATOM     21  C4  SGN C   2     158.290  37.146  50.1870  0.00  0.00     0.000 C
ATOM     22  C5  SGN C   2     156.844  37.163  50.6730  0.00  0.00     0.000 C
ATOM     23  O5  SGN C   2     156.606  38.352  51.4610  0.00  0.00     0.000 O
ATOM     24   O  SGN C   2     159.902  38.451  48.9310  0.00  0.00     0.000 O
ATOM     26  HD  SGN C   2     159.051  38.310  48.8630  0.00  0.00     0.000 HD
BRANCH 19 28
ATOM     26   N  SGN C   2     158.338  41.090  49.9130  0.00  0.00     0.000 N
ATOM     28  HD  SGN C   2     157.810  41.055  50.5980  0.00  0.00     0.000 HD
ATOM     28   O  SGN C   2     159.703  43.011  49.0950  0.00  0.00     0.000 OA
ATOM     29   S  SGN C   2     159.670  41.934  50.2310  0.00  0.00     0.000 S
ATOM     30   O  SGN C   2     159.474  42.587  51.4680  0.00  0.00     0.000 OA
ATOM     31   O  SGN C   2     160.782  41.064  50.0640  0.00  0.00     0.000 OA
ENDBRANCH 19 28
BRANCH 22 32
ATOM     32   C  SGN C   2     156.492  35.984  51.5460  0.00  0.00     0.000 C
ATOM     33   S  SGN C   2     155.326  35.518  53.7970  0.00  0.00     0.000 S
ATOM     34   O  SGN C   2     156.471  35.951  54.5580  0.00  0.00     0.000 OA
ATOM     35   O  SGN C   2     154.059  35.913  54.3770  0.00  0.00     0.000 OA
ATOM     36   O  SGN C   2     155.370  34.129  53.4050  0.00  0.00     0.000 OA
ATOM     37   O  SGN C   2     155.426  36.342  52.4330  0.00  0.00     0.000 O
ENDBRANCH 22 32
BRANCH 18 38
ATOM     38  O4  IDS C   3     155.633  39.774  50.1500  0.00  0.00     0.000 O
BRANCH 38 42
ATOM     39  C1  IDS C   3     152.821  39.958  48.1030  0.00  0.00     0.000 C
ATOM     40  C2  IDS C   3     154.157  40.583  47.6710  0.00  0.00     0.000 C
ATOM     41  C3  IDS C   3     154.710  41.510  48.7530  0.00  0.00     0.000 C
ATOM     42  C4  IDS C   3     154.678  40.841  50.1210  0.00  0.00     0.000 C
ATOM     43  C5  IDS C   3     153.273  40.293  50.3980  0.00  0.00     0.000 C
ATOM     44  O5  IDS C   3     152.928  39.354  49.3810  0.00  0.00     0.000 O
ATOM     45   O  IDS C   3     153.937  42.712  48.7870  0.00  0.00     0.000 O
ATOM     47  HD  IDS C   3     153.096  42.896  48.8790  0.00  0.00     0.000 HD
BRANCH 40 47
ATOM     47   O  IDS C   3     155.171  39.529  47.4290  0.00  0.00     0.000 O
ATOM     48   S  IDS C   3     155.668  39.231  45.9380  0.00  0.00     0.000 S
ATOM     49   O  IDS C   3     154.613  38.463  45.3130  0.00  0.00     0.000 OA
ATOM     50   O  IDS C   3     156.890  38.472  46.0900  0.00  0.00     0.000 OA
ATOM     51   O  IDS C   3     155.871  40.511  45.3140  0.00  0.00     0.000 OA
ENDBRANCH 40 47
BRANCH 43 52
ATOM     52   C  IDS C   3     153.158  39.636  51.7560  0.00  0.00     0.000 C
ATOM     53   O  IDS C   3     153.373  40.279  52.7570  0.00  0.00     0.000 OA
ATOM     54   O  IDS C   3     152.852  38.473  51.8330  0.00  0.00     0.000 OA
ENDBRANCH 43 52
BRANCH 39 55
ATOM     55  O4  SGN C   4     151.634  40.516  47.8640  0.00  0.00     0.000 O
BRANCH 55 59
ATOM     56  C1  SGN C   4     148.335  38.244  46.6550  0.00  0.00     0.000 C
ATOM     57  C2  SGN C   4     149.543  38.262  45.7040  0.00  0.00     0.000 C
ATOM     58  C3  SGN C   4     150.789  38.777  46.4200  0.00  0.00     0.000 C
ATOM     59  C4  SGN C   4     150.499  40.101  47.1160  0.00  0.00     0.000 C
ATOM     60  C5  SGN C   4     149.302  39.915  48.0460  0.00  0.00     0.000 C
ATOM     61  O5  SGN C   4     148.167  39.521  47.2500  0.00  0.00     0.000 O
ATOM     62   O  SGN C   4     151.849  38.923  45.4850  0.00  0.00     0.000 O
ATOM     64  HD  SGN C   4     151.357  38.290  45.1570  0.00  0.00     0.000 HD
BRANCH 57 66
ATOM     64   N  SGN C   4     148.825  37.110  45.1330  0.00  0.00     0.000 N
ATOM     66  HD  SGN C   4     148.374  36.950  44.4110  0.00  0.00     0.000 HD
ATOM     66   S  SGN C   4     149.163  36.591  43.6620  0.00  0.00     0.000 S
ATOM     67   O  SGN C   4     148.276  35.524  43.3740  0.00  0.00     0.000 OA
ATOM     68   O  SGN C   4     149.184  37.732  42.8130  0.00  0.00     0.000 OA
ATOM     69   O  SGN C   4     150.618  36.036  43.7900  0.00  0.00     0.000 OA
ENDBRANCH 57 66
BRANCH 60 70
ATOM     70   C  SGN C   4     148.920  41.166  48.8080  0.00  0.00     0.000 C
ATOM     71   O  SGN C   4     150.340  42.337  52.0810  0.00  0.00     0.000 OA
ATOM     72   O  SGN C   4     150.879  43.147  49.8670  0.00  0.00     0.000 OA
ATOM     73   O  SGN C   4     149.527  41.168  50.1140  0.00  0.00     0.000 O
ATOM     74   S  SGN C   4     149.867  42.599  50.7410  0.00  0.00     0.000 S
ATOM     75   O  SGN C   4     148.614  43.327  50.7030  0.00  0.00     0.000 OA
ENDBRANCH 60 70
BRANCH 56 76
ATOM     76  O4  IDS C   5     147.766  37.337  47.4720  0.00  0.00     0.000 O
BRANCH 76 80
ATOM     77  C1  IDS C   5     145.005  34.709  46.0140  0.00  0.00     0.000 C
ATOM     78  C2  IDS C   5     144.411  35.958  46.6640  0.00  0.00     0.000 C
ATOM     79  C3  IDS C   5     145.469  37.038  46.7650  0.00  0.00     0.000 C
ATOM     80  C4  IDS C   5     146.568  36.589  47.7240  0.00  0.00     0.000 C
ATOM     81  C5  IDS C   5     146.824  35.086  47.5350  0.00  0.00     0.000 C
ATOM     82  O5  IDS C   5     146.416  34.667  46.2300  0.00  0.00     0.000 O
BRANCH 78 83
ATOM     83   O  IDS C   5     143.283  36.481  45.8580  0.00  0.00     0.000 O
ATOM     84   S  IDS C   5     141.822  36.561  46.4960  0.00  0.00     0.000 S
ATOM     85   O  IDS C   5     141.581  35.275  47.0930  0.00  0.00     0.000 OA
ATOM     86   O  IDS C   5     141.889  37.632  47.4620  0.00  0.00     0.000 OA
ATOM     87   O  IDS C   5     140.933  36.855  45.3990  0.00  0.00     0.000 OA
ENDBRANCH 78 83
BRANCH 81 88
ATOM     88   C  IDS C   5     148.276  34.683  47.7120  0.00  0.00     0.000 C
ATOM     89   O  IDS C   5     148.963  34.479  46.7470  0.00  0.00     0.000 OA
ATOM     90   O  IDS C   5     148.735  34.569  48.8260  0.00  0.00     0.000 OA
ENDBRANCH 81 88
ENDBRANCH 76 80
ENDBRANCH 56 76
ENDBRANCH 55 59
ENDBRANCH 39 55
ENDBRANCH 38 42
ENDBRANCH 18 38
ENDBRANCH 17 21
ENDBRANCH 1 17
TORSDOF 18
ENDMDL
MODEL 9
REMARK VINA RESULT:      -8.7     26.313     31.343
ROOT
ATOM      1  C1  IDS C   1     149.158  35.911  71.9270  0.00  0.00     0.000 C
ATOM      2  C2  IDS C   1     150.546  36.492  72.2090  0.00  0.00     0.000 C
ATOM      3  C3  IDS C   1     150.661  37.908  71.6630  0.00  0.00     0.000 C
ATOM      4  C4  IDS C   1     150.404  37.928  70.1630  0.00  0.00     0.000 C
ATOM      5  C5  IDS C   1     149.274  36.965  69.8130  0.00  0.00     0.000 C
ATOM      6  O5  IDS C   1     148.474  36.706  70.9660  0.00  0.00     0.000 O
ATOM      7   O  IDS C   1     151.967  38.432  71.9430  0.00  0.00     0.000 O
ATOM      9  HD  IDS C   1     152.216  38.140  72.7200  0.00  0.00     0.000 HD
ENDROOT
BRANCH 2 9
ATOM      9   O  IDS C   1     150.806  36.553  73.6650  0.00  0.00     0.000 O
ATOM     10   S  IDS C   1     152.060  35.775  74.2700  0.00  0.00     0.000 S
ATOM     11   O  IDS C   1     152.043  36.042  75.6910  0.00  0.00     0.000 OA
ATOM     12   O  IDS C   1     151.842  34.378  73.9550  0.00  0.00     0.000 OA
ATOM     13   O  IDS C   1     153.223  36.327  73.6100  0.00  0.00     0.000 OA
ENDBRANCH 2 9
BRANCH 5 14
ATOM     14   C  IDS C   1     148.375  37.510  68.7160  0.00  0.00     0.000 C
ATOM     15   O  IDS C   1     147.269  37.049  68.5700  0.00  0.00     0.000 OA
ATOM     16   O  IDS C   1     148.778  38.405  67.9930  0.00  0.00     0.000 OA
ENDBRANCH 5 14
BRANCH 1 17
ATOM     17  O4  SGN C   2     148.464  35.212  72.8290  0.00  0.00     0.000 O
BRANCH 17 21
ATOM     18  C1  SGN C   2     145.551  34.877  75.8170  0.00  0.00     0.000 C
ATOM     19  C2  SGN C   2     145.686  36.247  75.1400  0.00  0.00     0.000 C
ATOM     20  C3  SGN C   2     146.459  36.101  73.8230  0.00  0.00     0.000 C
ATOM     21  C4  SGN C   2     147.789  35.398  74.0700  0.00  0.00     0.000 C
ATOM     22  C5  SGN C   2     147.524  34.053  74.7400  0.00  0.00     0.000 C
ATOM     23  O5  SGN C   2     146.809  34.256  75.9800  0.00  0.00     0.000 O
ATOM     24   O  SGN C   2     146.660  37.377  73.2380  0.00  0.00     0.000 O
ATOM     26  HD  SGN C   2     146.472  36.532  73.2540  0.00  0.00     0.000 HD
BRANCH 19 28
ATOM     26   N  SGN C   2     144.408  36.878  75.4990  0.00  0.00     0.000 N
ATOM     28  HD  SGN C   2     144.609  36.407  76.1970  0.00  0.00     0.000 HD
ATOM     28   O  SGN C   2     142.867  38.832  75.3270  0.00  0.00     0.000 OA
ATOM     29   S  SGN C   2     144.291  38.443  75.8480  0.00  0.00     0.000 S
ATOM     30   O  SGN C   2     144.307  38.566  77.2550  0.00  0.00     0.000 OA
ATOM     31   O  SGN C   2     145.263  39.132  75.0720  0.00  0.00     0.000 OA
ENDBRANCH 19 28
BRANCH 22 32
ATOM     32   C  SGN C   2     148.785  33.297  75.0830  0.00  0.00     0.000 C
ATOM     33   S  SGN C   2     149.869  31.012  74.5900  0.00  0.00     0.000 S
ATOM     34   O  SGN C   2     149.007  30.325  75.5190  0.00  0.00     0.000 OA
ATOM     35   O  SGN C   2     150.134  30.261  73.3800  0.00  0.00     0.000 OA
ATOM     36   O  SGN C   2     151.057  31.571  75.1910  0.00  0.00     0.000 OA
ATOM     37   O  SGN C   2     149.009  32.269  74.1110  0.00  0.00     0.000 O
ENDBRANCH 22 32
BRANCH 18 38
ATOM     38  O4  IDS C   3     144.721  33.865  75.5560  0.00  0.00     0.000 O
BRANCH 38 42
ATOM     39  C1  IDS C   3     142.688  31.041  75.4170  0.00  0.00     0.000 C
ATOM     40  C2  IDS C   3     144.159  30.980  74.9760  0.00  0.00     0.000 C
ATOM     41  C3  IDS C   3     144.477  32.075  73.9590  0.00  0.00     0.000 C
ATOM     42  C4  IDS C   3     143.959  33.428  74.4260  0.00  0.00     0.000 C
ATOM     43  C5  IDS C   3     142.478  33.314  74.8060  0.00  0.00     0.000 C
ATOM     44  O5  IDS C   3     142.335  32.346  75.8440  0.00  0.00     0.000 O
ATOM     45   O  IDS C   3     143.885  31.740  72.7020  0.00  0.00     0.000 O
ATOM     47  HD  IDS C   3     143.085  31.547  72.4350  0.00  0.00     0.000 HD
BRANCH 40 47
ATOM     47   O  IDS C   3     145.059  31.177  76.1370  0.00  0.00     0.000 O
ATOM     48   S  IDS C   3     145.343  29.962  77.1380  0.00  0.00     0.000 S
ATOM     49   O  IDS C   3     144.167  29.853  77.9750  0.00  0.00     0.000 OA
ATOM     50   O  IDS C   3     146.519  30.352  77.8850  0.00  0.00     0.000 OA
ATOM     51   O  IDS C   3     145.553  28.799  76.3180  0.00  0.00     0.000 OA
ENDBRANCH 40 47
BRANCH 43 52
ATOM     52   C  IDS C   3     141.885  34.632  75.2550  0.00  0.00     0.000 C
ATOM     53   O  IDS C   3     141.390  34.726  76.3550  0.00  0.00     0.000 OA
ATOM     54   O  IDS C   3     141.910  35.581  74.5140  0.00  0.00     0.000 OA
ENDBRANCH 43 52
BRANCH 39 55
ATOM     55  O4  SGN C   4     141.703  30.389  74.7980  0.00  0.00     0.000 O
BRANCH 55 59
ATOM     56  C1  SGN C   4     138.670  29.086  77.3680  0.00  0.00     0.000 C
ATOM     57  C2  SGN C   4     139.704  28.032  76.9350  0.00  0.00     0.000 C
ATOM     58  C3  SGN C   4     140.944  28.701  76.3460  0.00  0.00     0.000 C
ATOM     59  C4  SGN C   4     140.552  29.700  75.2630  0.00  0.00     0.000 C
ATOM     60  C5  SGN C   4     139.552  30.694  75.8520  0.00  0.00     0.000 C
ATOM     61  O5  SGN C   4     138.390  29.962  76.2880  0.00  0.00     0.000 O
ATOM     62   O  SGN C   4     141.815  27.708  75.8200  0.00  0.00     0.000 O
ATOM     64  HD  SGN C   4     141.388  27.306  76.4580  0.00  0.00     0.000 HD
BRANCH 57 66
ATOM     64   N  SGN C   4     138.822  26.891  77.2280  0.00  0.00     0.000 N
ATOM     66  HD  SGN C   4     138.882  26.028  77.1880  0.00  0.00     0.000 HD
ATOM     66   S  SGN C   4     139.298  25.729  78.2120  0.00  0.00     0.000 S
ATOM     67   O  SGN C   4     138.270  24.753  78.2450  0.00  0.00     0.000 OA
ATOM     68   O  SGN C   4     140.608  25.351  77.8070  0.00  0.00     0.000 OA
ATOM     69   O  SGN C   4     139.389  26.434  79.6030  0.00  0.00     0.000 OA
ENDBRANCH 57 66
BRANCH 60 70
ATOM     70   C  SGN C   4     139.092  31.750  74.8700  0.00  0.00     0.000 C
ATOM     71   O  SGN C   4     135.903  33.728  75.0170  0.00  0.00     0.000 OA
ATOM     72   O  SGN C   4     138.119  34.455  75.6540  0.00  0.00     0.000 OA
ATOM     73   O  SGN C   4     137.730  32.133  75.1430  0.00  0.00     0.000 O
ATOM     74   S  SGN C   4     137.323  33.634  74.7710  0.00  0.00     0.000 S
ATOM     75   O  SGN C   4     137.678  33.778  73.3730  0.00  0.00     0.000 OA
ENDBRANCH 60 70
BRANCH 56 76
ATOM     76  O4  IDS C   5     138.383  29.740  78.5080  0.00  0.00     0.000 O
BRANCH 76 80
ATOM     77  C1  IDS C   5     139.387  33.674  78.9300  0.00  0.00     0.000 C
ATOM     78  C2  IDS C   5     140.404  32.694  79.5140  0.00  0.00     0.000 C
ATOM     79  C3  IDS C   5     140.177  31.311  78.9350  0.00  0.00     0.000 C
ATOM     80  C4  IDS C   5     138.821  30.782  79.3940  0.00  0.00     0.000 C
ATOM     81  C5  IDS C   5     137.805  31.933  79.4120  0.00  0.00     0.000 C
ATOM     82  O5  IDS C   5     138.211  32.975  78.5210  0.00  0.00     0.000 O
BRANCH 78 83
ATOM     83   O  IDS C   5     141.786  33.117  79.1870  0.00  0.00     0.000 O
ATOM     84   S  IDS C   5     142.740  33.668  80.3410  0.00  0.00     0.000 S
ATOM     85   O  IDS C   5     141.969  34.650  81.0560  0.00  0.00     0.000 OA
ATOM     86   O  IDS C   5     143.071  32.513  81.1430  0.00  0.00     0.000 OA
ATOM     87   O  IDS C   5     143.887  34.224  79.6670  0.00  0.00     0.000 OA
ENDBRANCH 78 83
BRANCH 81 88
ATOM     88   C  IDS C   5     136.398  31.519  79.0210  0.00  0.00     0.000 C
ATOM     89   O  IDS C   5     135.989  31.757  77.9170  0.00  0.00     0.000 OA
ATOM     90   O  IDS C   5     135.697  30.949  79.8250  0.00  0.00     0.000 OA
ENDBRANCH 81 88
ENDBRANCH 76 80
ENDBRANCH 56 76
ENDBRANCH 55 59
ENDBRANCH 39 55
ENDBRANCH 38 42
ENDBRANCH 18 38
ENDBRANCH 17 21
ENDBRANCH 1 17
TORSDOF 18
ENDMDL
MODEL 10
REMARK VINA RESULT:      -8.7      6.058     10.603
ROOT
ATOM      1  C1  IDS C   1     148.362  17.503  52.7960  0.00  0.00     0.000 C
ATOM      2  C2  IDS C   1     147.040  18.009  53.3790  0.00  0.00     0.000 C
ATOM      3  C3  IDS C   1     145.862  17.528  52.5440  0.00  0.00     0.000 C
ATOM      4  C4  IDS C   1     145.992  18.008  51.1050  0.00  0.00     0.000 C
ATOM      5  C5  IDS C   1     147.448  17.927  50.6570  0.00  0.00     0.000 C
ATOM      6  O5  IDS C   1     148.165  17.006  51.4790  0.00  0.00     0.000 O
ATOM      7   O  IDS C   1     144.636  18.011  53.1120  0.00  0.00     0.000 O
ATOM      9  HD  IDS C   1     144.713  18.002  53.9740  0.00  0.00     0.000 HD
ENDROOT
BRANCH 2 9
ATOM      9   O  IDS C   1     146.844  17.506  54.7580  0.00  0.00     0.000 O
ATOM     10   S  IDS C   1     146.523  18.537  55.9300  0.00  0.00     0.000 S
ATOM     11   O  IDS C   1     146.377  17.742  57.1290  0.00  0.00     0.000 OA
ATOM     12   O  IDS C   1     147.660  19.433  55.9830  0.00  0.00     0.000 OA
ATOM     13   O  IDS C   1     145.298  19.203  55.5460  0.00  0.00     0.000 OA
ENDBRANCH 2 9
BRANCH 5 14
ATOM     14   C  IDS C   1     147.579  17.484  49.2100  0.00  0.00     0.000 C
ATOM     15   O  IDS C   1     147.302  16.349  48.9090  0.00  0.00     0.000 OA
ATOM     16   O  IDS C   1     147.965  18.276  48.3670  0.00  0.00     0.000 OA
ENDBRANCH 5 14
BRANCH 1 17
ATOM     17  O4  SGN C   2     149.351  17.017  53.5510  0.00  0.00     0.000 O
BRANCH 17 21
ATOM     18  C1  SGN C   2     151.396  14.055  55.6900  0.00  0.00     0.000 C
ATOM     19  C2  SGN C   2     150.328  13.574  54.7000  0.00  0.00     0.000 C
ATOM     20  C3  SGN C   2     149.987  14.700  53.7160  0.00  0.00     0.000 C
ATOM     21  C4  SGN C   2     149.601  15.963  54.4780  0.00  0.00     0.000 C
ATOM     22  C5  SGN C   2     150.738  16.342  55.4220  0.00  0.00     0.000 C
ATOM     23  O5  SGN C   2     151.002  15.250  56.3330  0.00  0.00     0.000 O
ATOM     24   O  SGN C   2     148.939  14.287  52.8550  0.00  0.00     0.000 O
ATOM     26  HD  SGN C   2     149.690  14.663  53.0680  0.00  0.00     0.000 HD
BRANCH 19 28
ATOM     26   N  SGN C   2     150.730  12.176  54.4940  0.00  0.00     0.000 N
ATOM     28  HD  SGN C   2     150.981  12.344  55.3050  0.00  0.00     0.000 HD
ATOM     28   O  SGN C   2     150.298   9.963  53.4250  0.00  0.00     0.000 OA
ATOM     29   S  SGN C   2     149.662  10.974  54.4380  0.00  0.00     0.000 S
ATOM     30   O  SGN C   2     149.631  10.374  55.7160  0.00  0.00     0.000 OA
ATOM     31   O  SGN C   2     148.463  11.489  53.8740  0.00  0.00     0.000 OA
ENDBRANCH 19 28
BRANCH 22 32
ATOM     32   C  SGN C   2     150.434  17.553  56.2700  0.00  0.00     0.000 C
ATOM     33   S  SGN C   2     151.630  19.667  57.1300  0.00  0.00     0.000 S
ATOM     34   O  SGN C   2     152.347  18.933  58.1430  0.00  0.00     0.000 OA
ATOM     35   O  SGN C   2     152.416  20.708  56.5010  0.00  0.00     0.000 OA
ATOM     36   O  SGN C   2     150.317  20.107  57.5400  0.00  0.00     0.000 OA
ATOM     37   O  SGN C   2     151.371  18.595  55.9760  0.00  0.00     0.000 O
ENDBRANCH 22 32
BRANCH 18 38
ATOM     38  O4  IDS C   3     152.715  14.188  55.5380  0.00  0.00     0.000 O
BRANCH 38 42
ATOM     39  C1  IDS C   3     155.929  13.880  54.2320  0.00  0.00     0.000 C
ATOM     40  C2  IDS C   3     154.962  12.685  54.2480  0.00  0.00     0.000 C
ATOM     41  C3  IDS C   3     154.389  12.456  55.6460  0.00  0.00     0.000 C
ATOM     42  C4  IDS C   3     153.879  13.756  56.2520  0.00  0.00     0.000 C
ATOM     43  C5  IDS C   3     154.971  14.830  56.1720  0.00  0.00     0.000 C
ATOM     44  O5  IDS C   3     155.330  15.029  54.8060  0.00  0.00     0.000 O
ATOM     45   O  IDS C   3     155.400  11.897  56.4860  0.00  0.00     0.000 O
ATOM     47  HD  IDS C   3     156.203  12.128  56.7140  0.00  0.00     0.000 HD
BRANCH 40 47
ATOM     47   O  IDS C   3     153.821  12.926  53.3330  0.00  0.00     0.000 O
ATOM     48   S  IDS C   3     153.628  12.005  52.0400  0.00  0.00     0.000 S
ATOM     49   O  IDS C   3     154.597  12.473  51.0720  0.00  0.00     0.000 OA
ATOM     50   O  IDS C   3     152.265  12.231  51.6110  0.00  0.00     0.000 OA
ATOM     51   O  IDS C   3     153.872  10.652  52.4640  0.00  0.00     0.000 OA
ENDBRANCH 40 47
BRANCH 43 52
ATOM     52   C  IDS C   3     154.544  16.146  56.7820  0.00  0.00     0.000 C
ATOM     53   O  IDS C   3     154.246  17.074  56.0660  0.00  0.00     0.000 OA
ATOM     54   O  IDS C   3     154.502  16.263  57.9800  0.00  0.00     0.000 OA
ENDBRANCH 43 52
BRANCH 39 55
ATOM     55  O4  SGN C   4     157.237  13.775  54.4660  0.00  0.00     0.000 O
BRANCH 55 59
ATOM     56  C1  SGN C   4     159.850  16.558  52.7540  0.00  0.00     0.000 C
ATOM     57  C2  SGN C   4     159.203  15.542  51.7960  0.00  0.00     0.000 C
ATOM     58  C3  SGN C   4     158.004  14.865  52.4540  0.00  0.00     0.000 C
ATOM     59  C4  SGN C   4     158.385  14.308  53.8210  0.00  0.00     0.000 C
ATOM     60  C5  SGN C   4     158.978  15.436  54.6630  0.00  0.00     0.000 C
ATOM     61  O5  SGN C   4     160.152  15.933  53.9910  0.00  0.00     0.000 O
ATOM     62   O  SGN C   4     157.519  13.830  51.6090  0.00  0.00     0.000 O
ATOM     64  HD  SGN C   4     157.876  14.403  51.0670  0.00  0.00     0.000 HD
BRANCH 57 66
ATOM     64   N  SGN C   4     159.326  15.092  50.4000  0.00  0.00     0.000 N
ATOM     66  HD  SGN C   4     159.035  15.358  49.6290  0.00  0.00     0.000 HD
ATOM     66   S  SGN C   4     159.835  16.093  49.2660  0.00  0.00     0.000 S
ATOM     67   O  SGN C   4     159.788  15.396  48.0330  0.00  0.00     0.000 OA
ATOM     68   O  SGN C   4     159.099  17.300  49.4160  0.00  0.00     0.000 OA
ATOM     69   O  SGN C   4     161.324  16.363  49.6530  0.00  0.00     0.000 OA
ENDBRANCH 57 66
BRANCH 60 70
ATOM     70   C  SGN C   4     159.389  15.008  56.0550  0.00  0.00     0.000 C
ATOM     71   O  SGN C   4     157.706  15.925  59.2860  0.00  0.00     0.000 OA
ATOM     72   O  SGN C   4     157.525  13.843  58.0680  0.00  0.00     0.000 OA
ATOM     73   O  SGN C   4     158.630  15.726  57.0480  0.00  0.00     0.000 O
ATOM     74   S  SGN C   4     158.363  14.965  58.4290  0.00  0.00     0.000 S
ATOM     75   O  SGN C   4     159.677  14.576  58.8990  0.00  0.00     0.000 OA
ENDBRANCH 60 70
BRANCH 56 76
ATOM     76  O4  IDS C   5     159.723  17.877  52.9840  0.00  0.00     0.000 O
BRANCH 76 80
ATOM     77  C1  IDS C   5     156.991  19.310  55.6560  0.00  0.00     0.000 C
ATOM     78  C2  IDS C   5     156.499  19.262  54.2100  0.00  0.00     0.000 C
ATOM     79  C3  IDS C   5     157.381  18.335  53.3970  0.00  0.00     0.000 C
ATOM     80  C4  IDS C   5     158.789  18.918  53.3080  0.00  0.00     0.000 C
ATOM     81  C5  IDS C   5     159.155  19.570  54.6490  0.00  0.00     0.000 C
ATOM     82  O5  IDS C   5     158.384  19.001  55.7110  0.00  0.00     0.000 O
BRANCH 78 83
ATOM     83   O  IDS C   5     155.107  18.759  54.1470  0.00  0.00     0.000 O
ATOM     84   S  IDS C   5     154.478  18.340  52.7420  0.00  0.00     0.000 S
ATOM     85   O  IDS C   5     154.760  19.426  51.8420  0.00  0.00     0.000 OA
ATOM     86   O  IDS C   5     155.148  17.113  52.3780  0.00  0.00     0.000 OA
ATOM     87   O  IDS C   5     153.069  18.152  52.9850  0.00  0.00     0.000 OA
ENDBRANCH 78 83
BRANCH 81 88
ATOM     88   C  IDS C   5     160.620  19.430  55.0220  0.00  0.00     0.000 C
ATOM     89   O  IDS C   5     160.964  18.566  55.7840  0.00  0.00     0.000 OA
ATOM     90   O  IDS C   5     161.433  20.189  54.5470  0.00  0.00     0.000 OA
ENDBRANCH 81 88
ENDBRANCH 76 80
ENDBRANCH 56 76
ENDBRANCH 55 59
ENDBRANCH 39 55
ENDBRANCH 38 42
ENDBRANCH 18 38
ENDBRANCH 17 21
ENDBRANCH 1 17
TORSDOF 18
ENDMDL
MODEL 11
REMARK VINA RESULT:      -8.7     20.086     24.026
ROOT
ATOM      1  C1  IDS C   1     159.519  34.325  51.6940  0.00  0.00     0.000 C
ATOM      2  C2  IDS C   1     158.654  33.196  51.1280  0.00  0.00     0.000 C
ATOM      3  C3  IDS C   1     157.175  33.540  51.2390  0.00  0.00     0.000 C
ATOM      4  C4  IDS C   1     156.790  33.788  52.6910  0.00  0.00     0.000 C
ATOM      5  C5  IDS C   1     157.902  34.550  53.4050  0.00  0.00     0.000 C
ATOM      6  O5  IDS C   1     158.723  35.227  52.4530  0.00  0.00     0.000 O
ATOM      7   O  IDS C   1     156.386  32.470  50.6990  0.00  0.00     0.000 O
ATOM      9  HD  IDS C   1     156.805  32.142  50.0160  0.00  0.00     0.000 HD
ENDROOT
BRANCH 2 9
ATOM      9   O  IDS C   1     158.953  32.970  49.6960  0.00  0.00     0.000 O
ATOM     10   S  IDS C   1     159.431  31.528  49.2130  0.00  0.00     0.000 S
ATOM     11   O  IDS C   1     159.624  31.632  47.7840  0.00  0.00     0.000 OA
ATOM     12   O  IDS C   1     160.662  31.265  49.9300  0.00  0.00     0.000 OA
ATOM     13   O  IDS C   1     158.366  30.618  49.5710  0.00  0.00     0.000 OA
ENDBRANCH 2 9
BRANCH 5 14
ATOM     14   C  IDS C   1     157.356  35.576  54.3850  0.00  0.00     0.000 C
ATOM     15   O  IDS C   1     158.042  35.935  55.3110  0.00  0.00     0.000 OA
ATOM     16   O  IDS C   1     156.233  36.024  54.2290  0.00  0.00     0.000 OA
ENDBRANCH 5 14
BRANCH 1 17
ATOM     17  O4  SGN C   2     160.632  34.759  51.0960  0.00  0.00     0.000 O
BRANCH 17 21
ATOM     18  C1  SGN C   2     163.017  37.621  49.1850  0.00  0.00     0.000 C
ATOM     19  C2  SGN C   2     161.742  38.133  49.8670  0.00  0.00     0.000 C
ATOM     20  C3  SGN C   2     161.222  37.081  50.8550  0.00  0.00     0.000 C
ATOM     21  C4  SGN C   2     161.052  35.740  50.1510  0.00  0.00     0.000 C
ATOM     22  C5  SGN C   2     162.381  35.336  49.5200  0.00  0.00     0.000 C
ATOM     23  O5  SGN C   2     162.810  36.357  48.5900  0.00  0.00     0.000 O
ATOM     24   O  SGN C   2     159.997  37.516  51.4210  0.00  0.00     0.000 O
ATOM     26  HD  SGN C   2     160.787  37.160  51.4150  0.00  0.00     0.000 HD
BRANCH 19 28
ATOM     26   N  SGN C   2     162.027  39.571  49.9770  0.00  0.00     0.000 N
ATOM     28  HD  SGN C   2     162.389  39.346  49.2230  0.00  0.00     0.000 HD
ATOM     28   O  SGN C   2     161.325  41.835  50.7540  0.00  0.00     0.000 OA
ATOM     29   S  SGN C   2     160.889  40.689  49.7790  0.00  0.00     0.000 S
ATOM     30   O  SGN C   2     160.984  41.164  48.4520  0.00  0.00     0.000 OA
ATOM     31   O  SGN C   2     159.661  40.143  50.2430  0.00  0.00     0.000 OA
ENDBRANCH 19 28
BRANCH 22 32
ATOM     32   C  SGN C   2     162.308  34.043  48.7450  0.00  0.00     0.000 C
ATOM     33   S  SGN C   2     163.882  32.473  47.4420  0.00  0.00     0.000 S
ATOM     34   O  SGN C   2     163.920  33.349  46.2980  0.00  0.00     0.000 OA
ATOM     35   O  SGN C   2     165.154  31.847  47.7370  0.00  0.00     0.000 OA
ATOM     36   O  SGN C   2     162.773  31.548  47.4380  0.00  0.00     0.000 OA
ATOM     37   O  SGN C   2     163.610  33.449  48.6750  0.00  0.00     0.000 O
ENDBRANCH 22 32
BRANCH 18 38
ATOM     38  O4  IDS C   3     164.272  37.566  49.6350  0.00  0.00     0.000 O
BRANCH 38 42
ATOM     39  C1  IDS C   3     167.302  36.747  51.1440  0.00  0.00     0.000 C
ATOM     40  C2  IDS C   3     166.004  36.822  51.9640  0.00  0.00     0.000 C
ATOM     41  C3  IDS C   3     165.286  38.153  51.7430  0.00  0.00     0.000 C
ATOM     42  C4  IDS C   3     165.179  38.481  50.2600  0.00  0.00     0.000 C
ATOM     43  C5  IDS C   3     166.561  38.379  49.6040  0.00  0.00     0.000 C
ATOM     44  O5  IDS C   3     167.065  37.056  49.7810  0.00  0.00     0.000 O
ATOM     45   O  IDS C   3     165.999  39.192  52.4160  0.00  0.00     0.000 O
ATOM     47  HD  IDS C   3     166.814  39.484  52.4020  0.00  0.00     0.000 HD
BRANCH 40 47
ATOM     47   O  IDS C   3     165.072  35.742  51.5620  0.00  0.00     0.000 O
ATOM     48   S  IDS C   3     165.311  34.249  52.0830  0.00  0.00     0.000 S
ATOM     49   O  IDS C   3     166.391  33.716  51.2800  0.00  0.00     0.000 OA
ATOM     50   O  IDS C   3     164.060  33.561  51.8540  0.00  0.00     0.000 OA
ATOM     51   O  IDS C   3     165.653  34.354  53.4760  0.00  0.00     0.000 OA
ENDBRANCH 40 47
BRANCH 43 52
ATOM     52   C  IDS C   3     166.536  38.720  48.1300  0.00  0.00     0.000 C
ATOM     53   O  IDS C   3     166.121  39.796  47.7670  0.00  0.00     0.000 OA
ATOM     54   O  IDS C   3     166.932  37.916  47.3250  0.00  0.00     0.000 OA
ENDBRANCH 43 52
BRANCH 39 55
ATOM     55  O4  SGN C   4     168.486  37.162  51.5960  0.00  0.00     0.000 O
BRANCH 55 59
ATOM     56  C1  SGN C   4     170.859  34.059  53.0960  0.00  0.00     0.000 C
ATOM     57  C2  SGN C   4     170.394  35.120  54.1080  0.00  0.00     0.000 C
ATOM     58  C3  SGN C   4     169.243  35.945  53.5380  0.00  0.00     0.000 C
ATOM     59  C4  SGN C   4     169.602  36.486  52.1580  0.00  0.00     0.000 C
ATOM     60  C5  SGN C   4     170.007  35.316  51.2640  0.00  0.00     0.000 C
ATOM     61  O5  SGN C   4     171.155  34.673  51.8520  0.00  0.00     0.000 O
ATOM     62   O  SGN C   4     168.934  37.009  54.4280  0.00  0.00     0.000 O
ATOM     64  HD  SGN C   4     169.255  36.387  54.9380  0.00  0.00     0.000 HD
BRANCH 57 66
ATOM     64   N  SGN C   4     171.006  35.499  55.3920  0.00  0.00     0.000 N
ATOM     66  HD  SGN C   4     170.774  35.478  56.2260  0.00  0.00     0.000 HD
ATOM     66   S  SGN C   4     171.112  34.444  56.5840  0.00  0.00     0.000 S
ATOM     67   O  SGN C   4     171.684  35.113  57.6950  0.00  0.00     0.000 OA
ATOM     68   O  SGN C   4     169.833  33.836  56.7170  0.00  0.00     0.000 OA
ATOM     69   O  SGN C   4     172.119  33.377  56.0460  0.00  0.00     0.000 OA
ENDBRANCH 57 66
BRANCH 60 70
ATOM     70   C  SGN C   4     170.379  35.726  49.8550  0.00  0.00     0.000 C
ATOM     71   O  SGN C   4     171.332  33.451  47.0220  0.00  0.00     0.000 OA
ATOM     72   O  SGN C   4     169.198  34.526  47.3950  0.00  0.00     0.000 OA
ATOM     73   O  SGN C   4     170.882  34.595  49.1170  0.00  0.00     0.000 O
ATOM     74   S  SGN C   4     170.634  34.606  47.5370  0.00  0.00     0.000 S
ATOM     75   O  SGN C   4     171.189  35.866  47.0840  0.00  0.00     0.000 OA
ENDBRANCH 60 70
BRANCH 56 76
ATOM     76  O4  IDS C   5     170.566  32.768  52.8540  0.00  0.00     0.000 O
BRANCH 76 80
ATOM     77  C1  IDS C   5     170.026  29.019  51.3330  0.00  0.00     0.000 C
ATOM     78  C2  IDS C   5     169.831  30.148  50.3220  0.00  0.00     0.000 C
ATOM     79  C3  IDS C   5     170.467  31.422  50.8430  0.00  0.00     0.000 C
ATOM     80  C4  IDS C   5     169.725  31.889  52.0920  0.00  0.00     0.000 C
ATOM     81  C5  IDS C   5     169.326  30.668  52.9330  0.00  0.00     0.000 C
ATOM     82  O5  IDS C   5     170.182  29.558  52.6460  0.00  0.00     0.000 O
BRANCH 78 83
ATOM     83   O  IDS C   5     170.463  29.806  49.0260  0.00  0.00     0.000 O
ATOM     84   S  IDS C   5     169.558  29.632  47.7240  0.00  0.00     0.000 S
ATOM     85   O  IDS C   5     168.477  28.764  48.1070  0.00  0.00     0.000 OA
ATOM     86   O  IDS C   5     169.123  30.966  47.3840  0.00  0.00     0.000 OA
ATOM     87   O  IDS C   5     170.422  29.057  46.7220  0.00  0.00     0.000 OA
ENDBRANCH 78 83
BRANCH 81 88
ATOM     88   C  IDS C   5     169.374  30.908  54.4300  0.00  0.00     0.000 C
ATOM     89   O  IDS C   5     168.434  31.407  54.9880  0.00  0.00     0.000 OA
ATOM     90   O  IDS C   5     170.362  30.594  55.0550  0.00  0.00     0.000 OA
ENDBRANCH 81 88
ENDBRANCH 76 80
ENDBRANCH 56 76
ENDBRANCH 55 59
ENDBRANCH 39 55
ENDBRANCH 38 42
ENDBRANCH 18 38
ENDBRANCH 17 21
ENDBRANCH 1 17
TORSDOF 18
ENDMDL
MODEL 12
REMARK VINA RESULT:      -8.6     22.274     28.986
ROOT
ATOM      1  C1  IDS C   1     160.008  34.390  47.4810  0.00  0.00     0.000 C
ATOM      2  C2  IDS C   1     161.298  33.593  47.6970  0.00  0.00     0.000 C
ATOM      3  C3  IDS C   1     162.335  33.946  46.6410  0.00  0.00     0.000 C
ATOM      4  C4  IDS C   1     161.797  33.661  45.2450  0.00  0.00     0.000 C
ATOM      5  C5  IDS C   1     160.325  34.050  45.1620  0.00  0.00     0.000 C
ATOM      6  O5  IDS C   1     160.006  34.988  46.1900  0.00  0.00     0.000 O
ATOM      7   O  IDS C   1     163.534  33.192  46.8670  0.00  0.00     0.000 O
ATOM      9  HD  IDS C   1     163.651  33.117  47.7220  0.00  0.00     0.000 HD
ENDROOT
BRANCH 2 9
ATOM      9   O  IDS C   1     161.888  33.897  49.0210  0.00  0.00     0.000 O
ATOM     10   S  IDS C   1     162.067  32.724  50.0860  0.00  0.00     0.000 S
ATOM     11   O  IDS C   1     162.674  33.333  51.2490  0.00  0.00     0.000 OA
ATOM     12   O  IDS C   1     160.732  32.224  50.3430  0.00  0.00     0.000 OA
ATOM     13   O  IDS C   1     162.924  31.744  49.4550  0.00  0.00     0.000 OA
ENDBRANCH 2 9
BRANCH 5 14
ATOM     14   C  IDS C   1     159.970  34.669  43.8200  0.00  0.00     0.000 C
ATOM     15   O  IDS C   1     159.218  35.612  43.7810  0.00  0.00     0.000 OA
ATOM     16   O  IDS C   1     160.445  34.207  42.7960  0.00  0.00     0.000 OA
ENDBRANCH 5 14
BRANCH 1 17
ATOM     17  O4  SGN C   2     159.327  34.957  48.4800  0.00  0.00     0.000 O
BRANCH 17 21
ATOM     18  C1  SGN C   2     157.997  38.500  50.2700  0.00  0.00     0.000 C
ATOM     19  C2  SGN C   2     159.084  38.639  49.1960  0.00  0.00     0.000 C
ATOM     20  C3  SGN C   2     159.153  37.356  48.3590  0.00  0.00     0.000 C
ATOM     21  C4  SGN C   2     159.331  36.145  49.2670  0.00  0.00     0.000 C
ATOM     22  C5  SGN C   2     158.193  36.114  50.2840  0.00  0.00     0.000 C
ATOM     23  O5  SGN C   2     158.189  37.340  51.0510  0.00  0.00     0.000 O
ATOM     24   O  SGN C   2     160.214  37.448  47.4230  0.00  0.00     0.000 O
ATOM     26  HD  SGN C   2     159.418  37.255  47.7030  0.00  0.00     0.000 HD
BRANCH 19 28
ATOM     26   N  SGN C   2     158.931  40.047  48.8040  0.00  0.00     0.000 N
ATOM     28  HD  SGN C   2     158.662  40.032  49.6270  0.00  0.00     0.000 HD
ATOM     28   O  SGN C   2     159.734  41.991  47.4620  0.00  0.00     0.000 OA
ATOM     29   S  SGN C   2     160.191  41.026  48.6070  0.00  0.00     0.000 S
ATOM     30   O  SGN C   2     160.339  41.774  49.7960  0.00  0.00     0.000 OA
ATOM     31   O  SGN C   2     161.277  40.240  48.1310  0.00  0.00     0.000 OA
ENDBRANCH 19 28
BRANCH 22 32
ATOM     32   C  SGN C   2     158.306  34.981  51.2740  0.00  0.00     0.000 C
ATOM     33   S  SGN C   2     156.878  33.851  53.0980  0.00  0.00     0.000 S
ATOM     34   O  SGN C   2     157.115  34.917  54.0400  0.00  0.00     0.000 OA
ATOM     35   O  SGN C   2     155.529  33.327  53.1430  0.00  0.00     0.000 OA
ATOM     36   O  SGN C   2     157.894  32.826  53.1010  0.00  0.00     0.000 OA
ATOM     37   O  SGN C   2     156.996  34.555  51.6700  0.00  0.00     0.000 O
ENDBRANCH 22 32
BRANCH 18 38
ATOM     38  O4  IDS C   3     156.670  38.610  50.1730  0.00  0.00     0.000 O
BRANCH 38 42
ATOM     39  C1  IDS C   3     153.638  39.164  48.5530  0.00  0.00     0.000 C
ATOM     40  C2  IDS C   3     154.900  39.947  48.1600  0.00  0.00     0.000 C
ATOM     41  C3  IDS C   3     155.552  40.594  49.3810  0.00  0.00     0.000 C
ATOM     42  C4  IDS C   3     155.694  39.597  50.5230  0.00  0.00     0.000 C
ATOM     43  C5  IDS C   3     154.344  38.924  50.7960  0.00  0.00     0.000 C
ATOM     44  O5  IDS C   3     153.906  38.259  49.6120  0.00  0.00     0.000 O
ATOM     45   O  IDS C   3     154.761  41.705  49.8070  0.00  0.00     0.000 O
ATOM     47  HD  IDS C   3     153.932  41.816  50.0320  0.00  0.00     0.000 HD
BRANCH 40 47
ATOM     47   O  IDS C   3     155.903  39.044  47.5460  0.00  0.00     0.000 O
ATOM     48   S  IDS C   3     156.321  39.243  46.0150  0.00  0.00     0.000 S
ATOM     49   O  IDS C   3     155.237  38.690  45.2320  0.00  0.00     0.000 OA
ATOM     50   O  IDS C   3     157.552  38.499  45.8580  0.00  0.00     0.000 OA
ATOM     51   O  IDS C   3     156.485  40.658  45.8190  0.00  0.00     0.000 OA
ENDBRANCH 40 47
BRANCH 43 52
ATOM     52   C  IDS C   3     154.402  37.937  51.9400  0.00  0.00     0.000 C
ATOM     53   O  IDS C   3     155.306  37.995  52.7410  0.00  0.00     0.000 OA
ATOM     54   O  IDS C   3     153.545  37.097  52.0480  0.00  0.00     0.000 OA
ENDBRANCH 43 52
BRANCH 39 55
ATOM     55  O4  SGN C   4     152.418  39.701  48.5940  0.00  0.00     0.000 O
BRANCH 55 59
ATOM     56  C1  SGN C   4     148.811  38.142  47.1580  0.00  0.00     0.000 C
ATOM     57  C2  SGN C   4     150.041  37.979  46.2480  0.00  0.00     0.000 C
ATOM     58  C3  SGN C   4     151.329  38.219  47.0310  0.00  0.00     0.000 C
ATOM     59  C4  SGN C   4     151.259  39.540  47.7890  0.00  0.00     0.000 C
ATOM     60  C5  SGN C   4     150.010  39.536  48.6680  0.00  0.00     0.000 C
ATOM     61  O5  SGN C   4     148.857  39.398  47.8150  0.00  0.00     0.000 O
ATOM     62   O  SGN C   4     152.436  38.210  46.1400  0.00  0.00     0.000 O
ATOM     64  HD  SGN C   4     151.850  37.696  45.7630  0.00  0.00     0.000 HD
BRANCH 57 66
ATOM     64   N  SGN C   4     149.726  36.662  45.6710  0.00  0.00     0.000 N
ATOM     66  HD  SGN C   4     149.094  36.328  45.1830  0.00  0.00     0.000 HD
ATOM     66   S  SGN C   4     149.445  36.507  44.1080  0.00  0.00     0.000 S
ATOM     67   O  SGN C   4     149.115  35.149  43.8690  0.00  0.00     0.000 OA
ATOM     68   O  SGN C   4     148.520  37.525  43.7490  0.00  0.00     0.000 OA
ATOM     69   O  SGN C   4     150.825  36.829  43.4490  0.00  0.00     0.000 OA
ENDBRANCH 57 66
BRANCH 60 70
ATOM     70   C  SGN C   4     149.833  40.799  49.4830  0.00  0.00     0.000 C
ATOM     71   O  SGN C   4     146.645  42.712  50.0160  0.00  0.00     0.000 OA
ATOM     72   O  SGN C   4     147.718  41.178  51.5470  0.00  0.00     0.000 OA
ATOM     73   O  SGN C   4     148.518  41.350  49.2810  0.00  0.00     0.000 O
ATOM     74   S  SGN C   4     147.890  42.165  50.5050  0.00  0.00     0.000 S
ATOM     75   O  SGN C   4     148.879  43.175  50.8240  0.00  0.00     0.000 OA
ENDBRANCH 60 70
BRANCH 56 76
ATOM     76  O4  IDS C   5     148.051  37.319  47.9050  0.00  0.00     0.000 O
BRANCH 76 80
ATOM     77  C1  IDS C   5     145.340  34.950  45.9830  0.00  0.00     0.000 C
ATOM     78  C2  IDS C   5     144.745  36.203  46.6250  0.00  0.00     0.000 C
ATOM     79  C3  IDS C   5     145.846  37.206  46.9120  0.00  0.00     0.000 C
ATOM     80  C4  IDS C   5     146.788  36.640  47.9700  0.00  0.00     0.000 C
ATOM     81  C5  IDS C   5     146.976  35.135  47.7310  0.00  0.00     0.000 C
ATOM     82  O5  IDS C   5     146.708  34.806  46.3650  0.00  0.00     0.000 O
BRANCH 78 83
ATOM     83   O  IDS C   5     143.759  36.837  45.7190  0.00  0.00     0.000 O
ATOM     84   S  IDS C   5     142.198  36.675  46.0080  0.00  0.00     0.000 S
ATOM     85   O  IDS C   5     141.982  35.272  46.2360  0.00  0.00     0.000 OA
ATOM     86   O  IDS C   5     141.944  37.486  47.1760  0.00  0.00     0.000 OA
ATOM     87   O  IDS C   5     141.529  37.171  44.8300  0.00  0.00     0.000 OA
ENDBRANCH 78 83
BRANCH 81 88
ATOM     88   C  IDS C   5     148.369  34.628  48.0590  0.00  0.00     0.000 C
ATOM     89   O  IDS C   5     149.135  34.365  47.1710  0.00  0.00     0.000 OA
ATOM     90   O  IDS C   5     148.700  34.493  49.2140  0.00  0.00     0.000 OA
ENDBRANCH 81 88
ENDBRANCH 76 80
ENDBRANCH 56 76
ENDBRANCH 55 59
ENDBRANCH 39 55
ENDBRANCH 38 42
ENDBRANCH 18 38
ENDBRANCH 17 21
ENDBRANCH 1 17
TORSDOF 18
ENDMDL
MODEL 13
REMARK VINA RESULT:      -8.6      5.154     11.588
ROOT
ATOM      1  C1  IDS C   1     144.306  21.553  56.1770  0.00  0.00     0.000 C
ATOM      2  C2  IDS C   1     143.403  22.137  57.2680  0.00  0.00     0.000 C
ATOM      3  C3  IDS C   1     142.003  22.396  56.7290  0.00  0.00     0.000 C
ATOM      4  C4  IDS C   1     142.051  23.356  55.5490  0.00  0.00     0.000 C
ATOM      5  C5  IDS C   1     143.262  23.050  54.6730  0.00  0.00     0.000 C
ATOM      6  O5  IDS C   1     143.705  21.711  54.8990  0.00  0.00     0.000 O
ATOM      7   O  IDS C   1     141.176  22.937  57.7690  0.00  0.00     0.000 O
ATOM      9  HD  IDS C   1     141.396  22.559  58.5160  0.00  0.00     0.000 HD
ENDROOT
BRANCH 2 9
ATOM      9   O  IDS C   1     143.277  21.198  58.4060  0.00  0.00     0.000 O
ATOM     10   S  IDS C   1     143.520  21.729  59.8900  0.00  0.00     0.000 S
ATOM     11   O  IDS C   1     143.311  20.591  60.7570  0.00  0.00     0.000 OA
ATOM     12   O  IDS C   1     144.885  22.212  59.9120  0.00  0.00     0.000 OA
ATOM     13   O  IDS C   1     142.547  22.779  60.0980  0.00  0.00     0.000 OA
ENDBRANCH 2 9
BRANCH 5 14
ATOM     14   C  IDS C   1     142.955  23.212  53.1940  0.00  0.00     0.000 C
ATOM     15   O  IDS C   1     141.896  23.680  52.8560  0.00  0.00     0.000 OA
ATOM     16   O  IDS C   1     143.779  22.868  52.3640  0.00  0.00     0.000 OA
ENDBRANCH 5 14
BRANCH 1 17
ATOM     17  O4  SGN C   2     145.151  20.542  56.3970  0.00  0.00     0.000 O
BRANCH 17 21
ATOM     18  C1  SGN C   2     146.677  16.781  55.3690  0.00  0.00     0.000 C
ATOM     19  C2  SGN C   2     145.499  17.296  54.5330  0.00  0.00     0.000 C
ATOM     20  C3  SGN C   2     145.339  18.808  54.7360  0.00  0.00     0.000 C
ATOM     21  C4  SGN C   2     145.232  19.130  56.2220  0.00  0.00     0.000 C
ATOM     22  C5  SGN C   2     146.458  18.574  56.9410  0.00  0.00     0.000 C
ATOM     23  O5  SGN C   2     146.545  17.146  56.7270  0.00  0.00     0.000 O
ATOM     24   O  SGN C   2     144.198  19.271  54.0330  0.00  0.00     0.000 O
ATOM     26  HD  SGN C   2     145.014  19.290  54.3220  0.00  0.00     0.000 HD
BRANCH 19 28
ATOM     26   N  SGN C   2     145.598  16.450  53.3360  0.00  0.00     0.000 N
ATOM     28  HD  SGN C   2     145.862  15.931  53.9770  0.00  0.00     0.000 HD
ATOM     28   O  SGN C   2     144.729  15.825  51.0830  0.00  0.00     0.000 OA
ATOM     29   S  SGN C   2     144.301  15.862  52.5890  0.00  0.00     0.000 S
ATOM     30   O  SGN C   2     144.116  14.536  53.0390  0.00  0.00     0.000 OA
ATOM     31   O  SGN C   2     143.251  16.808  52.7390  0.00  0.00     0.000 OA
ENDBRANCH 19 28
BRANCH 22 32
ATOM     32   C  SGN C   2     146.424  18.788  58.4350  0.00  0.00     0.000 C
ATOM     33   S  SGN C   2     147.684  20.146  60.2270  0.00  0.00     0.000 S
ATOM     34   O  SGN C   2     148.810  19.246  60.2150  0.00  0.00     0.000 OA
ATOM     35   O  SGN C   2     148.055  21.539  60.3610  0.00  0.00     0.000 OA
ATOM     36   O  SGN C   2     146.620  19.746  61.1170  0.00  0.00     0.000 OA
ATOM     37   O  SGN C   2     147.069  20.026  58.7590  0.00  0.00     0.000 O
ENDBRANCH 22 32
BRANCH 18 38
ATOM     38  O4  IDS C   3     147.990  16.851  55.1410  0.00  0.00     0.000 O
BRANCH 38 42
ATOM     39  C1  IDS C   3     151.323  16.030  55.7320  0.00  0.00     0.000 C
ATOM     40  C2  IDS C   3     150.935  17.402  55.1580  0.00  0.00     0.000 C
ATOM     41  C3  IDS C   3     150.037  17.253  53.9300  0.00  0.00     0.000 C
ATOM     42  C4  IDS C   3     148.899  16.276  54.1950  0.00  0.00     0.000 C
ATOM     43  C5  IDS C   3     149.462  14.960  54.7440  0.00  0.00     0.000 C
ATOM     44  O5  IDS C   3     150.177  15.224  55.9500  0.00  0.00     0.000 O
ATOM     45   O  IDS C   3     150.818  16.795  52.8250  0.00  0.00     0.000 O
ATOM     47  HD  IDS C   3     151.340  16.118  52.6830  0.00  0.00     0.000 HD
BRANCH 40 47
ATOM     47   O  IDS C   3     150.188  18.194  56.1630  0.00  0.00     0.000 O
ATOM     48   S  IDS C   3     150.869  19.478  56.8300  0.00  0.00     0.000 S
ATOM     49   O  IDS C   3     151.797  18.968  57.8160  0.00  0.00     0.000 OA
ATOM     50   O  IDS C   3     149.780  20.219  57.4270  0.00  0.00     0.000 OA
ATOM     51   O  IDS C   3     151.522  20.192  55.7650  0.00  0.00     0.000 OA
ENDBRANCH 40 47
BRANCH 43 52
ATOM     52   C  IDS C   3     148.388  13.927  55.0050  0.00  0.00     0.000 C
ATOM     53   O  IDS C   3     148.443  13.237  55.9980  0.00  0.00     0.000 OA
ATOM     54   O  IDS C   3     147.481  13.798  54.2230  0.00  0.00     0.000 OA
ENDBRANCH 43 52
BRANCH 39 55
ATOM     55  O4  SGN C   4     152.402  15.347  55.3500  0.00  0.00     0.000 O
BRANCH 55 59
ATOM     56  C1  SGN C   4     156.472  15.745  54.4700  0.00  0.00     0.000 C
ATOM     57  C2  SGN C   4     155.715  17.037  54.8200  0.00  0.00     0.000 C
ATOM     58  C3  SGN C   4     154.382  16.718  55.4910  0.00  0.00     0.000 C
ATOM     59  C4  SGN C   4     153.590  15.713  54.6630  0.00  0.00     0.000 C
ATOM     60  C5  SGN C   4     154.458  14.478  54.4290  0.00  0.00     0.000 C
ATOM     61  O5  SGN C   4     155.639  14.885  53.7090  0.00  0.00     0.000 O
ATOM     62   O  SGN C   4     153.640  17.917  55.6680  0.00  0.00     0.000 O
ATOM     64  HD  SGN C   4     154.468  18.171  55.6850  0.00  0.00     0.000 HD
BRANCH 57 66
ATOM     64   N  SGN C   4     156.352  18.192  54.1660  0.00  0.00     0.000 N
ATOM     66  HD  SGN C   4     156.436  19.037  54.3340  0.00  0.00     0.000 HD
ATOM     66   S  SGN C   4     157.390  19.105  54.9640  0.00  0.00     0.000 S
ATOM     67   O  SGN C   4     157.780  20.159  54.1000  0.00  0.00     0.000 OA
ATOM     68   O  SGN C   4     156.796  19.413  56.2180  0.00  0.00     0.000 OA
ATOM     69   O  SGN C   4     158.608  18.156  55.2060  0.00  0.00     0.000 OA
ENDBRANCH 57 66
BRANCH 60 70
ATOM     70   C  SGN C   4     153.775  13.396  53.6210  0.00  0.00     0.000 C
ATOM     71   O  SGN C   4     152.703  10.009  54.8390  0.00  0.00     0.000 OA
ATOM     72   O  SGN C   4     151.314  11.958  54.4910  0.00  0.00     0.000 OA
ATOM     73   O  SGN C   4     153.711  12.169  54.3730  0.00  0.00     0.000 O
ATOM     74   S  SGN C   4     152.472  11.206  54.0640  0.00  0.00     0.000 S
ATOM     75   O  SGN C   4     152.522  10.986  52.6320  0.00  0.00     0.000 OA
ENDBRANCH 60 70
BRANCH 56 76
ATOM     76  O4  IDS C   5     157.402  14.981  55.0730  0.00  0.00     0.000 O
BRANCH 76 80
ATOM     77  C1  IDS C   5     159.173  12.693  57.9520  0.00  0.00     0.000 C
ATOM     78  C2  IDS C   5     158.597  14.015  58.4580  0.00  0.00     0.000 C
ATOM     79  C3  IDS C   5     157.606  14.564  57.4500  0.00  0.00     0.000 C
ATOM     80  C4  IDS C   5     158.337  14.928  56.1610  0.00  0.00     0.000 C
ATOM     81  C5  IDS C   5     159.426  13.883  55.8810  0.00  0.00     0.000 C
ATOM     82  O5  IDS C   5     159.113  12.645  56.5260  0.00  0.00     0.000 O
BRANCH 78 83
ATOM     83   O  IDS C   5     157.895  13.821  59.7480  0.00  0.00     0.000 O
ATOM     84   S  IDS C   5     158.479  14.483  61.0760  0.00  0.00     0.000 S
ATOM     85   O  IDS C   5     159.878  14.147  61.1030  0.00  0.00     0.000 OA
ATOM     86   O  IDS C   5     158.238  15.899  60.9320  0.00  0.00     0.000 OA
ATOM     87   O  IDS C   5     157.732  13.900  62.1640  0.00  0.00     0.000 OA
ENDBRANCH 78 83
BRANCH 81 88
ATOM     88   C  IDS C   5     159.635  13.590  54.4070  0.00  0.00     0.000 C
ATOM     89   O  IDS C   5     160.200  14.392  53.7110  0.00  0.00     0.000 OA
ATOM     90   O  IDS C   5     159.232  12.550  53.9400  0.00  0.00     0.000 OA
ENDBRANCH 81 88
ENDBRANCH 76 80
ENDBRANCH 56 76
ENDBRANCH 55 59
ENDBRANCH 39 55
ENDBRANCH 38 42
ENDBRANCH 18 38
ENDBRANCH 17 21
ENDBRANCH 1 17
TORSDOF 18
ENDMDL
MODEL 14
REMARK VINA RESULT:      -8.4     17.818     22.791
ROOT
ATOM      1  C1  IDS C   1     160.669  29.071  77.6450  0.00  0.00     0.000 C
ATOM      2  C2  IDS C   1     160.273  29.874  76.4020  0.00  0.00     0.000 C
ATOM      3  C3  IDS C   1     159.925  31.308  76.7740  0.00  0.00     0.000 C
ATOM      4  C4  IDS C   1     158.780  31.339  77.7780  0.00  0.00     0.000 C
ATOM      5  C5  IDS C   1     158.940  30.208  78.7890  0.00  0.00     0.000 C
ATOM      6  O5  IDS C   1     160.298  29.770  78.8260  0.00  0.00     0.000 O
ATOM      7   O  IDS C   1     159.562  32.040  75.5950  0.00  0.00     0.000 O
ATOM      9  HD  IDS C   1     160.060  31.768  74.9410  0.00  0.00     0.000 HD
ENDROOT
BRANCH 2 9
ATOM      9   O  IDS C   1     161.388  29.923  75.4300  0.00  0.00     0.000 O
ATOM     10   S  IDS C   1     161.140  29.448  73.9280  0.00  0.00     0.000 S
ATOM     11   O  IDS C   1     162.399  29.630  73.2410  0.00  0.00     0.000 OA
ATOM     12   O  IDS C   1     160.744  28.057  74.0200  0.00  0.00     0.000 OA
ATOM     13   O  IDS C   1     160.091  30.299  73.4130  0.00  0.00     0.000 OA
ENDBRANCH 2 9
BRANCH 5 14
ATOM     14   C  IDS C   1     158.531  30.629  80.1900  0.00  0.00     0.000 C
ATOM     15   O  IDS C   1     157.810  29.912  80.8390  0.00  0.00     0.000 OA
ATOM     16   O  IDS C   1     158.932  31.687  80.6450  0.00  0.00     0.000 OA
ENDBRANCH 5 14
BRANCH 1 17
ATOM     17  O4  SGN C   2     161.705  28.227  77.6660  0.00  0.00     0.000 O
BRANCH 17 21
ATOM     18  C1  SGN C   2     165.380  26.830  79.1040  0.00  0.00     0.000 C
ATOM     19  C2  SGN C   2     164.703  27.942  79.9150  0.00  0.00     0.000 C
ATOM     20  C3  SGN C   2     163.223  28.041  79.5270  0.00  0.00     0.000 C
ATOM     21  C4  SGN C   2     163.086  28.204  78.0170  0.00  0.00     0.000 C
ATOM     22  C5  SGN C   2     163.791  27.041  77.3250  0.00  0.00     0.000 C
ATOM     23  O5  SGN C   2     165.183  27.010  77.7170  0.00  0.00     0.000 O
ATOM     24   O  SGN C   2     162.616  29.124  80.2110  0.00  0.00     0.000 O
ATOM     26  HD  SGN C   2     162.676  28.322  79.8890  0.00  0.00     0.000 HD
BRANCH 19 28
ATOM     26   N  SGN C   2     165.417  27.847  81.1960  0.00  0.00     0.000 N
ATOM     28  HD  SGN C   2     166.031  27.688  80.6050  0.00  0.00     0.000 HD
ATOM     28   O  SGN C   2     165.686  28.613  83.5540  0.00  0.00     0.000 OA
ATOM     29   S  SGN C   2     165.766  29.142  82.0830  0.00  0.00     0.000 S
ATOM     30   O  SGN C   2     167.103  29.501  81.8040  0.00  0.00     0.000 OA
ATOM     31   O  SGN C   2     164.727  30.092  81.8860  0.00  0.00     0.000 OA
ENDBRANCH 19 28
BRANCH 22 32
ATOM     32   C  SGN C   2     163.765  27.137  75.8190  0.00  0.00     0.000 C
ATOM     33   S  SGN C   2     164.000  25.586  73.7740  0.00  0.00     0.000 S
ATOM     34   O  SGN C   2     165.433  25.511  73.9090  0.00  0.00     0.000 OA
ATOM     35   O  SGN C   2     163.387  24.334  73.3820  0.00  0.00     0.000 OA
ATOM     36   O  SGN C   2     163.540  26.717  73.0040  0.00  0.00     0.000 OA
ATOM     37   O  SGN C   2     163.478  25.850  75.2590  0.00  0.00     0.000 O
ENDBRANCH 22 32
BRANCH 18 38
ATOM     38  O4  IDS C   3     165.351  25.505  79.2660  0.00  0.00     0.000 O
BRANCH 38 42
ATOM     39  C1  IDS C   3     166.938  22.408  79.1550  0.00  0.00     0.000 C
ATOM     40  C2  IDS C   3     167.301  23.520  78.1580  0.00  0.00     0.000 C
ATOM     41  C3  IDS C   3     166.055  24.067  77.4630  0.00  0.00     0.000 C
ATOM     42  C4  IDS C   3     164.957  24.383  78.4690  0.00  0.00     0.000 C
ATOM     43  C5  IDS C   3     164.710  23.165  79.3670  0.00  0.00     0.000 C
ATOM     44  O5  IDS C   3     165.920  22.832  80.0450  0.00  0.00     0.000 O
ATOM     45   O  IDS C   3     165.581  23.107  76.5170  0.00  0.00     0.000 O
ATOM     47  HD  IDS C   3     165.350  22.274  76.5540  0.00  0.00     0.000 HD
BRANCH 40 47
ATOM     47   O  IDS C   3     167.955  24.652  78.8560  0.00  0.00     0.000 O
ATOM     48   S  IDS C   3     169.479  25.013  78.5330  0.00  0.00     0.000 S
ATOM     49   O  IDS C   3     170.278  24.028  79.2290  0.00  0.00     0.000 OA
ATOM     50   O  IDS C   3     169.672  26.349  79.0530  0.00  0.00     0.000 OA
ATOM     51   O  IDS C   3     169.620  24.937  77.1030  0.00  0.00     0.000 OA
ENDBRANCH 40 47
BRANCH 43 52
ATOM     52   C  IDS C   3     163.608  23.396  80.3770  0.00  0.00     0.000 C
ATOM     53   O  IDS C   3     162.558  23.882  80.0240  0.00  0.00     0.000 OA
ATOM     54   O  IDS C   3     163.782  23.093  81.5300  0.00  0.00     0.000 OA
ENDBRANCH 43 52
BRANCH 39 55
ATOM     55  O4  SGN C   4     166.872  21.116  78.8300  0.00  0.00     0.000 O
BRANCH 55 59
ATOM     56  C1  SGN C   4     165.014  17.806  77.0700  0.00  0.00     0.000 C
ATOM     57  C2  SGN C   4     165.627  18.841  76.1110  0.00  0.00     0.000 C
ATOM     58  C3  SGN C   4     166.593  19.761  76.8530  0.00  0.00     0.000 C
ATOM     59  C4  SGN C   4     165.931  20.348  78.0940  0.00  0.00     0.000 C
ATOM     60  C5  SGN C   4     165.405  19.203  78.9570  0.00  0.00     0.000 C
ATOM     61  O5  SGN C   4     164.437  18.463  78.1870  0.00  0.00     0.000 O
ATOM     62   O  SGN C   4     167.030  20.795  75.9810  0.00  0.00     0.000 O
ATOM     64  HD  SGN C   4     166.852  20.130  75.4560  0.00  0.00     0.000 HD
BRANCH 57 66
ATOM     64   N  SGN C   4     166.291  18.259  74.9330  0.00  0.00     0.000 N
ATOM     66  HD  SGN C   4     166.155  17.583  74.4090  0.00  0.00     0.000 HD
ATOM     66   S  SGN C   4     165.473  17.998  73.5880  0.00  0.00     0.000 S
ATOM     67   O  SGN C   4     166.357  17.381  72.6660  0.00  0.00     0.000 OA
ATOM     68   O  SGN C   4     164.270  17.334  73.9540  0.00  0.00     0.000 OA
ATOM     69   O  SGN C   4     165.119  19.434  73.0850  0.00  0.00     0.000 OA
ENDBRANCH 57 66
BRANCH 60 70
ATOM     70   C  SGN C   4     164.729  19.660  80.2320  0.00  0.00     0.000 C
ATOM     71   O  SGN C   4     164.317  17.685  83.4000  0.00  0.00     0.000 OA
ATOM     72   O  SGN C   4     165.937  19.422  82.9460  0.00  0.00     0.000 OA
ATOM     73   O  SGN C   4     164.584  18.559  81.1490  0.00  0.00     0.000 O
ATOM     74   S  SGN C   4     164.603  18.920  82.7070  0.00  0.00     0.000 S
ATOM     75   O  SGN C   4     163.571  19.925  82.8670  0.00  0.00     0.000 OA
ENDBRANCH 60 70
BRANCH 56 76
ATOM     76  O4  IDS C   5     165.311  16.549  77.4470  0.00  0.00     0.000 O
BRANCH 76 80
ATOM     77  C1  IDS C   5     168.695  15.103  75.6810  0.00  0.00     0.000 C
ATOM     78  C2  IDS C   5     167.408  14.389  75.2670  0.00  0.00     0.000 C
ATOM     79  C3  IDS C   5     166.209  15.250  75.6100  0.00  0.00     0.000 C
ATOM     80  C4  IDS C   5     166.101  15.394  77.1250  0.00  0.00     0.000 C
ATOM     81  C5  IDS C   5     167.508  15.523  77.7260  0.00  0.00     0.000 C
ATOM     82  O5  IDS C   5     168.429  16.015  76.7470  0.00  0.00     0.000 O
BRANCH 78 83
ATOM     83   O  IDS C   5     167.398  14.133  73.8070  0.00  0.00     0.000 O
ATOM     84   S  IDS C   5     166.991  12.692  73.2580  0.00  0.00     0.000 S
ATOM     85   O  IDS C   5     167.756  11.745  74.0240  0.00  0.00     0.000 OA
ATOM     86   O  IDS C   5     165.568  12.588  73.4870  0.00  0.00     0.000 OA
ATOM     87   O  IDS C   5     167.330  12.697  71.8560  0.00  0.00     0.000 OA
ENDBRANCH 78 83
BRANCH 81 88
ATOM     88   C  IDS C   5     167.582  16.446  78.9280  0.00  0.00     0.000 C
ATOM     89   O  IDS C   5     166.969  16.180  79.9260  0.00  0.00     0.000 OA
ATOM     90   O  IDS C   5     168.261  17.446  78.8740  0.00  0.00     0.000 OA
ENDBRANCH 81 88
ENDBRANCH 76 80
ENDBRANCH 56 76
ENDBRANCH 55 59
ENDBRANCH 39 55
ENDBRANCH 38 42
ENDBRANCH 18 38
ENDBRANCH 17 21
ENDBRANCH 1 17
TORSDOF 18
ENDMDL
MODEL 15
REMARK VINA RESULT:      -8.4     26.153     30.656
ROOT
ATOM      1  C1  IDS C   1     148.507  42.426  69.9850  0.00  0.00     0.000 C
ATOM      2  C2  IDS C   1     147.973  43.028  68.6820  0.00  0.00     0.000 C
ATOM      3  C3  IDS C   1     148.770  44.264  68.2900  0.00  0.00     0.000 C
ATOM      4  C4  IDS C   1     148.708  45.314  69.3910  0.00  0.00     0.000 C
ATOM      5  C5  IDS C   1     148.785  44.643  70.7590  0.00  0.00     0.000 C
ATOM      6  O5  IDS C   1     149.372  43.347  70.6380  0.00  0.00     0.000 O
ATOM      7   O  IDS C   1     148.254  44.806  67.0660  0.00  0.00     0.000 O
ATOM      9  HD  IDS C   1     148.012  44.148  66.5580  0.00  0.00     0.000 HD
ENDROOT
BRANCH 2 9
ATOM      9   O  IDS C   1     148.081  42.056  67.5700  0.00  0.00     0.000 O
ATOM     10   S  IDS C   1     146.756  41.555  66.8360  0.00  0.00     0.000 S
ATOM     11   O  IDS C   1     147.196  40.640  65.8060  0.00  0.00     0.000 OA
ATOM     12   O  IDS C   1     145.963  40.910  67.8620  0.00  0.00     0.000 OA
ATOM     13   O  IDS C   1     146.128  42.743  66.3010  0.00  0.00     0.000 OA
ENDBRANCH 2 9
BRANCH 5 14
ATOM     14   C  IDS C   1     149.607  45.453  71.7480  0.00  0.00     0.000 C
ATOM     15   O  IDS C   1     149.721  46.644  71.5900  0.00  0.00     0.000 OA
ATOM     16   O  IDS C   1     150.144  44.893  72.6890  0.00  0.00     0.000 OA
ENDBRANCH 5 14
BRANCH 1 17
ATOM     17  O4  SGN C   2     148.672  41.113  70.1660  0.00  0.00     0.000 O
BRANCH 17 21
ATOM     18  C1  SGN C   2     150.971  37.810  71.3210  0.00  0.00     0.000 C
ATOM     19  C2  SGN C   2     151.625  39.189  71.4730  0.00  0.00     0.000 C
ATOM     20  C3  SGN C   2     150.550  40.282  71.4240  0.00  0.00     0.000 C
ATOM     21  C4  SGN C   2     149.706  40.132  70.1630  0.00  0.00     0.000 C
ATOM     22  C5  SGN C   2     149.109  38.729  70.1280  0.00  0.00     0.000 C
ATOM     23  O5  SGN C   2     150.169  37.745  70.1610  0.00  0.00     0.000 O
ATOM     24   O  SGN C   2     151.160  41.561  71.4770  0.00  0.00     0.000 O
ATOM     26  HD  SGN C   2     150.573  40.953  71.6670  0.00  0.00     0.000 HD
BRANCH 19 28
ATOM     26   N  SGN C   2     152.809  38.889  72.2900  0.00  0.00     0.000 N
ATOM     28  HD  SGN C   2     152.846  38.305  71.6520  0.00  0.00     0.000 HD
ATOM     28   O  SGN C   2     154.648  39.702  73.7670  0.00  0.00     0.000 OA
ATOM     29   S  SGN C   2     154.106  39.839  72.3040  0.00  0.00     0.000 S
ATOM     30   O  SGN C   2     155.053  39.280  71.4170  0.00  0.00     0.000 OA
ATOM     31   O  SGN C   2     153.664  41.176  72.1080  0.00  0.00     0.000 OA
ENDBRANCH 19 28
BRANCH 22 32
ATOM     32   C  SGN C   2     148.298  38.454  68.8860  0.00  0.00     0.000 C
ATOM     33   S  SGN C   2     146.118  37.251  68.2200  0.00  0.00     0.000 S
ATOM     34   O  SGN C   2     146.729  35.949  68.3090  0.00  0.00     0.000 OA
ATOM     35   O  SGN C   2     144.755  37.289  68.7090  0.00  0.00     0.000 OA
ATOM     36   O  SGN C   2     146.286  37.894  66.9380  0.00  0.00     0.000 OA
ATOM     37   O  SGN C   2     146.947  38.146  69.2500  0.00  0.00     0.000 O
ENDBRANCH 22 32
BRANCH 18 38
ATOM     38  O4  IDS C   3     150.313  37.065  72.2120  0.00  0.00     0.000 O
BRANCH 38 42
ATOM     39  C1  IDS C   3     149.048  34.596  74.3170  0.00  0.00     0.000 C
ATOM     40  C2  IDS C   3     149.042  34.415  72.7910  0.00  0.00     0.000 C
ATOM     41  C3  IDS C   3     148.394  35.610  72.0940  0.00  0.00     0.000 C
ATOM     42  C4  IDS C   3     148.949  36.925  72.6250  0.00  0.00     0.000 C
ATOM     43  C5  IDS C   3     148.860  36.947  74.1550  0.00  0.00     0.000 C
ATOM     44  O5  IDS C   3     149.604  35.849  74.6810  0.00  0.00     0.000 O
ATOM     45   O  IDS C   3     146.980  35.567  72.2980  0.00  0.00     0.000 O
ATOM     47  HD  IDS C   3     146.463  35.528  72.9910  0.00  0.00     0.000 HD
BRANCH 40 47
ATOM     47   O  IDS C   3     150.427  34.298  72.2760  0.00  0.00     0.000 O
ATOM     48   S  IDS C   3     151.001  32.866  71.8540  0.00  0.00     0.000 S
ATOM     49   O  IDS C   3     151.326  32.188  73.0900  0.00  0.00     0.000 OA
ATOM     50   O  IDS C   3     152.173  33.146  71.0530  0.00  0.00     0.000 OA
ATOM     51   O  IDS C   3     149.955  32.210  71.1160  0.00  0.00     0.000 OA
ENDBRANCH 40 47
BRANCH 43 52
ATOM     52   C  IDS C   3     149.370  38.239  74.7540  0.00  0.00     0.000 C
ATOM     53   O  IDS C   3     148.922  39.296  74.3760  0.00  0.00     0.000 OA
ATOM     54   O  IDS C   3     150.222  38.207  75.6050  0.00  0.00     0.000 OA
ENDBRANCH 43 52
BRANCH 39 55
ATOM     55  O4  SGN C   4     148.058  34.190  75.1130  0.00  0.00     0.000 O
BRANCH 55 59
ATOM     56  C1  SGN C   4     144.168  32.815  75.8090  0.00  0.00     0.000 C
ATOM     57  C2  SGN C   4     145.034  31.975  74.8540  0.00  0.00     0.000 C
ATOM     58  C3  SGN C   4     146.508  32.344  74.9940  0.00  0.00     0.000 C
ATOM     59  C4  SGN C   4     146.699  33.852  74.8760  0.00  0.00     0.000 C
ATOM     60  C5  SGN C   4     145.804  34.541  75.9050  0.00  0.00     0.000 C
ATOM     61  O5  SGN C   4     144.435  34.195  75.6170  0.00  0.00     0.000 O
ATOM     62   O  SGN C   4     147.265  31.664  74.0010  0.00  0.00     0.000 O
ATOM     64  HD  SGN C   4     146.584  31.148  74.1460  0.00  0.00     0.000 HD
BRANCH 57 66
ATOM     64   N  SGN C   4     144.283  30.772  75.2470  0.00  0.00     0.000 N
ATOM     66  HD  SGN C   4     143.522  30.414  75.0400  0.00  0.00     0.000 HD
ATOM     66   S  SGN C   4     143.763  29.743  74.1430  0.00  0.00     0.000 S
ATOM     67   O  SGN C   4     143.031  28.732  74.8160  0.00  0.00     0.000 OA
ATOM     68   O  SGN C   4     143.127  30.508  73.1270  0.00  0.00     0.000 OA
ATOM     69   O  SGN C   4     145.077  29.130  73.5600  0.00  0.00     0.000 OA
ENDBRANCH 57 66
BRANCH 60 70
ATOM     70   C  SGN C   4     145.911  36.050  75.8930  0.00  0.00     0.000 C
ATOM     71   O  SGN C   4     143.950  38.435  73.7550  0.00  0.00     0.000 OA
ATOM     72   O  SGN C   4     143.580  37.897  76.0830  0.00  0.00     0.000 OA
ATOM     73   O  SGN C   4     145.154  36.602  74.7990  0.00  0.00     0.000 O
ATOM     74   S  SGN C   4     144.543  38.064  75.0190  0.00  0.00     0.000 S
ATOM     75   O  SGN C   4     145.677  38.887  75.3890  0.00  0.00     0.000 OA
ENDBRANCH 60 70
BRANCH 56 76
ATOM     76  O4  IDS C   5     143.687  32.663  77.0560  0.00  0.00     0.000 O
BRANCH 76 80
ATOM     77  C1  IDS C   5     142.615  33.146  80.9650  0.00  0.00     0.000 C
ATOM     78  C2  IDS C   5     144.000  33.690  80.6150  0.00  0.00     0.000 C
ATOM     79  C3  IDS C   5     144.119  33.865  79.1140  0.00  0.00     0.000 C
ATOM     80  C4  IDS C   5     144.057  32.500  78.4340  0.00  0.00     0.000 C
ATOM     81  C5  IDS C   5     143.035  31.616  79.1630  0.00  0.00     0.000 C
ATOM     82  O5  IDS C   5     142.079  32.421  79.8580  0.00  0.00     0.000 O
BRANCH 78 83
ATOM     83   O  IDS C   5     144.224  35.005  81.2590  0.00  0.00     0.000 O
ATOM     84   S  IDS C   5     145.248  35.128  82.4760  0.00  0.00     0.000 S
ATOM     85   O  IDS C   5     144.909  34.069  83.3870  0.00  0.00     0.000 OA
ATOM     86   O  IDS C   5     146.557  34.973  81.8850  0.00  0.00     0.000 OA
ATOM     87   O  IDS C   5     145.041  36.444  83.0290  0.00  0.00     0.000 OA
ENDBRANCH 78 83
BRANCH 81 88
ATOM     88   C  IDS C   5     142.266  30.681  78.2470  0.00  0.00     0.000 C
ATOM     89   O  IDS C   5     142.786  29.673  77.8470  0.00  0.00     0.000 OA
ATOM     90   O  IDS C   5     141.133  30.955  77.9260  0.00  0.00     0.000 OA
ENDBRANCH 81 88
ENDBRANCH 76 80
ENDBRANCH 56 76
ENDBRANCH 55 59
ENDBRANCH 39 55
ENDBRANCH 38 42
ENDBRANCH 18 38
ENDBRANCH 17 21
ENDBRANCH 1 17
TORSDOF 18
ENDMDL
MODEL 16
REMARK VINA RESULT:      -8.3     26.558     30.644
ROOT
ATOM      1  C1  IDS C   1     148.502  42.508  69.8280  0.00  0.00     0.000 C
ATOM      2  C2  IDS C   1     148.038  43.153  68.5180  0.00  0.00     0.000 C
ATOM      3  C3  IDS C   1     148.904  44.355  68.1710  0.00  0.00     0.000 C
ATOM      4  C4  IDS C   1     148.857  45.391  69.2860  0.00  0.00     0.000 C
ATOM      5  C5  IDS C   1     148.859  44.698  70.6450  0.00  0.00     0.000 C
ATOM      6  O5  IDS C   1     149.387  43.378  70.5220  0.00  0.00     0.000 O
ATOM      7   O  IDS C   1     148.454  44.939  66.9410  0.00  0.00     0.000 O
ATOM      9  HD  IDS C   1     148.197  44.300  66.4150  0.00  0.00     0.000 HD
ENDROOT
BRANCH 2 9
ATOM      9   O  IDS C   1     148.135  42.194  67.3950  0.00  0.00     0.000 O
ATOM     10   S  IDS C   1     146.810  41.750  66.6270  0.00  0.00     0.000 S
ATOM     11   O  IDS C   1     147.239  40.834  65.5930  0.00  0.00     0.000 OA
ATOM     12   O  IDS C   1     145.972  41.120  67.6260  0.00  0.00     0.000 OA
ATOM     13   O  IDS C   1     146.236  42.967  66.0950  0.00  0.00     0.000 OA
ENDBRANCH 2 9
BRANCH 5 14
ATOM     14   C  IDS C   1     149.686  45.454  71.6720  0.00  0.00     0.000 C
ATOM     15   O  IDS C   1     149.189  46.373  72.2740  0.00  0.00     0.000 OA
ATOM     16   O  IDS C   1     150.843  45.127  71.8760  0.00  0.00     0.000 OA
ENDBRANCH 5 14
BRANCH 1 17
ATOM     17  O4  SGN C   2     148.599  41.186  69.9930  0.00  0.00     0.000 O
BRANCH 17 21
ATOM     18  C1  SGN C   2     150.725  37.712  70.9600  0.00  0.00     0.000 C
ATOM     19  C2  SGN C   2     151.466  39.043  71.1390  0.00  0.00     0.000 C
ATOM     20  C3  SGN C   2     150.459  40.199  71.1610  0.00  0.00     0.000 C
ATOM     21  C4  SGN C   2     149.571  40.146  69.9240  0.00  0.00     0.000 C
ATOM     22  C5  SGN C   2     148.888  38.783  69.8600  0.00  0.00     0.000 C
ATOM     23  O5  SGN C   2     149.886  37.737  69.8240  0.00  0.00     0.000 O
ATOM     24   O  SGN C   2     151.147  41.437  71.2390  0.00  0.00     0.000 O
ATOM     26  HD  SGN C   2     150.530  40.859  71.4260  0.00  0.00     0.000 HD
BRANCH 19 28
ATOM     26   N  SGN C   2     152.880  39.092  71.5380  0.00  0.00     0.000 N
ATOM     28  HD  SGN C   2     152.873  39.470  70.7590  0.00  0.00     0.000 HD
ATOM     28   O  SGN C   2     154.582  39.290  73.3500  0.00  0.00     0.000 OA
ATOM     29   S  SGN C   2     153.416  40.090  72.6790  0.00  0.00     0.000 S
ATOM     30   O  SGN C   2     153.958  41.223  72.0330  0.00  0.00     0.000 OA
ATOM     31   O  SGN C   2     152.373  40.256  73.6320  0.00  0.00     0.000 OA
ENDBRANCH 19 28
BRANCH 22 32
ATOM     32   C  SGN C   2     148.025  38.603  68.6350  0.00  0.00     0.000 C
ATOM     33   S  SGN C   2     145.855  37.391  67.9540  0.00  0.00     0.000 S
ATOM     34   O  SGN C   2     146.511  36.110  67.8820  0.00  0.00     0.000 OA
ATOM     35   O  SGN C   2     144.518  37.329  68.5070  0.00  0.00     0.000 OA
ATOM     36   O  SGN C   2     145.938  38.164  66.7370  0.00  0.00     0.000 OA
ATOM     37   O  SGN C   2     146.705  38.209  69.0290  0.00  0.00     0.000 O
ENDBRANCH 22 32
BRANCH 18 38
ATOM     38  O4  IDS C   3     150.050  36.976  71.8460  0.00  0.00     0.000 O
BRANCH 38 42
ATOM     39  C1  IDS C   3     147.797  35.274  73.8840  0.00  0.00     0.000 C
ATOM     40  C2  IDS C   3     148.111  36.761  74.1190  0.00  0.00     0.000 C
ATOM     41  C3  IDS C   3     149.617  36.999  74.2180  0.00  0.00     0.000 C
ATOM     42  C4  IDS C   3     150.359  36.315  73.0770  0.00  0.00     0.000 C
ATOM     43  C5  IDS C   3     149.944  34.841  72.9980  0.00  0.00     0.000 C
ATOM     44  O5  IDS C   3     148.536  34.763  72.7880  0.00  0.00     0.000 O
ATOM     45   O  IDS C   3     150.093  36.501  75.4700  0.00  0.00     0.000 O
ATOM     47  HD  IDS C   3     150.058  35.739  75.8790  0.00  0.00     0.000 HD
BRANCH 40 47
ATOM     47   O  IDS C   3     147.603  37.583  72.9950  0.00  0.00     0.000 O
ATOM     48   S  IDS C   3     146.481  38.691  73.2630  0.00  0.00     0.000 S
ATOM     49   O  IDS C   3     145.233  37.968  73.3930  0.00  0.00     0.000 OA
ATOM     50   O  IDS C   3     146.505  39.547  72.0970  0.00  0.00     0.000 OA
ATOM     51   O  IDS C   3     146.860  39.370  74.4730  0.00  0.00     0.000 OA
ENDBRANCH 40 47
BRANCH 43 52
ATOM     52   C  IDS C   3     150.665  34.088  71.9020  0.00  0.00     0.000 C
ATOM     53   O  IDS C   3     150.033  33.579  71.0050  0.00  0.00     0.000 OA
ATOM     54   O  IDS C   3     151.866  33.999  71.9280  0.00  0.00     0.000 OA
ENDBRANCH 43 52
BRANCH 39 55
ATOM     55  O4  SGN C   4     147.607  34.395  74.8680  0.00  0.00     0.000 O
BRANCH 55 59
ATOM     56  C1  SGN C   4     144.350  32.555  76.7420  0.00  0.00     0.000 C
ATOM     57  C2  SGN C   4     144.060  33.865  75.9900  0.00  0.00     0.000 C
ATOM     58  C3  SGN C   4     145.207  34.212  75.0440  0.00  0.00     0.000 C
ATOM     59  C4  SGN C   4     146.541  34.175  75.7810  0.00  0.00     0.000 C
ATOM     60  C5  SGN C   4     146.698  32.808  76.4440  0.00  0.00     0.000 C
ATOM     61  O5  SGN C   4     145.615  32.632  77.3790  0.00  0.00     0.000 O
ATOM     62   O  SGN C   4     144.984  35.495  74.4750  0.00  0.00     0.000 O
ATOM     64  HD  SGN C   4     144.190  35.191  74.6430  0.00  0.00     0.000 HD
BRANCH 57 66
ATOM     64   N  SGN C   4     142.696  33.449  75.6280  0.00  0.00     0.000 N
ATOM     66  HD  SGN C   4     141.941  33.353  76.0420  0.00  0.00     0.000 HD
ATOM     66   S  SGN C   4     141.446  34.383  75.9650  0.00  0.00     0.000 S
ATOM     67   O  SGN C   4     140.277  33.693  75.5560  0.00  0.00     0.000 OA
ATOM     68   O  SGN C   4     141.581  34.785  77.3230  0.00  0.00     0.000 OA
ATOM     69   O  SGN C   4     141.658  35.631  75.0500  0.00  0.00     0.000 OA
ENDBRANCH 57 66
BRANCH 60 70
ATOM     70   C  SGN C   4     147.996  32.643  77.2040  0.00  0.00     0.000 C
ATOM     71   O  SGN C   4     149.310  34.862  79.9340  0.00  0.00     0.000 OA
ATOM     72   O  SGN C   4     148.219  32.717  80.1740  0.00  0.00     0.000 OA
ATOM     73   O  SGN C   4     148.252  33.800  78.0220  0.00  0.00     0.000 O
ATOM     74   S  SGN C   4     149.080  33.553  79.3680  0.00  0.00     0.000 S
ATOM     75   O  SGN C   4     150.294  32.887  78.9400  0.00  0.00     0.000 OA
ENDBRANCH 60 70
BRANCH 56 76
ATOM     76  O4  IDS C   5     144.070  31.253  76.5490  0.00  0.00     0.000 O
BRANCH 76 80
ATOM     77  C1  IDS C   5     142.181  27.673  76.0250  0.00  0.00     0.000 C
ATOM     78  C2  IDS C   5     141.557  28.569  77.0940  0.00  0.00     0.000 C
ATOM     79  C3  IDS C   5     142.030  29.997  76.9090  0.00  0.00     0.000 C
ATOM     80  C4  IDS C   5     143.532  30.075  77.1680  0.00  0.00     0.000 C
ATOM     81  C5  IDS C   5     144.211  28.817  76.6070  0.00  0.00     0.000 C
ATOM     82  O5  IDS C   5     143.413  28.235  75.5710  0.00  0.00     0.000 O
BRANCH 78 83
ATOM     83   O  IDS C   5     140.078  28.549  76.9950  0.00  0.00     0.000 O
ATOM     84   S  IDS C   5     139.198  28.392  78.3160  0.00  0.00     0.000 S
ATOM     85   O  IDS C   5     139.761  27.283  79.0380  0.00  0.00     0.000 OA
ATOM     86   O  IDS C   5     139.332  29.650  79.0130  0.00  0.00     0.000 OA
ATOM     87   O  IDS C   5     137.850  28.150  77.8610  0.00  0.00     0.000 OA
ENDBRANCH 78 83
BRANCH 81 88
ATOM     88   C  IDS C   5     145.593  29.067  76.0320  0.00  0.00     0.000 C
ATOM     89   O  IDS C   5     146.547  29.101  76.7620  0.00  0.00     0.000 OA
ATOM     90   O  IDS C   5     145.726  29.231  74.8410  0.00  0.00     0.000 OA
ENDBRANCH 81 88
ENDBRANCH 76 80
ENDBRANCH 56 76
ENDBRANCH 55 59
ENDBRANCH 39 55
ENDBRANCH 38 42
ENDBRANCH 18 38
ENDBRANCH 17 21
ENDBRANCH 1 17
TORSDOF 18
ENDMDL
MODEL 17
REMARK VINA RESULT:      -8.3      6.434     10.681
ROOT
ATOM      1  C1  IDS C   1     149.373  17.452  54.0360  0.00  0.00     0.000 C
ATOM      2  C2  IDS C   1     148.126  18.078  54.6680  0.00  0.00     0.000 C
ATOM      3  C3  IDS C   1     146.872  17.323  54.2510  0.00  0.00     0.000 C
ATOM      4  C4  IDS C   1     146.723  17.325  52.7360  0.00  0.00     0.000 C
ATOM      5  C5  IDS C   1     148.087  17.150  52.0750  0.00  0.00     0.000 C
ATOM      6  O5  IDS C   1     149.005  16.557  52.9940  0.00  0.00     0.000 O
ATOM      7   O  IDS C   1     145.720  17.924  54.8570  0.00  0.00     0.000 O
ATOM      9  HD  IDS C   1     145.939  18.192  55.6510  0.00  0.00     0.000 HD
ENDROOT
BRANCH 2 9
ATOM      9   O  IDS C   1     148.204  18.032  56.1450  0.00  0.00     0.000 O
ATOM     10   S  IDS C   1     148.172  19.393  56.9740  0.00  0.00     0.000 S
ATOM     11   O  IDS C   1     148.250  19.011  58.3670  0.00  0.00     0.000 OA
ATOM     12   O  IDS C   1     149.327  20.147  56.5310  0.00  0.00     0.000 OA
ATOM     13   O  IDS C   1     146.919  20.032  56.6370  0.00  0.00     0.000 OA
ENDBRANCH 2 9
BRANCH 5 14
ATOM     14   C  IDS C   1     148.015  16.275  50.8350  0.00  0.00     0.000 C
ATOM     15   O  IDS C   1     148.275  16.750  49.7570  0.00  0.00     0.000 OA
ATOM     16   O  IDS C   1     147.694  15.103  50.9390  0.00  0.00     0.000 OA
ENDBRANCH 5 14
BRANCH 1 17
ATOM     17  O4  SGN C   2     150.511  17.260  54.7090  0.00  0.00     0.000 O
BRANCH 17 21
ATOM     18  C1  SGN C   2     153.127  14.873  56.9420  0.00  0.00     0.000 C
ATOM     19  C2  SGN C   2     151.847  14.198  56.4320  0.00  0.00     0.000 C
ATOM     20  C3  SGN C   2     151.227  15.040  55.3110  0.00  0.00     0.000 C
ATOM     21  C4  SGN C   2     151.026  16.476  55.7830  0.00  0.00     0.000 C
ATOM     22  C5  SGN C   2     152.363  17.036  56.2580  0.00  0.00     0.000 C
ATOM     23  O5  SGN C   2     152.888  16.211  57.3240  0.00  0.00     0.000 O
ATOM     24   O  SGN C   2     149.999  14.465  54.8980  0.00  0.00     0.000 O
ATOM     26  HD  SGN C   2     150.770  14.848  54.7980  0.00  0.00     0.000 HD
BRANCH 19 28
ATOM     26   N  SGN C   2     152.204  12.777  56.5400  0.00  0.00     0.000 N
ATOM     28  HD  SGN C   2     152.613  13.143  57.2100  0.00  0.00     0.000 HD
ATOM     28   O  SGN C   2     151.573  10.385  56.2180  0.00  0.00     0.000 OA
ATOM     29   S  SGN C   2     151.151  11.661  57.0220  0.00  0.00     0.000 S
ATOM     30   O  SGN C   2     151.380  11.425  58.3960  0.00  0.00     0.000 OA
ATOM     31   O  SGN C   2     149.861  12.067  56.5840  0.00  0.00     0.000 OA
ENDBRANCH 19 28
BRANCH 22 32
ATOM     32   C  SGN C   2     152.263  18.440  56.8030  0.00  0.00     0.000 C
ATOM     33   S  SGN C   2     153.349  20.747  56.4260  0.00  0.00     0.000 S
ATOM     34   O  SGN C   2     154.545  20.377  57.1410  0.00  0.00     0.000 OA
ATOM     35   O  SGN C   2     153.599  21.565  55.2580  0.00  0.00     0.000 OA
ATOM     36   O  SGN C   2     152.293  21.257  57.2690  0.00  0.00     0.000 OA
ATOM     37   O  SGN C   2     152.794  19.367  55.8480  0.00  0.00     0.000 O
ENDBRANCH 22 32
BRANCH 18 38
ATOM     38  O4  IDS C   3     154.354  14.899  56.4180  0.00  0.00     0.000 O
BRANCH 38 42
ATOM     39  C1  IDS C   3     157.496  13.957  55.2480  0.00  0.00     0.000 C
ATOM     40  C2  IDS C   3     156.938  13.390  56.5630  0.00  0.00     0.000 C
ATOM     41  C3  IDS C   3     156.476  14.509  57.4950  0.00  0.00     0.000 C
ATOM     42  C4  IDS C   3     155.602  15.514  56.7590  0.00  0.00     0.000 C
ATOM     43  C5  IDS C   3     156.315  15.990  55.4870  0.00  0.00     0.000 C
ATOM     44  O5  IDS C   3     156.582  14.864  54.6530  0.00  0.00     0.000 O
ATOM     45   O  IDS C   3     157.619  15.172  58.0410  0.00  0.00     0.000 O
ATOM     47  HD  IDS C   3     158.316  15.564  57.7080  0.00  0.00     0.000 HD
BRANCH 40 47
ATOM     47   O  IDS C   3     155.768  12.519  56.2990  0.00  0.00     0.000 O
ATOM     48   S  IDS C   3     155.964  10.936  56.1860  0.00  0.00     0.000 S
ATOM     49   O  IDS C   3     156.528  10.698  54.8750  0.00  0.00     0.000 OA
ATOM     50   O  IDS C   3     154.637  10.378  56.3260  0.00  0.00     0.000 OA
ATOM     51   O  IDS C   3     156.853  10.559  57.2520  0.00  0.00     0.000 OA
ENDBRANCH 40 47
BRANCH 43 52
ATOM     52   C  IDS C   3     155.515  17.016  54.7150  0.00  0.00     0.000 C
ATOM     53   O  IDS C   3     155.727  18.195  54.8800  0.00  0.00     0.000 OA
ATOM     54   O  IDS C   3     154.669  16.651  53.9380  0.00  0.00     0.000 OA
ENDBRANCH 43 52
BRANCH 39 55
ATOM     55  O4  SGN C   4     158.777  14.281  55.0670  0.00  0.00     0.000 O
BRANCH 55 59
ATOM     56  C1  SGN C   4     160.250  14.464  51.1550  0.00  0.00     0.000 C
ATOM     57  C2  SGN C   4     160.006  13.059  51.7330  0.00  0.00     0.000 C
ATOM     58  C3  SGN C   4     159.119  13.130  52.9730  0.00  0.00     0.000 C
ATOM     59  C4  SGN C   4     159.666  14.149  53.9670  0.00  0.00     0.000 C
ATOM     60  C5  SGN C   4     159.821  15.492  53.2580  0.00  0.00     0.000 C
ATOM     61  O5  SGN C   4     160.748  15.324  52.1670  0.00  0.00     0.000 O
ATOM     62   O  SGN C   4     159.031  11.844  53.5700  0.00  0.00     0.000 O
ATOM     64  HD  SGN C   4     159.167  11.684  52.7300  0.00  0.00     0.000 HD
BRANCH 57 66
ATOM     64   N  SGN C   4     159.509  12.310  50.5670  0.00  0.00     0.000 N
ATOM     66  HD  SGN C   4     159.789  12.144  49.7650  0.00  0.00     0.000 HD
ATOM     66   S  SGN C   4     160.412  11.190  49.8780  0.00  0.00     0.000 S
ATOM     67   O  SGN C   4     159.696  10.697  48.7580  0.00  0.00     0.000 OA
ATOM     68   O  SGN C   4     161.704  11.755  49.6880  0.00  0.00     0.000 OA
ATOM     69   O  SGN C   4     160.511  10.072  50.9640  0.00  0.00     0.000 OA
ENDBRANCH 57 66
BRANCH 60 70
ATOM     70   C  SGN C   4     160.351  16.595  54.1490  0.00  0.00     0.000 C
ATOM     71   O  SGN C   4     158.618  18.140  57.1010  0.00  0.00     0.000 OA
ATOM     72   O  SGN C   4     160.374  16.478  57.1260  0.00  0.00     0.000 OA
ATOM     73   O  SGN C   4     159.321  17.063  55.0400  0.00  0.00     0.000 O
ATOM     74   S  SGN C   4     159.804  17.625  56.4570  0.00  0.00     0.000 S
ATOM     75   O  SGN C   4     160.778  18.650  56.1370  0.00  0.00     0.000 OA
ENDBRANCH 60 70
BRANCH 56 76
ATOM     76  O4  IDS C   5     159.667  15.233  50.2180  0.00  0.00     0.000 O
BRANCH 76 80
ATOM     77  C1  IDS C   5     156.251  17.334  50.9780  0.00  0.00     0.000 C
ATOM     78  C2  IDS C   5     156.022  15.948  50.3750  0.00  0.00     0.000 C
ATOM     79  C3  IDS C   5     157.270  15.103  50.5410  0.00  0.00     0.000 C
ATOM     80  C4  IDS C   5     158.406  15.701  49.7160  0.00  0.00     0.000 C
ATOM     81  C5  IDS C   5     158.335  17.233  49.7900  0.00  0.00     0.000 C
ATOM     82  O5  IDS C   5     157.644  17.649  50.9710  0.00  0.00     0.000 O
BRANCH 78 83
ATOM     83   O  IDS C   5     154.898  15.261  51.0530  0.00  0.00     0.000 O
ATOM     84   S  IDS C   5     153.721  14.622  50.1860  0.00  0.00     0.000 S
ATOM     85   O  IDS C   5     153.321  15.640  49.2510  0.00  0.00     0.000 OA
ATOM     86   O  IDS C   5     154.305  13.465  49.5500  0.00  0.00     0.000 OA
ATOM     87   O  IDS C   5     152.685  14.276  51.1280  0.00  0.00     0.000 OA
ENDBRANCH 78 83
BRANCH 81 88
ATOM     88   C  IDS C   5     159.692  17.913  49.7910  0.00  0.00     0.000 C
ATOM     89   O  IDS C   5     160.302  18.034  48.7630  0.00  0.00     0.000 OA
ATOM     90   O  IDS C   5     160.152  18.330  50.8300  0.00  0.00     0.000 OA
ENDBRANCH 81 88
ENDBRANCH 76 80
ENDBRANCH 56 76
ENDBRANCH 55 59
ENDBRANCH 39 55
ENDBRANCH 38 42
ENDBRANCH 18 38
ENDBRANCH 17 21
ENDBRANCH 1 17
TORSDOF 18
ENDMDL
MODEL 18
REMARK VINA RESULT:      -8.3     25.895     30.844
ROOT
ATOM      1  C1  IDS C   1     148.062  42.357  70.3120  0.00  0.00     0.000 C
ATOM      2  C2  IDS C   1     147.597  43.003  69.0040  0.00  0.00     0.000 C
ATOM      3  C3  IDS C   1     148.254  44.361  68.8080  0.00  0.00     0.000 C
ATOM      4  C4  IDS C   1     147.926  45.289  69.9700  0.00  0.00     0.000 C
ATOM      5  C5  IDS C   1     147.944  44.510  71.2820  0.00  0.00     0.000 C
ATOM      6  O5  IDS C   1     148.713  43.317  71.1350  0.00  0.00     0.000 O
ATOM      7   O  IDS C   1     147.808  44.944  67.5760  0.00  0.00     0.000 O
ATOM      9  HD  IDS C   1     147.716  44.310  66.9930  0.00  0.00     0.000 HD
ENDROOT
BRANCH 2 9
ATOM      9   O  IDS C   1     147.960  42.160  67.8420  0.00  0.00     0.000 O
ATOM     10   S  IDS C   1     146.810  41.592  66.8960  0.00  0.00     0.000 S
ATOM     11   O  IDS C   1     147.482  40.833  65.8650  0.00  0.00     0.000 OA
ATOM     12   O  IDS C   1     145.975  40.770  67.7480  0.00  0.00     0.000 OA
ATOM     13   O  IDS C   1     146.117  42.751  66.3770  0.00  0.00     0.000 OA
ENDBRANCH 2 9
BRANCH 5 14
ATOM     14   C  IDS C   1     148.531  45.324  72.4230  0.00  0.00     0.000 C
ATOM     15   O  IDS C   1     149.701  45.620  72.4010  0.00  0.00     0.000 OA
ATOM     16   O  IDS C   1     147.818  45.667  73.3510  0.00  0.00     0.000 OA
ENDBRANCH 5 14
BRANCH 1 17
ATOM     17  O4  SGN C   2     148.385  41.065  70.4110  0.00  0.00     0.000 O
BRANCH 17 21
ATOM     18  C1  SGN C   2     151.116  37.967  71.1010  0.00  0.00     0.000 C
ATOM     19  C2  SGN C   2     151.638  39.397  71.2890  0.00  0.00     0.000 C
ATOM     20  C3  SGN C   2     150.457  40.368  71.4210  0.00  0.00     0.000 C
ATOM     21  C4  SGN C   2     149.509  40.204  70.2390  0.00  0.00     0.000 C
ATOM     22  C5  SGN C   2     149.058  38.749  70.1600  0.00  0.00     0.000 C
ATOM     23  O5  SGN C   2     150.210  37.887  70.0200  0.00  0.00     0.000 O
ATOM     24   O  SGN C   2     150.935  41.699  71.5080  0.00  0.00     0.000 O
ATOM     26  HD  SGN C   2     150.436  41.021  71.7090  0.00  0.00     0.000 HD
BRANCH 19 28
ATOM     26   N  SGN C   2     152.893  39.167  72.0180  0.00  0.00     0.000 N
ATOM     28  HD  SGN C   2     152.901  38.563  71.3970  0.00  0.00     0.000 HD
ATOM     28   O  SGN C   2     154.811  40.094  73.3150  0.00  0.00     0.000 OA
ATOM     29   S  SGN C   2     154.151  40.162  71.8970  0.00  0.00     0.000 S
ATOM     30   O  SGN C   2     155.044  39.605  70.9550  0.00  0.00     0.000 OA
ATOM     31   O  SGN C   2     153.645  41.475  71.6940  0.00  0.00     0.000 OA
ENDBRANCH 19 28
BRANCH 22 32
ATOM     32   C  SGN C   2     148.156  38.465  68.9840  0.00  0.00     0.000 C
ATOM     33   S  SGN C   2     145.982  37.179  68.4740  0.00  0.00     0.000 S
ATOM     34   O  SGN C   2     146.654  35.904  68.4780  0.00  0.00     0.000 OA
ATOM     35   O  SGN C   2     144.666  37.144  69.0770  0.00  0.00     0.000 OA
ATOM     36   O  SGN C   2     146.012  37.857  67.1990  0.00  0.00     0.000 OA
ATOM     37   O  SGN C   2     146.856  38.088  69.4530  0.00  0.00     0.000 O
ENDBRANCH 22 32
BRANCH 18 38
ATOM     38  O4  IDS C   3     150.633  37.102  71.9940  0.00  0.00     0.000 O
BRANCH 38 42
ATOM     39  C1  IDS C   3     148.835  35.469  74.4910  0.00  0.00     0.000 C
ATOM     40  C2  IDS C   3     149.404  36.879  74.7170  0.00  0.00     0.000 C
ATOM     41  C3  IDS C   3     150.895  36.934  74.3860  0.00  0.00     0.000 C
ATOM     42  C4  IDS C   3     151.183  36.289  73.0370  0.00  0.00     0.000 C
ATOM     43  C5  IDS C   3     150.564  34.887  72.9890  0.00  0.00     0.000 C
ATOM     44  O5  IDS C   3     149.157  34.990  73.1960  0.00  0.00     0.000 O
ATOM     45   O  IDS C   3     151.632  36.263  75.4090  0.00  0.00     0.000 O
ATOM     47  HD  IDS C   3     151.609  35.472  75.7610  0.00  0.00     0.000 HD
BRANCH 40 47
ATOM     47   O  IDS C   3     148.718  37.863  73.8460  0.00  0.00     0.000 O
ATOM     48   S  IDS C   3     147.685  38.905  74.4830  0.00  0.00     0.000 S
ATOM     49   O  IDS C   3     146.467  38.160  74.7240  0.00  0.00     0.000 OA
ATOM     50   O  IDS C   3     147.514  39.933  73.4790  0.00  0.00     0.000 OA
ATOM     51   O  IDS C   3     148.291  39.391  75.6940  0.00  0.00     0.000 OA
ENDBRANCH 40 47
BRANCH 43 52
ATOM     52   C  IDS C   3     150.835  34.171  71.6840  0.00  0.00     0.000 C
ATOM     53   O  IDS C   3     149.979  34.129  70.8310  0.00  0.00     0.000 OA
ATOM     54   O  IDS C   3     151.904  33.648  71.5010  0.00  0.00     0.000 OA
ENDBRANCH 43 52
BRANCH 39 55
ATOM     55  O4  SGN C   4     148.812  34.523  75.4290  0.00  0.00     0.000 O
BRANCH 55 59
ATOM     56  C1  SGN C   4     144.981  33.453  76.7280  0.00  0.00     0.000 C
ATOM     57  C2  SGN C   4     145.701  34.546  77.5360  0.00  0.00     0.000 C
ATOM     58  C3  SGN C   4     146.880  35.113  76.7500  0.00  0.00     0.000 C
ATOM     59  C4  SGN C   4     147.779  33.989  76.2460  0.00  0.00     0.000 C
ATOM     60  C5  SGN C   4     146.932  33.008  75.4380  0.00  0.00     0.000 C
ATOM     61  O5  SGN C   4     145.913  32.470  76.3050  0.00  0.00     0.000 O
ATOM     62   O  SGN C   4     147.613  36.010  77.5730  0.00  0.00     0.000 O
ATOM     64  HD  SGN C   4     146.804  36.048  77.8790  0.00  0.00     0.000 HD
BRANCH 57 66
ATOM     64   N  SGN C   4     144.537  35.378  77.8810  0.00  0.00     0.000 N
ATOM     66  HD  SGN C   4     143.804  35.273  78.3300  0.00  0.00     0.000 HD
ATOM     66   S  SGN C   4     144.089  35.556  79.4020  0.00  0.00     0.000 S
ATOM     67   O  SGN C   4     142.916  36.352  79.4100  0.00  0.00     0.000 OA
ATOM     68   O  SGN C   4     144.056  34.257  79.9810  0.00  0.00     0.000 OA
ATOM     69   O  SGN C   4     145.265  36.360  80.0440  0.00  0.00     0.000 OA
ENDBRANCH 57 66
BRANCH 60 70
ATOM     70   C  SGN C   4     147.717  31.845  74.8720  0.00  0.00     0.000 C
ATOM     71   O  SGN C   4     149.951  29.495  76.7680  0.00  0.00     0.000 OA
ATOM     72   O  SGN C   4     147.690  29.092  76.0110  0.00  0.00     0.000 OA
ATOM     73   O  SGN C   4     148.615  31.311  75.8640  0.00  0.00     0.000 O
ATOM     74   S  SGN C   4     148.951  29.751  75.7580  0.00  0.00     0.000 S
ATOM     75   O  SGN C   4     149.436  29.568  74.4040  0.00  0.00     0.000 OA
ENDBRANCH 60 70
BRANCH 56 76
ATOM     76  O4  IDS C   5     143.936  33.413  75.8810  0.00  0.00     0.000 O
BRANCH 76 80
ATOM     77  C1  IDS C   5     140.328  31.764  76.8430  0.00  0.00     0.000 C
ATOM     78  C2  IDS C   5     141.321  30.792  76.2070  0.00  0.00     0.000 C
ATOM     79  C3  IDS C   5     142.724  31.357  76.2960  0.00  0.00     0.000 C
ATOM     80  C4  IDS C   5     142.821  32.620  75.4450  0.00  0.00     0.000 C
ATOM     81  C5  IDS C   5     141.515  33.418  75.5700  0.00  0.00     0.000 C
ATOM     82  O5  IDS C   5     140.843  33.095  76.7910  0.00  0.00     0.000 O
BRANCH 78 83
ATOM     83   O  IDS C   5     141.296  29.486  76.9070  0.00  0.00     0.000 O
ATOM     84   S  IDS C   5     141.230  28.134  76.0620  0.00  0.00     0.000 S
ATOM     85   O  IDS C   5     140.171  28.317  75.1050  0.00  0.00     0.000 OA
ATOM     86   O  IDS C   5     142.532  28.006  75.4500  0.00  0.00     0.000 OA
ATOM     87   O  IDS C   5     140.960  27.089  77.0180  0.00  0.00     0.000 OA
ENDBRANCH 78 83
BRANCH 81 88
ATOM     88   C  IDS C   5     141.708  34.923  75.5380  0.00  0.00     0.000 C
ATOM     89   O  IDS C   5     141.882  35.483  74.4890  0.00  0.00     0.000 OA
ATOM     90   O  IDS C   5     141.683  35.552  76.5720  0.00  0.00     0.000 OA
ENDBRANCH 81 88
ENDBRANCH 76 80
ENDBRANCH 56 76
ENDBRANCH 55 59
ENDBRANCH 39 55
ENDBRANCH 38 42
ENDBRANCH 18 38
ENDBRANCH 17 21
ENDBRANCH 1 17
TORSDOF 18
ENDMDL
MODEL 19
REMARK VINA RESULT:      -8.3      4.810      9.665
ROOT
ATOM      1  C1  IDS C   1     147.966  17.850  54.6340  0.00  0.00     0.000 C
ATOM      2  C2  IDS C   1     147.158  18.543  55.7350  0.00  0.00     0.000 C
ATOM      3  C3  IDS C   1     145.764  17.943  55.8410  0.00  0.00     0.000 C
ATOM      4  C4  IDS C   1     145.022  18.072  54.5180  0.00  0.00     0.000 C
ATOM      5  C5  IDS C   1     145.977  17.817  53.3560  0.00  0.00     0.000 C
ATOM      6  O5  IDS C   1     147.110  17.074  53.8050  0.00  0.00     0.000 O
ATOM      7   O  IDS C   1     145.029  18.604  56.8810  0.00  0.00     0.000 O
ATOM      9  HD  IDS C   1     145.577  18.791  57.5250  0.00  0.00     0.000 HD
ENDROOT
BRANCH 2 9
ATOM      9   O  IDS C   1     147.815  18.380  57.0520  0.00  0.00     0.000 O
ATOM     10   S  IDS C   1     148.384  19.664  57.8080  0.00  0.00     0.000 S
ATOM     11   O  IDS C   1     148.941  19.178  59.0500  0.00  0.00     0.000 OA
ATOM     12   O  IDS C   1     149.384  20.226  56.9230  0.00  0.00     0.000 OA
ATOM     13   O  IDS C   1     147.250  20.540  58.0060  0.00  0.00     0.000 OA
ENDBRANCH 2 9
BRANCH 5 14
ATOM     14   C  IDS C   1     145.313  17.047  52.2270  0.00  0.00     0.000 C
ATOM     15   O  IDS C   1     144.154  16.728  52.3270  0.00  0.00     0.000 OA
ATOM     16   O  IDS C   1     145.956  16.757  51.2320  0.00  0.00     0.000 OA
ENDBRANCH 5 14
BRANCH 1 17
ATOM     17  O4  SGN C   2     149.247  17.502  54.7810  0.00  0.00     0.000 O
BRANCH 17 21
ATOM     18  C1  SGN C   2     152.176  14.684  55.7870  0.00  0.00     0.000 C
ATOM     19  C2  SGN C   2     150.715  14.244  55.9490  0.00  0.00     0.000 C
ATOM     20  C3  SGN C   2     149.798  15.188  55.1620  0.00  0.00     0.000 C
ATOM     21  C4  SGN C   2     150.059  16.634  55.5680  0.00  0.00     0.000 C
ATOM     22  C5  SGN C   2     151.537  16.952  55.3590  0.00  0.00     0.000 C
ATOM     23  O5  SGN C   2     152.348  16.042  56.1370  0.00  0.00     0.000 O
ATOM     24   O  SGN C   2     148.443  14.836  55.3800  0.00  0.00     0.000 O
ATOM     26  HD  SGN C   2     149.135  15.081  54.9200  0.00  0.00     0.000 HD
BRANCH 19 28
ATOM     26   N  SGN C   2     150.411  12.924  56.5160  0.00  0.00     0.000 N
ATOM     28  HD  SGN C   2     150.116  13.477  57.1130  0.00  0.00     0.000 HD
ATOM     28   O  SGN C   2     149.778  10.538  56.1560  0.00  0.00     0.000 OA
ATOM     29   S  SGN C   2     149.236  11.990  55.9380  0.00  0.00     0.000 S
ATOM     30   O  SGN C   2     148.101  12.178  56.7570  0.00  0.00     0.000 OA
ATOM     31   O  SGN C   2     149.141  12.233  54.5400  0.00  0.00     0.000 OA
ENDBRANCH 19 28
BRANCH 22 32
ATOM     32   C  SGN C   2     151.915  18.348  55.7880  0.00  0.00     0.000 C
ATOM     33   S  SGN C   2     152.853  20.509  54.7430  0.00  0.00     0.000 S
ATOM     34   O  SGN C   2     154.194  19.984  54.6920  0.00  0.00     0.000 OA
ATOM     35   O  SGN C   2     152.498  21.309  53.5900  0.00  0.00     0.000 OA
ATOM     36   O  SGN C   2     152.513  21.132  56.0010  0.00  0.00     0.000 OA
ATOM     37   O  SGN C   2     151.921  19.217  54.6490  0.00  0.00     0.000 O
ENDBRANCH 22 32
BRANCH 18 38
ATOM     38  O4  IDS C   3     153.024  14.501  54.7730  0.00  0.00     0.000 O
BRANCH 38 42
ATOM     39  C1  IDS C   3     155.401  15.076  52.2940  0.00  0.00     0.000 C
ATOM     40  C2  IDS C   3     154.242  14.092  52.0670  0.00  0.00     0.000 C
ATOM     41  C3  IDS C   3     154.157  13.068  53.1980  0.00  0.00     0.000 C
ATOM     42  C4  IDS C   3     154.221  13.746  54.5600  0.00  0.00     0.000 C
ATOM     43  C5  IDS C   3     155.442  14.672  54.6220  0.00  0.00     0.000 C
ATOM     44  O5  IDS C   3     155.339  15.650  53.5890  0.00  0.00     0.000 O
ATOM     45   O  IDS C   3     155.230  12.134  53.0730  0.00  0.00     0.000 O
ATOM     47  HD  IDS C   3     156.092  12.195  53.0230  0.00  0.00     0.000 HD
BRANCH 40 47
ATOM     47   O  IDS C   3     152.949  14.814  52.0210  0.00  0.00     0.000 O
ATOM     48   S  IDS C   3     151.942  14.566  50.8030  0.00  0.00     0.000 S
ATOM     49   O  IDS C   3     152.481  15.311  49.6850  0.00  0.00     0.000 OA
ATOM     50   O  IDS C   3     150.668  15.085  51.2500  0.00  0.00     0.000 OA
ATOM     51   O  IDS C   3     151.926  13.147  50.5710  0.00  0.00     0.000 OA
ENDBRANCH 40 47
BRANCH 43 52
ATOM     52   C  IDS C   3     155.587  15.361  55.9610  0.00  0.00     0.000 C
ATOM     53   O  IDS C   3     155.803  14.707  56.9550  0.00  0.00     0.000 OA
ATOM     54   O  IDS C   3     155.488  16.560  56.0300  0.00  0.00     0.000 OA
ENDBRANCH 43 52
BRANCH 39 55
ATOM     55  O4  SGN C   4     156.642  14.871  51.8510  0.00  0.00     0.000 O
BRANCH 55 59
ATOM     56  C1  SGN C   4     159.737  16.698  53.9930  0.00  0.00     0.000 C
ATOM     57  C2  SGN C   4     158.981  17.583  52.9870  0.00  0.00     0.000 C
ATOM     58  C3  SGN C   4     157.661  16.933  52.5790  0.00  0.00     0.000 C
ATOM     59  C4  SGN C   4     157.888  15.495  52.1280  0.00  0.00     0.000 C
ATOM     60  C5  SGN C   4     158.613  14.740  53.2390  0.00  0.00     0.000 C
ATOM     61  O5  SGN C   4     159.880  15.386  53.4730  0.00  0.00     0.000 O
ATOM     62   O  SGN C   4     157.057  17.695  51.5430  0.00  0.00     0.000 O
ATOM     64  HD  SGN C   4     157.524  18.271  51.9900  0.00  0.00     0.000 HD
BRANCH 57 66
ATOM     64   N  SGN C   4     159.874  18.582  53.5970  0.00  0.00     0.000 N
ATOM     66  HD  SGN C   4     160.439  19.172  53.3110  0.00  0.00     0.000 HD
ATOM     66   S  SGN C   4     159.805  20.112  53.1490  0.00  0.00     0.000 S
ATOM     67   O  SGN C   4     160.815  20.809  53.8590  0.00  0.00     0.000 OA
ATOM     68   O  SGN C   4     159.811  20.130  51.7270  0.00  0.00     0.000 OA
ATOM     69   O  SGN C   4     158.401  20.582  53.6490  0.00  0.00     0.000 OA
ENDBRANCH 57 66
BRANCH 60 70
ATOM     70   C  SGN C   4     158.889  13.288  52.9120  0.00  0.00     0.000 C
ATOM     71   O  SGN C   4     162.232  11.731  52.2020  0.00  0.00     0.000 OA
ATOM     72   O  SGN C   4     160.967  11.632  54.2610  0.00  0.00     0.000 OA
ATOM     73   O  SGN C   4     160.258  13.115  52.4990  0.00  0.00     0.000 O
ATOM     74   S  SGN C   4     160.925  11.697  52.8170  0.00  0.00     0.000 S
ATOM     75   O  SGN C   4     160.031  10.724  52.2220  0.00  0.00     0.000 OA
ENDBRANCH 60 70
BRANCH 56 76
ATOM     76  O4  IDS C   5     159.811  16.614  55.3350  0.00  0.00     0.000 O
BRANCH 76 80
ATOM     77  C1  IDS C   5     159.752  16.443  59.4120  0.00  0.00     0.000 C
ATOM     78  C2  IDS C   5     159.598  15.090  58.7180  0.00  0.00     0.000 C
ATOM     79  C3  IDS C   5     160.065  15.193  57.2800  0.00  0.00     0.000 C
ATOM     80  C4  IDS C   5     159.141  16.131  56.5090  0.00  0.00     0.000 C
ATOM     81  C5  IDS C   5     158.734  17.303  57.4140  0.00  0.00     0.000 C
ATOM     82  O5  IDS C   5     159.702  17.497  58.4500  0.00  0.00     0.000 O
BRANCH 78 83
ATOM     83   O  IDS C   5     160.410  14.056  59.4010  0.00  0.00     0.000 O
ATOM     84   S  IDS C   5     159.754  13.162  60.5480  0.00  0.00     0.000 S
ATOM     85   O  IDS C   5     159.091  14.080  61.4350  0.00  0.00     0.000 OA
ATOM     86   O  IDS C   5     158.843  12.276  59.8620  0.00  0.00     0.000 OA
ATOM     87   O  IDS C   5     160.850  12.460  61.1710  0.00  0.00     0.000 OA
ENDBRANCH 78 83
BRANCH 81 88
ATOM     88   C  IDS C   5     158.579  18.622  56.6810  0.00  0.00     0.000 C
ATOM     89   O  IDS C   5     157.542  18.883  56.1320  0.00  0.00     0.000 OA
ATOM     90   O  IDS C   5     159.501  19.405  56.6540  0.00  0.00     0.000 OA
ENDBRANCH 81 88
ENDBRANCH 76 80
ENDBRANCH 56 76
ENDBRANCH 55 59
ENDBRANCH 39 55
ENDBRANCH 38 42
ENDBRANCH 18 38
ENDBRANCH 17 21
ENDBRANCH 1 17
TORSDOF 18
ENDMDL
MODEL 20
REMARK VINA RESULT:      -8.3     25.859     30.497
ROOT
ATOM      1  C1  IDS C   1     148.467  42.594  69.8390  0.00  0.00     0.000 C
ATOM      2  C2  IDS C   1     148.006  43.234  68.5260  0.00  0.00     0.000 C
ATOM      3  C3  IDS C   1     148.881  44.426  68.1690  0.00  0.00     0.000 C
ATOM      4  C4  IDS C   1     148.844  45.470  69.2770  0.00  0.00     0.000 C
ATOM      5  C5  IDS C   1     148.844  44.787  70.6410  0.00  0.00     0.000 C
ATOM      6  O5  IDS C   1     149.361  43.461  70.5250  0.00  0.00     0.000 O
ATOM      7   O  IDS C   1     148.433  45.005  66.9360  0.00  0.00     0.000 O
ATOM      9  HD  IDS C   1     148.169  44.365  66.4150  0.00  0.00     0.000 HD
ENDROOT
BRANCH 2 9
ATOM      9   O  IDS C   1     148.093  42.266  67.4090  0.00  0.00     0.000 O
ATOM     10   S  IDS C   1     146.761  41.820  66.6530  0.00  0.00     0.000 S
ATOM     11   O  IDS C   1     147.181  40.896  65.6240  0.00  0.00     0.000 OA
ATOM     12   O  IDS C   1     145.929  41.200  67.6630  0.00  0.00     0.000 OA
ATOM     13   O  IDS C   1     146.187  43.034  66.1170  0.00  0.00     0.000 OA
ENDBRANCH 2 9
BRANCH 5 14
ATOM     14   C  IDS C   1     149.679  45.542  71.6610  0.00  0.00     0.000 C
ATOM     15   O  IDS C   1     150.831  45.227  71.8350  0.00  0.00     0.000 OA
ATOM     16   O  IDS C   1     149.179  46.456  72.2940  0.00  0.00     0.000 OA
ENDBRANCH 5 14
BRANCH 1 17
ATOM     17  O4  SGN C   2     148.553  41.272  70.0130  0.00  0.00     0.000 O
BRANCH 17 21
ATOM     18  C1  SGN C   2     150.635  37.792  71.0530  0.00  0.00     0.000 C
ATOM     19  C2  SGN C   2     151.376  39.120  71.2490  0.00  0.00     0.000 C
ATOM     20  C3  SGN C   2     150.374  40.281  71.2390  0.00  0.00     0.000 C
ATOM     21  C4  SGN C   2     149.522  40.228  69.9760  0.00  0.00     0.000 C
ATOM     22  C5  SGN C   2     148.835  38.867  69.8960  0.00  0.00     0.000 C
ATOM     23  O5  SGN C   2     149.830  37.817  69.8940  0.00  0.00     0.000 O
ATOM     24   O  SGN C   2     151.065  41.516  71.3320  0.00  0.00     0.000 O
ATOM     26  HD  SGN C   2     150.440  40.941  71.5030  0.00  0.00     0.000 HD
BRANCH 19 28
ATOM     26   N  SGN C   2     152.777  39.152  71.6910  0.00  0.00     0.000 N
ATOM     28  HD  SGN C   2     152.802  39.511  70.9030  0.00  0.00     0.000 HD
ATOM     28   O  SGN C   2     154.428  39.362  73.5500  0.00  0.00     0.000 OA
ATOM     29   S  SGN C   2     153.298  40.167  72.8240  0.00  0.00     0.000 S
ATOM     30   O  SGN C   2     153.882  41.274  72.1690  0.00  0.00     0.000 OA
ATOM     31   O  SGN C   2     152.230  40.377  73.7400  0.00  0.00     0.000 OA
ENDBRANCH 19 28
BRANCH 22 32
ATOM     32   C  SGN C   2     148.008  38.687  68.6470  0.00  0.00     0.000 C
ATOM     33   S  SGN C   2     145.898  37.417  67.8860  0.00  0.00     0.000 S
ATOM     34   O  SGN C   2     146.602  36.161  67.8010  0.00  0.00     0.000 OA
ATOM     35   O  SGN C   2     144.552  37.294  68.4060  0.00  0.00     0.000 OA
ATOM     36   O  SGN C   2     145.982  38.221  66.6900  0.00  0.00     0.000 OA
ATOM     37   O  SGN C   2     146.694  38.238  69.0000  0.00  0.00     0.000 O
ENDBRANCH 22 32
BRANCH 18 38
ATOM     38  O4  IDS C   3     149.931  37.062  71.9210  0.00  0.00     0.000 O
BRANCH 38 42
ATOM     39  C1  IDS C   3     149.176  34.856  74.5080  0.00  0.00     0.000 C
ATOM     40  C2  IDS C   3     150.326  34.566  73.5290  0.00  0.00     0.000 C
ATOM     41  C3  IDS C   3     149.853  34.657  72.0790  0.00  0.00     0.000 C
ATOM     42  C4  IDS C   3     149.056  35.932  71.8390  0.00  0.00     0.000 C
ATOM     43  C5  IDS C   3     147.943  36.054  72.8860  0.00  0.00     0.000 C
ATOM     44  O5  IDS C   3     148.527  36.075  74.1880  0.00  0.00     0.000 O
ATOM     45   O  IDS C   3     149.046  33.519  71.7710  0.00  0.00     0.000 O
ATOM     47  HD  IDS C   3     148.336  33.162  72.1140  0.00  0.00     0.000 HD
BRANCH 40 47
ATOM     47   O  IDS C   3     151.419  35.551  73.7040  0.00  0.00     0.000 O
ATOM     48   S  IDS C   3     152.603  35.251  74.7360  0.00  0.00     0.000 S
ATOM     49   O  IDS C   3     152.059  35.511  76.0520  0.00  0.00     0.000 OA
ATOM     50   O  IDS C   3     153.660  36.173  74.3820  0.00  0.00     0.000 OA
ATOM     51   O  IDS C   3     152.968  33.872  74.5470  0.00  0.00     0.000 OA
ENDBRANCH 40 47
BRANCH 43 52
ATOM     52   C  IDS C   3     147.089  37.287  72.6930  0.00  0.00     0.000 C
ATOM     53   O  IDS C   3     146.130  37.247  71.9570  0.00  0.00     0.000 OA
ATOM     54   O  IDS C   3     147.368  38.304  73.2750  0.00  0.00     0.000 OA
ENDBRANCH 43 52
BRANCH 39 55
ATOM     55  O4  SGN C   4     148.361  33.917  74.9880  0.00  0.00     0.000 O
BRANCH 55 59
ATOM     56  C1  SGN C   4     145.964  32.799  78.2310  0.00  0.00     0.000 C
ATOM     57  C2  SGN C   4     146.632  34.183  78.3140  0.00  0.00     0.000 C
ATOM     58  C3  SGN C   4     147.134  34.625  76.9420  0.00  0.00     0.000 C
ATOM     59  C4  SGN C   4     147.988  33.535  76.3050  0.00  0.00     0.000 C
ATOM     60  C5  SGN C   4     147.181  32.240  76.2630  0.00  0.00     0.000 C
ATOM     61  O5  SGN C   4     146.844  31.872  77.6160  0.00  0.00     0.000 O
ATOM     62   O  SGN C   4     147.875  35.831  77.0720  0.00  0.00     0.000 O
ATOM     64  HD  SGN C   4     147.309  35.852  77.7280  0.00  0.00     0.000 HD
BRANCH 57 66
ATOM     64   N  SGN C   4     145.523  34.753  79.0950  0.00  0.00     0.000 N
ATOM     66  HD  SGN C   4     145.233  34.688  79.9090  0.00  0.00     0.000 HD
ATOM     66   S  SGN C   4     145.804  35.504  80.4750  0.00  0.00     0.000 S
ATOM     67   O  SGN C   4     144.549  35.882  81.0160  0.00  0.00     0.000 OA
ATOM     68   O  SGN C   4     146.669  34.669  81.2340  0.00  0.00     0.000 OA
ATOM     69   O  SGN C   4     146.591  36.783  80.0470  0.00  0.00     0.000 OA
ENDBRANCH 57 66
BRANCH 60 70
ATOM     70   C  SGN C   4     147.922  31.078  75.6390  0.00  0.00     0.000 C
ATOM     71   O  SGN C   4     150.092  31.169  72.5750  0.00  0.00     0.000 OA
ATOM     72   O  SGN C   4     150.805  31.141  74.8860  0.00  0.00     0.000 OA
ATOM     73   O  SGN C   4     148.474  31.457  74.3640  0.00  0.00     0.000 O
ATOM     74   S  SGN C   4     149.819  30.714  73.9190  0.00  0.00     0.000 S
ATOM     75   O  SGN C   4     149.506  29.302  73.9980  0.00  0.00     0.000 OA
ENDBRANCH 60 70
BRANCH 56 76
ATOM     76  O4  IDS C   5     144.709  32.346  78.0560  0.00  0.00     0.000 O
BRANCH 76 80
ATOM     77  C1  IDS C   5     140.884  31.248  77.1520  0.00  0.00     0.000 C
ATOM     78  C2  IDS C   5     141.893  30.100  77.1390  0.00  0.00     0.000 C
ATOM     79  C3  IDS C   5     143.143  30.506  77.8950  0.00  0.00     0.000 C
ATOM     80  C4  IDS C   5     143.840  31.644  77.1550  0.00  0.00     0.000 C
ATOM     81  C5  IDS C   5     142.785  32.596  76.5750  0.00  0.00     0.000 C
ATOM     82  O5  IDS C   5     141.560  32.495  77.3080  0.00  0.00     0.000 O
BRANCH 78 83
ATOM     83   O  IDS C   5     141.325  28.895  77.7870  0.00  0.00     0.000 O
ATOM     84   S  IDS C   5     140.990  27.606  76.9090  0.00  0.00     0.000 S
ATOM     85   O  IDS C   5     140.242  28.082  75.7760  0.00  0.00     0.000 OA
ATOM     86   O  IDS C   5     142.273  27.050  76.5490  0.00  0.00     0.000 OA
ATOM     87   O  IDS C   5     140.228  26.734  77.7690  0.00  0.00     0.000 OA
ENDBRANCH 78 83
BRANCH 81 88
ATOM     88   C  IDS C   5     143.202  34.055  76.5810  0.00  0.00     0.000 C
ATOM     89   O  IDS C   5     143.887  34.486  75.6920  0.00  0.00     0.000 OA
ATOM     90   O  IDS C   5     142.841  34.777  77.4820  0.00  0.00     0.000 OA
ENDBRANCH 81 88
ENDBRANCH 76 80
ENDBRANCH 56 76
ENDBRANCH 55 59
ENDBRANCH 39 55
ENDBRANCH 38 42
ENDBRANCH 18 38
ENDBRANCH 17 21
ENDBRANCH 1 17
TORSDOF 18
ENDMDL
MODEL 21
REMARK VINA RESULT:      -8.2     26.428     31.988
ROOT
ATOM      1  C1  IDS C   1     148.519  35.134  72.5670  0.00  0.00     0.000 C
ATOM      2  C2  IDS C   1     150.047  35.042  72.6300  0.00  0.00     0.000 C
ATOM      3  C3  IDS C   1     150.675  36.426  72.5560  0.00  0.00     0.000 C
ATOM      4  C4  IDS C   1     150.267  37.133  71.2710  0.00  0.00     0.000 C
ATOM      5  C5  IDS C   1     148.804  36.840  70.9540  0.00  0.00     0.000 C
ATOM      6  O5  IDS C   1     148.118  36.428  72.1370  0.00  0.00     0.000 O
ATOM      7   O  IDS C   1     152.104  36.314  72.6210  0.00  0.00     0.000 O
ATOM      9  HD  IDS C   1     152.302  35.669  73.1640  0.00  0.00     0.000 HD
ENDROOT
BRANCH 2 9
ATOM      9   O  IDS C   1     150.485  34.419  73.8990  0.00  0.00     0.000 O
ATOM     10   S  IDS C   1     151.449  33.149  73.8570  0.00  0.00     0.000 S
ATOM     11   O  IDS C   1     151.699  32.796  75.2370  0.00  0.00     0.000 OA
ATOM     12   O  IDS C   1     150.717  32.128  73.1370  0.00  0.00     0.000 OA
ATOM     13   O  IDS C   1     152.642  33.582  73.1640  0.00  0.00     0.000 OA
ENDBRANCH 2 9
BRANCH 5 14
ATOM     14   C  IDS C   1     148.088  38.050  70.3790  0.00  0.00     0.000 C
ATOM     15   O  IDS C   1     148.643  39.121  70.3750  0.00  0.00     0.000 OA
ATOM     16   O  IDS C   1     146.960  37.930  69.9310  0.00  0.00     0.000 OA
ENDBRANCH 5 14
BRANCH 1 17
ATOM     17  O4  SGN C   2     147.714  34.412  73.3520  0.00  0.00     0.000 O
BRANCH 17 21
ATOM     18  C1  SGN C   2     145.426  33.663  76.7770  0.00  0.00     0.000 C
ATOM     19  C2  SGN C   2     145.840  35.120  76.5320  0.00  0.00     0.000 C
ATOM     20  C3  SGN C   2     146.282  35.296  75.0740  0.00  0.00     0.000 C
ATOM     21  C4  SGN C   2     147.362  34.278  74.7260  0.00  0.00     0.000 C
ATOM     22  C5  SGN C   2     146.833  32.875  75.0070  0.00  0.00     0.000 C
ATOM     23  O5  SGN C   2     146.449  32.766  76.3970  0.00  0.00     0.000 O
ATOM     24   O  SGN C   2     146.746  36.620  74.8670  0.00  0.00     0.000 O
ATOM     26  HD  SGN C   2     146.320  35.890  74.6790  0.00  0.00     0.000 HD
BRANCH 19 28
ATOM     26   N  SGN C   2     144.882  35.842  77.3810  0.00  0.00     0.000 N
ATOM     28  HD  SGN C   2     145.028  35.106  77.8140  0.00  0.00     0.000 HD
ATOM     28   O  SGN C   2     144.006  38.011  78.2470  0.00  0.00     0.000 OA
ATOM     29   S  SGN C   2     145.302  37.132  78.2440  0.00  0.00     0.000 S
ATOM     30   O  SGN C   2     145.557  36.697  79.5640  0.00  0.00     0.000 OA
ATOM     31   O  SGN C   2     146.316  37.821  77.5230  0.00  0.00     0.000 OA
ENDBRANCH 19 28
BRANCH 22 32
ATOM     32   C  SGN C   2     147.850  31.790  74.7490  0.00  0.00     0.000 C
ATOM     33   S  SGN C   2     148.983  29.855  76.0200  0.00  0.00     0.000 S
ATOM     34   O  SGN C   2     149.869  30.746  76.7260  0.00  0.00     0.000 OA
ATOM     35   O  SGN C   2     148.495  28.758  76.8300  0.00  0.00     0.000 OA
ATOM     36   O  SGN C   2     149.473  29.441  74.7260  0.00  0.00     0.000 OA
ATOM     37   O  SGN C   2     147.692  30.743  75.7150  0.00  0.00     0.000 O
ENDBRANCH 22 32
BRANCH 18 38
ATOM     38  O4  IDS C   3     144.299  33.022  76.4610  0.00  0.00     0.000 O
BRANCH 38 42
ATOM     39  C1  IDS C   3     141.570  30.866  76.6300  0.00  0.00     0.000 C
ATOM     40  C2  IDS C   3     142.247  31.182  75.2870  0.00  0.00     0.000 C
ATOM     41  C3  IDS C   3     142.360  32.690  75.0660  0.00  0.00     0.000 C
ATOM     42  C4  IDS C   3     142.924  33.386  76.2970  0.00  0.00     0.000 C
ATOM     43  C5  IDS C   3     142.123  32.976  77.5390  0.00  0.00     0.000 C
ATOM     44  O5  IDS C   3     142.197  31.560  77.6950  0.00  0.00     0.000 O
ATOM     45   O  IDS C   3     141.069  33.221  74.7610  0.00  0.00     0.000 O
ATOM     47  HD  IDS C   3     140.294  33.207  75.1470  0.00  0.00     0.000 HD
BRANCH 40 47
ATOM     47   O  IDS C   3     143.620  30.624  75.2520  0.00  0.00     0.000 O
ATOM     48   S  IDS C   3     143.834  29.048  75.0800  0.00  0.00     0.000 S
ATOM     49   O  IDS C   3     143.551  28.465  76.3740  0.00  0.00     0.000 OA
ATOM     50   O  IDS C   3     145.219  28.892  74.6940  0.00  0.00     0.000 OA
ATOM     51   O  IDS C   3     142.911  28.621  74.0620  0.00  0.00     0.000 OA
ENDBRANCH 40 47
BRANCH 43 52
ATOM     52   C  IDS C   3     142.610  33.652  78.8010  0.00  0.00     0.000 C
ATOM     53   O  IDS C   3     143.045  32.987  79.7120  0.00  0.00     0.000 OA
ATOM     54   O  IDS C   3     142.563  34.853  78.8910  0.00  0.00     0.000 OA
ENDBRANCH 43 52
BRANCH 39 55
ATOM     55  O4  SGN C   4     140.253  30.722  76.7770  0.00  0.00     0.000 O
BRANCH 55 59
ATOM     56  C1  SGN C   4     137.367  28.062  78.2290  0.00  0.00     0.000 C
ATOM     57  C2  SGN C   4     138.822  27.561  78.2180  0.00  0.00     0.000 C
ATOM     58  C3  SGN C   4     139.795  28.724  78.0520  0.00  0.00     0.000 C
ATOM     59  C4  SGN C   4     139.403  29.586  76.8570  0.00  0.00     0.000 C
ATOM     60  C5  SGN C   4     137.952  30.032  77.0280  0.00  0.00     0.000 C
ATOM     61  O5  SGN C   4     137.120  28.856  77.0800  0.00  0.00     0.000 O
ATOM     62   O  SGN C   4     141.115  28.222  77.8960  0.00  0.00     0.000 O
ATOM     64  HD  SGN C   4     140.709  27.621  78.3690  0.00  0.00     0.000 HD
BRANCH 57 66
ATOM     64   N  SGN C   4     139.052  26.766  79.4350  0.00  0.00     0.000 N
ATOM     66  HD  SGN C   4     138.631  26.142  79.8640  0.00  0.00     0.000 HD
ATOM     66   S  SGN C   4     139.006  25.172  79.3850  0.00  0.00     0.000 S
ATOM     67   O  SGN C   4     139.201  24.699  80.7070  0.00  0.00     0.000 OA
ATOM     68   O  SGN C   4     137.823  24.812  78.6810  0.00  0.00     0.000 OA
ATOM     69   O  SGN C   4     140.244  24.792  78.5100  0.00  0.00     0.000 OA
ENDBRANCH 57 66
BRANCH 60 70
ATOM     70   C  SGN C   4     137.446  30.908  75.9030  0.00  0.00     0.000 C
ATOM     71   O  SGN C   4     136.238  34.454  76.1720  0.00  0.00     0.000 OA
ATOM     72   O  SGN C   4     138.392  33.686  75.3860  0.00  0.00     0.000 OA
ATOM     73   O  SGN C   4     136.880  32.125  76.4250  0.00  0.00     0.000 O
ATOM     74   S  SGN C   4     136.975  33.417  75.4880  0.00  0.00     0.000 S
ATOM     75   O  SGN C   4     136.373  33.010  74.2340  0.00  0.00     0.000 OA
ENDBRANCH 60 70
BRANCH 56 76
ATOM     76  O4  IDS C   5     136.484  28.429  79.1750  0.00  0.00     0.000 O
BRANCH 76 80
ATOM     77  C1  IDS C   5     136.624  32.156  80.8330  0.00  0.00     0.000 C
ATOM     78  C2  IDS C   5     137.368  31.081  81.6250  0.00  0.00     0.000 C
ATOM     79  C3  IDS C   5     137.631  29.880  80.7380  0.00  0.00     0.000 C
ATOM     80  C4  IDS C   5     136.306  29.229  80.3540  0.00  0.00     0.000 C
ATOM     81  C5  IDS C   5     135.255  30.321  80.1080  0.00  0.00     0.000 C
ATOM     82  O5  IDS C   5     135.887  31.558  79.7660  0.00  0.00     0.000 O
BRANCH 78 83
ATOM     83   O  IDS C   5     138.669  31.597  82.1130  0.00  0.00     0.000 O
ATOM     84   S  IDS C   5     138.909  31.786  83.6780  0.00  0.00     0.000 S
ATOM     85   O  IDS C   5     137.762  32.501  84.1710  0.00  0.00     0.000 OA
ATOM     86   O  IDS C   5     139.016  30.448  84.2090  0.00  0.00     0.000 OA
ATOM     87   O  IDS C   5     140.139  32.531  83.7980  0.00  0.00     0.000 OA
ENDBRANCH 78 83
BRANCH 81 88
ATOM     88   C  IDS C   5     134.270  29.990  79.0020  0.00  0.00     0.000 C
ATOM     89   O  IDS C   5     133.404  29.179  79.1950  0.00  0.00     0.000 OA
ATOM     90   O  IDS C   5     134.362  30.546  77.9320  0.00  0.00     0.000 OA
ENDBRANCH 81 88
ENDBRANCH 76 80
ENDBRANCH 56 76
ENDBRANCH 55 59
ENDBRANCH 39 55
ENDBRANCH 38 42
ENDBRANCH 18 38
ENDBRANCH 17 21
ENDBRANCH 1 17
TORSDOF 18
ENDMDL
MODEL 22
REMARK VINA RESULT:      -8.2     26.449     30.374
ROOT
ATOM      1  C1  IDS C   1     148.052  42.477  70.0540  0.00  0.00     0.000 C
ATOM      2  C2  IDS C   1     147.613  43.172  68.7630  0.00  0.00     0.000 C
ATOM      3  C3  IDS C   1     148.368  44.479  68.5680  0.00  0.00     0.000 C
ATOM      4  C4  IDS C   1     148.135  45.415  69.7460  0.00  0.00     0.000 C
ATOM      5  C5  IDS C   1     148.119  44.622  71.0490  0.00  0.00     0.000 C
ATOM      6  O5  IDS C   1     148.791  43.374  70.8730  0.00  0.00     0.000 O
ATOM      7   O  IDS C   1     147.943  45.108  67.3510  0.00  0.00     0.000 O
ATOM      9  HD  IDS C   1     147.792  44.491  66.7630  0.00  0.00     0.000 HD
ENDROOT
BRANCH 2 9
ATOM      9   O  IDS C   1     147.887  42.318  67.5850  0.00  0.00     0.000 O
ATOM     10   S  IDS C   1     146.680  41.864  66.6480  0.00  0.00     0.000 S
ATOM     11   O  IDS C   1     147.272  41.065  65.5980  0.00  0.00     0.000 OA
ATOM     12   O  IDS C   1     145.789  41.104  67.5010  0.00  0.00     0.000 OA
ATOM     13   O  IDS C   1     146.082  43.085  66.1540  0.00  0.00     0.000 OA
ENDBRANCH 2 9
BRANCH 5 14
ATOM     14   C  IDS C   1     148.789  45.374  72.1860  0.00  0.00     0.000 C
ATOM     15   O  IDS C   1     149.847  44.982  72.6150  0.00  0.00     0.000 OA
ATOM     16   O  IDS C   1     148.253  46.362  72.6570  0.00  0.00     0.000 OA
ENDBRANCH 5 14
BRANCH 1 17
ATOM     17  O4  SGN C   2     148.278  41.163  70.1330  0.00  0.00     0.000 O
BRANCH 17 21
ATOM     18  C1  SGN C   2     150.719  37.858  70.9360  0.00  0.00     0.000 C
ATOM     19  C2  SGN C   2     151.317  39.240  71.2260  0.00  0.00     0.000 C
ATOM     20  C3  SGN C   2     150.198  40.287  71.2930  0.00  0.00     0.000 C
ATOM     21  C4  SGN C   2     149.351  40.231  70.0260  0.00  0.00     0.000 C
ATOM     22  C5  SGN C   2     148.811  38.815  69.8500  0.00  0.00     0.000 C
ATOM     23  O5  SGN C   2     149.911  37.878  69.7780  0.00  0.00     0.000 O
ATOM     24   O  SGN C   2     150.755  41.578  71.4740  0.00  0.00     0.000 O
ATOM     26  HD  SGN C   2     150.195  40.930  71.6030  0.00  0.00     0.000 HD
BRANCH 19 28
ATOM     26   N  SGN C   2     152.492  38.899  72.0390  0.00  0.00     0.000 N
ATOM     28  HD  SGN C   2     152.525  38.335  71.3840  0.00  0.00     0.000 HD
ATOM     28   O  SGN C   2     154.334  39.641  73.5490  0.00  0.00     0.000 OA
ATOM     29   S  SGN C   2     153.802  39.831  72.0890  0.00  0.00     0.000 S
ATOM     30   O  SGN C   2     154.746  39.286  71.1900  0.00  0.00     0.000 OA
ATOM     31   O  SGN C   2     153.379  41.179  71.9310  0.00  0.00     0.000 OA
ENDBRANCH 19 28
BRANCH 22 32
ATOM     32   C  SGN C   2     148.002  38.635  68.5890  0.00  0.00     0.000 C
ATOM     33   S  SGN C   2     145.863  37.426  67.8140  0.00  0.00     0.000 S
ATOM     34   O  SGN C   2     146.520  36.144  67.7720  0.00  0.00     0.000 OA
ATOM     35   O  SGN C   2     144.503  37.365  68.3080  0.00  0.00     0.000 OA
ATOM     36   O  SGN C   2     146.000  38.198  66.6010  0.00  0.00     0.000 OA
ATOM     37   O  SGN C   2     146.666  38.243  68.9250  0.00  0.00     0.000 O
ENDBRANCH 22 32
BRANCH 18 38
ATOM     38  O4  IDS C   3     150.099  36.999  71.7490  0.00  0.00     0.000 O
BRANCH 38 42
ATOM     39  C1  IDS C   3     149.823  34.490  74.1480  0.00  0.00     0.000 C
ATOM     40  C2  IDS C   3     150.957  34.472  73.1090  0.00  0.00     0.000 C
ATOM     41  C3  IDS C   3     150.408  34.609  71.6900  0.00  0.00     0.000 C
ATOM     42  C4  IDS C   3     149.410  35.754  71.5930  0.00  0.00     0.000 C
ATOM     43  C5  IDS C   3     148.342  35.606  72.6840  0.00  0.00     0.000 C
ATOM     44  O5  IDS C   3     148.976  35.611  73.9610  0.00  0.00     0.000 O
ATOM     45   O  IDS C   3     149.777  33.385  71.3070  0.00  0.00     0.000 O
ATOM     47  HD  IDS C   3     149.148  32.891  71.6390  0.00  0.00     0.000 HD
BRANCH 40 47
ATOM     47   O  IDS C   3     151.888  35.602  73.3370  0.00  0.00     0.000 O
ATOM     48   S  IDS C   3     153.290  35.344  74.0630  0.00  0.00     0.000 S
ATOM     49   O  IDS C   3     152.989  35.213  75.4720  0.00  0.00     0.000 OA
ATOM     50   O  IDS C   3     154.089  36.515  73.7740  0.00  0.00     0.000 OA
ATOM     51   O  IDS C   3     153.827  34.137  73.4930  0.00  0.00     0.000 OA
ENDBRANCH 40 47
BRANCH 43 52
ATOM     52   C  IDS C   3     147.296  36.698  72.6320  0.00  0.00     0.000 C
ATOM     53   O  IDS C   3     147.273  37.553  73.4870  0.00  0.00     0.000 OA
ATOM     54   O  IDS C   3     146.490  36.711  71.7360  0.00  0.00     0.000 OA
ENDBRANCH 43 52
BRANCH 39 55
ATOM     55  O4  SGN C   4     149.189  33.395  74.5680  0.00  0.00     0.000 O
BRANCH 55 59
ATOM     56  C1  SGN C   4     147.522  32.789  78.3570  0.00  0.00     0.000 C
ATOM     57  C2  SGN C   4     148.969  33.310  78.3180  0.00  0.00     0.000 C
ATOM     58  C3  SGN C   4     149.311  33.855  76.9330  0.00  0.00     0.000 C
ATOM     59  C4  SGN C   4     148.965  32.836  75.8540  0.00  0.00     0.000 C
ATOM     60  C5  SGN C   4     147.496  32.444  76.0020  0.00  0.00     0.000 C
ATOM     61  O5  SGN C   4     147.314  31.858  77.3070  0.00  0.00     0.000 O
ATOM     62   O  SGN C   4     150.691  34.191  76.8820  0.00  0.00     0.000 O
ATOM     64  HD  SGN C   4     150.476  34.288  77.7150  0.00  0.00     0.000 HD
BRANCH 57 66
ATOM     64   N  SGN C   4     148.668  33.712  79.7010  0.00  0.00     0.000 N
ATOM     66  HD  SGN C   4     148.833  33.402  80.4920  0.00  0.00     0.000 HD
ATOM     66   S  SGN C   4     149.839  33.872  80.7730  0.00  0.00     0.000 S
ATOM     67   O  SGN C   4     149.237  34.203  82.0130  0.00  0.00     0.000 OA
ATOM     68   O  SGN C   4     150.651  32.708  80.6790  0.00  0.00     0.000 OA
ATOM     69   O  SGN C   4     150.657  35.096  80.2500  0.00  0.00     0.000 OA
ENDBRANCH 57 66
BRANCH 60 70
ATOM     70   C  SGN C   4     147.026  31.437  74.9750  0.00  0.00     0.000 C
ATOM     71   O  SGN C   4     144.369  28.822  75.4300  0.00  0.00     0.000 OA
ATOM     72   O  SGN C   4     144.166  30.948  74.2960  0.00  0.00     0.000 OA
ATOM     73   O  SGN C   4     146.147  30.470  75.5810  0.00  0.00     0.000 O
ATOM     74   S  SGN C   4     145.024  29.835  74.6360  0.00  0.00     0.000 S
ATOM     75   O  SGN C   4     145.752  29.301  73.5020  0.00  0.00     0.000 OA
ENDBRANCH 60 70
BRANCH 56 76
ATOM     76  O4  IDS C   5     146.324  33.303  78.6900  0.00  0.00     0.000 O
BRANCH 76 80
ATOM     77  C1  IDS C   5     142.609  32.433  80.1380  0.00  0.00     0.000 C
ATOM     78  C2  IDS C   5     142.934  31.781  78.7940  0.00  0.00     0.000 C
ATOM     79  C3  IDS C   5     144.433  31.795  78.5660  0.00  0.00     0.000 C
ATOM     80  C4  IDS C   5     144.915  33.235  78.4240  0.00  0.00     0.000 C
ATOM     81  C5  IDS C   5     144.141  34.129  79.4040  0.00  0.00     0.000 C
ATOM     82  O5  IDS C   5     143.636  33.357  80.4970  0.00  0.00     0.000 O
BRANCH 78 83
ATOM     83   O  IDS C   5     142.469  30.374  78.7680  0.00  0.00     0.000 O
ATOM     84   S  IDS C   5     141.167  29.985  77.9330  0.00  0.00     0.000 S
ATOM     85   O  IDS C   5     140.158  30.940  78.3080  0.00  0.00     0.000 OA
ATOM     86   O  IDS C   5     141.560  30.089  76.5480  0.00  0.00     0.000 OA
ATOM     87   O  IDS C   5     140.844  28.634  78.3200  0.00  0.00     0.000 OA
ENDBRANCH 78 83
BRANCH 81 88
ATOM     88   C  IDS C   5     144.966  35.262  79.9880  0.00  0.00     0.000 C
ATOM     89   O  IDS C   5     145.745  35.039  80.8760  0.00  0.00     0.000 OA
ATOM     90   O  IDS C   5     144.836  36.383  79.5530  0.00  0.00     0.000 OA
ENDBRANCH 81 88
ENDBRANCH 76 80
ENDBRANCH 56 76
ENDBRANCH 55 59
ENDBRANCH 39 55
ENDBRANCH 38 42
ENDBRANCH 18 38
ENDBRANCH 17 21
ENDBRANCH 1 17
TORSDOF 18
ENDMDL
MODEL 23
REMARK VINA RESULT:      -8.2     26.344     30.386
ROOT
ATOM      1  C1  IDS C   1     148.340  42.374  70.0780  0.00  0.00     0.000 C
ATOM      2  C2  IDS C   1     147.864  43.080  68.8050  0.00  0.00     0.000 C
ATOM      3  C3  IDS C   1     148.683  44.335  68.5440  0.00  0.00     0.000 C
ATOM      4  C4  IDS C   1     148.580  45.297  69.7200  0.00  0.00     0.000 C
ATOM      5  C5  IDS C   1     148.596  44.522  71.0340  0.00  0.00     0.000 C
ATOM      6  O5  IDS C   1     149.180  43.234  70.8360  0.00  0.00     0.000 O
ATOM      7   O  IDS C   1     148.222  44.975  67.3460  0.00  0.00     0.000 O
ATOM      9  HD  IDS C   1     147.998  44.361  66.7780  0.00  0.00     0.000 HD
ENDROOT
BRANCH 2 9
ATOM      9   O  IDS C   1     148.013  42.197  67.6260  0.00  0.00     0.000 O
ATOM     10   S  IDS C   1     146.721  41.782  66.7890  0.00  0.00     0.000 S
ATOM     11   O  IDS C   1     147.199  40.942  65.7130  0.00  0.00     0.000 OA
ATOM     12   O  IDS C   1     145.865  41.074  67.7190  0.00  0.00     0.000 OA
ATOM     13   O  IDS C   1     146.141  43.020  66.3180  0.00  0.00     0.000 OA
ENDBRANCH 2 9
BRANCH 5 14
ATOM     14   C  IDS C   1     149.379  45.245  72.1160  0.00  0.00     0.000 C
ATOM     15   O  IDS C   1     149.230  46.433  72.2640  0.00  0.00     0.000 OA
ATOM     16   O  IDS C   1     150.152  44.621  72.8230  0.00  0.00     0.000 OA
ENDBRANCH 5 14
BRANCH 1 17
ATOM     17  O4  SGN C   2     148.490  41.049  70.1630  0.00  0.00     0.000 O
BRANCH 17 21
ATOM     18  C1  SGN C   2     150.750  37.593  70.8490  0.00  0.00     0.000 C
ATOM     19  C2  SGN C   2     151.446  38.933  71.1190  0.00  0.00     0.000 C
ATOM     20  C3  SGN C   2     150.399  40.048  71.2370  0.00  0.00     0.000 C
ATOM     21  C4  SGN C   2     149.497  40.053  70.0080  0.00  0.00     0.000 C
ATOM     22  C5  SGN C   2     148.862  38.675  69.8490  0.00  0.00     0.000 C
ATOM     23  O5  SGN C   2     149.896  37.671  69.7270  0.00  0.00     0.000 O
ATOM     24   O  SGN C   2     151.043  41.300  71.3990  0.00  0.00     0.000 O
ATOM     26  HD  SGN C   2     150.449  40.688  71.5490  0.00  0.00     0.000 HD
BRANCH 19 28
ATOM     26   N  SGN C   2     152.861  38.945  71.5120  0.00  0.00     0.000 N
ATOM     28  HD  SGN C   2     152.863  39.304  70.7240  0.00  0.00     0.000 HD
ATOM     28   O  SGN C   2     154.578  39.130  73.3120  0.00  0.00     0.000 OA
ATOM     29   S  SGN C   2     153.435  39.952  72.6260  0.00  0.00     0.000 S
ATOM     30   O  SGN C   2     154.012  41.051  71.9510  0.00  0.00     0.000 OA
ATOM     31   O  SGN C   2     152.403  40.175  73.5780  0.00  0.00     0.000 OA
ENDBRANCH 19 28
BRANCH 22 32
ATOM     32   C  SGN C   2     147.991  38.554  68.6230  0.00  0.00     0.000 C
ATOM     33   S  SGN C   2     145.824  37.364  67.8940  0.00  0.00     0.000 S
ATOM     34   O  SGN C   2     146.490  36.093  67.7490  0.00  0.00     0.000 OA
ATOM     35   O  SGN C   2     144.493  37.262  68.4530  0.00  0.00     0.000 OA
ATOM     36   O  SGN C   2     145.892  38.201  66.7200  0.00  0.00     0.000 OA
ATOM     37   O  SGN C   2     146.677  38.130  69.0050  0.00  0.00     0.000 O
ENDBRANCH 22 32
BRANCH 18 38
ATOM     38  O4  IDS C   3     150.112  36.770  71.6850  0.00  0.00     0.000 O
BRANCH 38 42
ATOM     39  C1  IDS C   3     149.592  34.369  74.1540  0.00  0.00     0.000 C
ATOM     40  C2  IDS C   3     150.740  34.228  73.1410  0.00  0.00     0.000 C
ATOM     41  C3  IDS C   3     150.231  34.361  71.7060  0.00  0.00     0.000 C
ATOM     42  C4  IDS C   3     149.330  35.578  71.5520  0.00  0.00     0.000 C
ATOM     43  C5  IDS C   3     148.233  35.551  72.6240  0.00  0.00     0.000 C
ATOM     44  O5  IDS C   3     148.841  35.548  73.9140  0.00  0.00     0.000 O
ATOM     45   O  IDS C   3     149.512  33.180  71.3480  0.00  0.00     0.000 O
ATOM     47  HD  IDS C   3     148.840  32.748  71.6820  0.00  0.00     0.000 HD
BRANCH 40 47
ATOM     47   O  IDS C   3     151.754  35.288  73.3540  0.00  0.00     0.000 O
ATOM     48   S  IDS C   3     153.109  34.949  74.1330  0.00  0.00     0.000 S
ATOM     49   O  IDS C   3     152.759  34.901  75.5360  0.00  0.00     0.000 OA
ATOM     50   O  IDS C   3     154.009  36.038  73.8240  0.00  0.00     0.000 OA
ATOM     51   O  IDS C   3     153.562  33.680  73.6280  0.00  0.00     0.000 OA
ENDBRANCH 40 47
BRANCH 43 52
ATOM     52   C  IDS C   3     147.278  36.719  72.5150  0.00  0.00     0.000 C
ATOM     53   O  IDS C   3     146.306  36.639  71.8000  0.00  0.00     0.000 OA
ATOM     54   O  IDS C   3     147.491  37.725  73.1430  0.00  0.00     0.000 OA
ENDBRANCH 43 52
BRANCH 39 55
ATOM     55  O4  SGN C   4     148.865  33.342  74.5940  0.00  0.00     0.000 O
BRANCH 55 59
ATOM     56  C1  SGN C   4     147.187  32.686  78.3700  0.00  0.00     0.000 C
ATOM     57  C2  SGN C   4     148.607  33.278  78.3420  0.00  0.00     0.000 C
ATOM     58  C3  SGN C   4     148.937  33.827  76.9570  0.00  0.00     0.000 C
ATOM     59  C4  SGN C   4     148.654  32.783  75.8820  0.00  0.00     0.000 C
ATOM     60  C5  SGN C   4     147.204  32.321  76.0180  0.00  0.00     0.000 C
ATOM     61  O5  SGN C   4     147.036  31.738  77.3260  0.00  0.00     0.000 O
ATOM     62   O  SGN C   4     150.299  34.230  76.9170  0.00  0.00     0.000 O
ATOM     64  HD  SGN C   4     150.070  34.324  77.7470  0.00  0.00     0.000 HD
BRANCH 57 66
ATOM     64   N  SGN C   4     148.395  34.035  79.5860  0.00  0.00     0.000 N
ATOM     66  HD  SGN C   4     148.338  33.849  80.4290  0.00  0.00     0.000 HD
ATOM     66   S  SGN C   4     149.419  33.902  80.8020  0.00  0.00     0.000 S
ATOM     67   O  SGN C   4     148.920  34.693  81.8670  0.00  0.00     0.000 OA
ATOM     68   O  SGN C   4     149.642  32.512  81.0080  0.00  0.00     0.000 OA
ATOM     69   O  SGN C   4     150.733  34.543  80.2510  0.00  0.00     0.000 OA
ENDBRANCH 57 66
BRANCH 60 70
ATOM     70   C  SGN C   4     146.796  31.284  74.9940  0.00  0.00     0.000 C
ATOM     71   O  SGN C   4     143.979  28.816  75.2820  0.00  0.00     0.000 OA
ATOM     72   O  SGN C   4     144.003  30.887  74.0340  0.00  0.00     0.000 OA
ATOM     73   O  SGN C   4     145.811  30.389  75.5460  0.00  0.00     0.000 O
ATOM     74   S  SGN C   4     144.764  29.757  74.5160  0.00  0.00     0.000 S
ATOM     75   O  SGN C   4     145.580  29.132  73.4950  0.00  0.00     0.000 OA
ENDBRANCH 60 70
BRANCH 56 76
ATOM     76  O4  IDS C   5     145.961  33.143  78.6850  0.00  0.00     0.000 O
BRANCH 76 80
ATOM     77  C1  IDS C   5     143.365  34.216  75.7240  0.00  0.00     0.000 C
ATOM     78  C2  IDS C   5     144.153  35.378  76.3280  0.00  0.00     0.000 C
ATOM     79  C3  IDS C   5     145.363  34.847  77.0710  0.00  0.00     0.000 C
ATOM     80  C4  IDS C   5     144.905  34.024  78.2710  0.00  0.00     0.000 C
ATOM     81  C5  IDS C   5     143.655  33.219  77.8890  0.00  0.00     0.000 C
ATOM     82  O5  IDS C   5     143.597  33.024  76.4730  0.00  0.00     0.000 O
BRANCH 78 83
ATOM     83   O  IDS C   5     144.622  36.301  75.2680  0.00  0.00     0.000 O
ATOM     84   S  IDS C   5     143.991  37.762  75.1530  0.00  0.00     0.000 S
ATOM     85   O  IDS C   5     142.564  37.581  75.1980  0.00  0.00     0.000 OA
ATOM     86   O  IDS C   5     144.507  38.488  76.2900  0.00  0.00     0.000 OA
ATOM     87   O  IDS C   5     144.459  38.292  73.8960  0.00  0.00     0.000 OA
ENDBRANCH 78 83
BRANCH 81 88
ATOM     88   C  IDS C   5     143.578  31.852  78.5430  0.00  0.00     0.000 C
ATOM     89   O  IDS C   5     143.787  30.864  77.8920  0.00  0.00     0.000 OA
ATOM     90   O  IDS C   5     143.307  31.766  79.7190  0.00  0.00     0.000 OA
ENDBRANCH 81 88
ENDBRANCH 76 80
ENDBRANCH 56 76
ENDBRANCH 55 59
ENDBRANCH 39 55
ENDBRANCH 38 42
ENDBRANCH 18 38
ENDBRANCH 17 21
ENDBRANCH 1 17
TORSDOF 18
ENDMDL
MODEL 24
REMARK VINA RESULT:      -8.2     29.869     37.140
ROOT
ATOM      1  C1  IDS C   1     139.937  34.512  44.8620  0.00  0.00     0.000 C
ATOM      2  C2  IDS C   1     141.310  34.286  44.2230  0.00  0.00     0.000 C
ATOM      3  C3  IDS C   1     142.414  34.381  45.2660  0.00  0.00     0.000 C
ATOM      4  C4  IDS C   1     142.394  35.743  45.9460  0.00  0.00     0.000 C
ATOM      5  C5  IDS C   1     140.955  36.191  46.1800  0.00  0.00     0.000 C
ATOM      6  O5  IDS C   1     140.081  35.062  46.1650  0.00  0.00     0.000 O
ATOM      7   O  IDS C   1     143.688  34.162  44.6460  0.00  0.00     0.000 O
ATOM      9  HD  IDS C   1     143.591  33.561  44.0290  0.00  0.00     0.000 HD
ENDROOT
BRANCH 2 9
ATOM      9   O  IDS C   1     141.391  32.941  43.6100  0.00  0.00     0.000 O
ATOM     10   S  IDS C   1     141.746  32.806  42.0610  0.00  0.00     0.000 S
ATOM     11   O  IDS C   1     141.760  31.388  41.7800  0.00  0.00     0.000 OA
ATOM     12   O  IDS C   1     140.693  33.510  41.3570  0.00  0.00     0.000 OA
ATOM     13   O  IDS C   1     143.043  33.424  41.8980  0.00  0.00     0.000 OA
ENDBRANCH 2 9
BRANCH 5 14
ATOM     14   C  IDS C   1     140.787  36.912  47.5060  0.00  0.00     0.000 C
ATOM     15   O  IDS C   1     139.852  36.637  48.2180  0.00  0.00     0.000 OA
ATOM     16   O  IDS C   1     141.595  37.763  47.8390  0.00  0.00     0.000 OA
ENDBRANCH 5 14
BRANCH 1 17
ATOM     17  O4  SGN C   2     138.866  33.771  44.5660  0.00  0.00     0.000 O
BRANCH 17 21
ATOM     18  C1  SGN C   2     136.029  30.811  45.4140  0.00  0.00     0.000 C
ATOM     19  C2  SGN C   2     137.002  31.173  46.5430  0.00  0.00     0.000 C
ATOM     20  C3  SGN C   2     137.669  32.521  46.2410  0.00  0.00     0.000 C
ATOM     21  C4  SGN C   2     138.308  32.492  44.8570  0.00  0.00     0.000 C
ATOM     22  C5  SGN C   2     137.246  32.126  43.8250  0.00  0.00     0.000 C
ATOM     23  O5  SGN C   2     136.666  30.842  44.1540  0.00  0.00     0.000 O
ATOM     24   O  SGN C   2     138.632  32.817  47.2380  0.00  0.00     0.000 O
ATOM     26  HD  SGN C   2     137.986  32.981  46.6850  0.00  0.00     0.000 HD
BRANCH 19 28
ATOM     26   N  SGN C   2     136.251  31.007  47.7950  0.00  0.00     0.000 N
ATOM     28  HD  SGN C   2     135.660  30.862  47.1790  0.00  0.00     0.000 HD
ATOM     28   O  SGN C   2     136.216  30.300  50.1870  0.00  0.00     0.000 OA
ATOM     29   S  SGN C   2     136.444  29.726  48.7480  0.00  0.00     0.000 S
ATOM     30   O  SGN C   2     135.404  28.816  48.4540  0.00  0.00     0.000 OA
ATOM     31   O  SGN C   2     137.798  29.306  48.6370  0.00  0.00     0.000 OA
ENDBRANCH 19 28
BRANCH 22 32
ATOM     32   C  SGN C   2     137.788  32.012  42.4220  0.00  0.00     0.000 C
ATOM     33   S  SGN C   2     137.464  30.540  40.3310  0.00  0.00     0.000 S
ATOM     34   O  SGN C   2     138.230  29.455  40.8920  0.00  0.00     0.000 OA
ATOM     35   O  SGN C   2     136.310  30.105  39.5730  0.00  0.00     0.000 OA
ATOM     36   O  SGN C   2     138.261  31.531  39.6470  0.00  0.00     0.000 OA
ATOM     37   O  SGN C   2     136.859  31.293  41.6020  0.00  0.00     0.000 O
ENDBRANCH 22 32
BRANCH 18 38
ATOM     38  O4  IDS C   3     134.795  31.254  45.1640  0.00  0.00     0.000 O
BRANCH 38 42
ATOM     39  C1  IDS C   3     131.335  31.497  44.8490  0.00  0.00     0.000 C
ATOM     40  C2  IDS C   3     132.084  30.230  44.4050  0.00  0.00     0.000 C
ATOM     41  C3  IDS C   3     133.234  30.570  43.4580  0.00  0.00     0.000 C
ATOM     42  C4  IDS C   3     134.082  31.708  44.0080  0.00  0.00     0.000 C
ATOM     43  C5  IDS C   3     133.184  32.893  44.3800  0.00  0.00     0.000 C
ATOM     44  O5  IDS C   3     132.233  32.470  45.3560  0.00  0.00     0.000 O
ATOM     45   O  IDS C   3     132.704  30.936  42.1830  0.00  0.00     0.000 O
ATOM     47  HD  IDS C   3     132.131  31.523  41.9040  0.00  0.00     0.000 HD
BRANCH 40 47
ATOM     47   O  IDS C   3     132.664  29.532  45.5770  0.00  0.00     0.000 O
ATOM     48   S  IDS C   3     131.809  28.419  46.3450  0.00  0.00     0.000 S
ATOM     49   O  IDS C   3     130.854  29.142  47.1560  0.00  0.00     0.000 OA
ATOM     50   O  IDS C   3     132.767  27.685  47.1410  0.00  0.00     0.000 OA
ATOM     51   O  IDS C   3     131.182  27.616  45.3290  0.00  0.00     0.000 OA
ENDBRANCH 40 47
BRANCH 43 52
ATOM     52   C  IDS C   3     133.963  34.076  44.9090  0.00  0.00     0.000 C
ATOM     53   O  IDS C   3     135.027  34.368  44.4140  0.00  0.00     0.000 OA
ATOM     54   O  IDS C   3     133.519  34.723  45.8230  0.00  0.00     0.000 OA
ENDBRANCH 43 52
BRANCH 39 55
ATOM     55  O4  SGN C   4     130.295  32.009  44.1900  0.00  0.00     0.000 O
BRANCH 55 59
ATOM     56  C1  SGN C   4     127.573  34.321  46.3690  0.00  0.00     0.000 C
ATOM     57  C2  SGN C   4     127.462  32.796  46.5290  0.00  0.00     0.000 C
ATOM     58  C3  SGN C   4     128.723  32.104  46.0180  0.00  0.00     0.000 C
ATOM     59  C4  SGN C   4     129.065  32.580  44.6110  0.00  0.00     0.000 C
ATOM     60  C5  SGN C   4     129.174  34.103  44.6210  0.00  0.00     0.000 C
ATOM     61  O5  SGN C   4     127.902  34.646  45.0270  0.00  0.00     0.000 O
ATOM     62   O  SGN C   4     128.535  30.695  46.0390  0.00  0.00     0.000 O
ATOM     64  HD  SGN C   4     128.023  30.992  46.6720  0.00  0.00     0.000 HD
BRANCH 57 66
ATOM     64   N  SGN C   4     126.310  33.196  47.3530  0.00  0.00     0.000 N
ATOM     66  HD  SGN C   4     125.514  32.892  47.5050  0.00  0.00     0.000 HD
ATOM     66   S  SGN C   4     125.652  32.169  48.3820  0.00  0.00     0.000 S
ATOM     67   O  SGN C   4     124.540  32.817  48.9750  0.00  0.00     0.000 OA
ATOM     68   O  SGN C   4     125.458  30.946  47.6830  0.00  0.00     0.000 OA
ATOM     69   O  SGN C   4     126.765  31.959  49.4590  0.00  0.00     0.000 OA
ENDBRANCH 57 66
BRANCH 60 70
ATOM     70   C  SGN C   4     129.521  34.700  43.2740  0.00  0.00     0.000 C
ATOM     71   O  SGN C   4     132.918  35.783  42.0950  0.00  0.00     0.000 OA
ATOM     72   O  SGN C   4     131.748  33.741  41.5410  0.00  0.00     0.000 OA
ATOM     73   O  SGN C   4     130.880  35.178  43.2690  0.00  0.00     0.000 O
ATOM     74   S  SGN C   4     131.643  35.146  41.8640  0.00  0.00     0.000 S
ATOM     75   O  SGN C   4     130.784  35.883  40.9590  0.00  0.00     0.000 OA
ENDBRANCH 60 70
BRANCH 56 76
ATOM     76  O4  IDS C   5     127.980  35.343  47.1450  0.00  0.00     0.000 O
BRANCH 76 80
ATOM     77  C1  IDS C   5     126.806  38.929  45.5890  0.00  0.00     0.000 C
ATOM     78  C2  IDS C   5     128.296  38.837  45.9180  0.00  0.00     0.000 C
ATOM     79  C3  IDS C   5     128.703  37.384  46.0600  0.00  0.00     0.000 C
ATOM     80  C4  IDS C   5     128.001  36.773  47.2690  0.00  0.00     0.000 C
ATOM     81  C5  IDS C   5     126.571  37.325  47.3600  0.00  0.00     0.000 C
ATOM     82  O5  IDS C   5     126.124  37.775  46.0780  0.00  0.00     0.000 O
BRANCH 78 83
ATOM     83   O  IDS C   5     129.109  39.448  44.8400  0.00  0.00     0.000 O
ATOM     84   S  IDS C   5     129.711  40.912  45.0330  0.00  0.00     0.000 S
ATOM     85   O  IDS C   5     128.621  41.730  45.4940  0.00  0.00     0.000 OA
ATOM     86   O  IDS C   5     130.762  40.763  46.0120  0.00  0.00     0.000 OA
ATOM     87   O  IDS C   5     130.210  41.304  43.7380  0.00  0.00     0.000 OA
ENDBRANCH 78 83
BRANCH 81 88
ATOM     88   C  IDS C   5     125.555  36.321  47.8740  0.00  0.00     0.000 C
ATOM     89   O  IDS C   5     125.612  35.941  49.0120  0.00  0.00     0.000 OA
ATOM     90   O  IDS C   5     124.692  35.911  47.1320  0.00  0.00     0.000 OA
ENDBRANCH 81 88
ENDBRANCH 76 80
ENDBRANCH 56 76
ENDBRANCH 55 59
ENDBRANCH 39 55
ENDBRANCH 38 42
ENDBRANCH 18 38
ENDBRANCH 17 21
ENDBRANCH 1 17
TORSDOF 18
ENDMDL
MODEL 25
REMARK VINA RESULT:      -8.2      6.481     10.937
ROOT
ATOM      1  C1  IDS C   1     149.740  17.312  54.1200  0.00  0.00     0.000 C
ATOM      2  C2  IDS C   1     148.482  17.931  54.7370  0.00  0.00     0.000 C
ATOM      3  C3  IDS C   1     147.246  17.124  54.3670  0.00  0.00     0.000 C
ATOM      4  C4  IDS C   1     147.082  17.056  52.8550  0.00  0.00     0.000 C
ATOM      5  C5  IDS C   1     148.444  16.889  52.1880  0.00  0.00     0.000 C
ATOM      6  O5  IDS C   1     149.387  16.363  53.1220  0.00  0.00     0.000 O
ATOM      7   O  IDS C   1     146.083  17.719  54.9590  0.00  0.00     0.000 O
ATOM      9  HD  IDS C   1     146.302  18.028  55.7390  0.00  0.00     0.000 HD
ENDROOT
BRANCH 2 9
ATOM      9   O  IDS C   1     148.575  17.951  56.2150  0.00  0.00     0.000 O
ATOM     10   S  IDS C   1     148.368  19.328  56.9930  0.00  0.00     0.000 S
ATOM     11   O  IDS C   1     148.505  19.013  58.3980  0.00  0.00     0.000 OA
ATOM     12   O  IDS C   1     149.409  20.210  56.5090  0.00  0.00     0.000 OA
ATOM     13   O  IDS C   1     147.039  19.781  56.6470  0.00  0.00     0.000 OA
ENDBRANCH 2 9
BRANCH 5 14
ATOM     14   C  IDS C   1     148.384  15.959  50.9880  0.00  0.00     0.000 C
ATOM     15   O  IDS C   1     147.474  15.173  50.8910  0.00  0.00     0.000 OA
ATOM     16   O  IDS C   1     149.256  16.013  50.1370  0.00  0.00     0.000 OA
ENDBRANCH 5 14
BRANCH 1 17
ATOM     17  O4  SGN C   2     150.889  17.181  54.7890  0.00  0.00     0.000 O
BRANCH 17 21
ATOM     18  C1  SGN C   2     153.799  14.935  56.7910  0.00  0.00     0.000 C
ATOM     19  C2  SGN C   2     152.667  14.148  56.1180  0.00  0.00     0.000 C
ATOM     20  C3  SGN C   2     151.949  15.041  55.0990  0.00  0.00     0.000 C
ATOM     21  C4  SGN C   2     151.495  16.336  55.7630  0.00  0.00     0.000 C
ATOM     22  C5  SGN C   2     152.704  17.025  56.3890  0.00  0.00     0.000 C
ATOM     23  O5  SGN C   2     153.327  16.143  57.3500  0.00  0.00     0.000 O
ATOM     24   O  SGN C   2     150.848  14.345  54.5390  0.00  0.00     0.000 O
ATOM     26  HD  SGN C   2     151.546  14.858  54.5390  0.00  0.00     0.000 HD
BRANCH 19 28
ATOM     26   N  SGN C   2     153.192  12.776  56.1390  0.00  0.00     0.000 N
ATOM     28  HD  SGN C   2     153.340  13.065  56.9420  0.00  0.00     0.000 HD
ATOM     28   O  SGN C   2     153.043  10.419  55.3360  0.00  0.00     0.000 OA
ATOM     29   S  SGN C   2     152.229  11.488  56.1390  0.00  0.00     0.000 S
ATOM     30   O  SGN C   2     152.104  11.050  57.4760  0.00  0.00     0.000 OA
ATOM     31   O  SGN C   2     151.062  11.822  55.3970  0.00  0.00     0.000 OA
ENDBRANCH 19 28
BRANCH 22 32
ATOM     32   C  SGN C   2     152.354  18.295  57.1260  0.00  0.00     0.000 C
ATOM     33   S  SGN C   2     152.972  20.796  57.0800  0.00  0.00     0.000 S
ATOM     34   O  SGN C   2     154.234  20.567  57.7370  0.00  0.00     0.000 OA
ATOM     35   O  SGN C   2     153.033  21.801  56.0390  0.00  0.00     0.000 OA
ATOM     36   O  SGN C   2     151.860  20.973  57.9850  0.00  0.00     0.000 OA
ATOM     37   O  SGN C   2     152.674  19.429  56.3120  0.00  0.00     0.000 O
ENDBRANCH 22 32
BRANCH 18 38
ATOM     38  O4  IDS C   3     155.020  15.239  56.3460  0.00  0.00     0.000 O
BRANCH 38 42
ATOM     39  C1  IDS C   3     157.885  16.568  54.8780  0.00  0.00     0.000 C
ATOM     40  C2  IDS C   3     156.717  16.061  54.0170  0.00  0.00     0.000 C
ATOM     41  C3  IDS C   3     156.321  14.637  54.4060  0.00  0.00     0.000 C
ATOM     42  C4  IDS C   3     156.168  14.500  55.9150  0.00  0.00     0.000 C
ATOM     43  C5  IDS C   3     157.425  15.032  56.6140  0.00  0.00     0.000 C
ATOM     44  O5  IDS C   3     157.613  16.401  56.2590  0.00  0.00     0.000 O
ATOM     45   O  IDS C   3     157.315  13.725  53.9370  0.00  0.00     0.000 O
ATOM     47  HD  IDS C   3     158.172  13.650  54.0360  0.00  0.00     0.000 HD
BRANCH 40 47
ATOM     47   O  IDS C   3     155.524  16.921  54.2020  0.00  0.00     0.000 O
ATOM     48   S  IDS C   3     155.235  18.113  53.1750  0.00  0.00     0.000 S
ATOM     49   O  IDS C   3     156.147  19.177  53.5350  0.00  0.00     0.000 OA
ATOM     50   O  IDS C   3     153.851  18.474  53.3910  0.00  0.00     0.000 OA
ATOM     51   O  IDS C   3     155.484  17.586  51.8600  0.00  0.00     0.000 OA
ENDBRANCH 40 47
BRANCH 43 52
ATOM     52   C  IDS C   3     157.357  14.902  58.1200  0.00  0.00     0.000 C
ATOM     53   O  IDS C   3     157.102  13.831  58.6220  0.00  0.00     0.000 OA
ATOM     54   O  IDS C   3     157.559  15.867  58.8120  0.00  0.00     0.000 OA
ENDBRANCH 43 52
BRANCH 39 55
ATOM     55  O4  SGN C   4     159.168  16.402  54.5540  0.00  0.00     0.000 O
BRANCH 55 59
ATOM     56  C1  SGN C   4     159.872  15.557  50.5170  0.00  0.00     0.000 C
ATOM     57  C2  SGN C   4     160.613  14.682  51.5420  0.00  0.00     0.000 C
ATOM     58  C3  SGN C   4     159.984  14.819  52.9260  0.00  0.00     0.000 C
ATOM     59  C4  SGN C   4     159.848  16.287  53.3120  0.00  0.00     0.000 C
ATOM     60  C5  SGN C   4     159.065  17.012  52.2200  0.00  0.00     0.000 C
ATOM     61  O5  SGN C   4     159.798  16.895  50.9840  0.00  0.00     0.000 O
ATOM     62   O  SGN C   4     160.775  14.121  53.8790  0.00  0.00     0.000 O
ATOM     64  HD  SGN C   4     160.911  13.700  53.1340  0.00  0.00     0.000 HD
BRANCH 57 66
ATOM     64   N  SGN C   4     161.500  14.252  50.4490  0.00  0.00     0.000 N
ATOM     66  HD  SGN C   4     162.253  13.830  50.3830  0.00  0.00     0.000 HD
ATOM     66   S  SGN C   4     161.952  12.727  50.3220  0.00  0.00     0.000 S
ATOM     67   O  SGN C   4     162.841  12.637  49.2220  0.00  0.00     0.000 OA
ATOM     68   O  SGN C   4     162.390  12.315  51.6110  0.00  0.00     0.000 OA
ATOM     69   O  SGN C   4     160.626  11.975  49.9810  0.00  0.00     0.000 OA
ENDBRANCH 57 66
BRANCH 60 70
ATOM     70   C  SGN C   4     158.854  18.485  52.4940  0.00  0.00     0.000 C
ATOM     71   O  SGN C   4     161.325  20.873  54.0090  0.00  0.00     0.000 OA
ATOM     72   O  SGN C   4     160.752  20.630  51.6720  0.00  0.00     0.000 OA
ATOM     73   O  SGN C   4     159.947  19.016  53.2680  0.00  0.00     0.000 O
ATOM     74   S  SGN C   4     160.298  20.559  53.0420  0.00  0.00     0.000 S
ATOM     75   O  SGN C   4     159.052  21.261  53.2750  0.00  0.00     0.000 OA
ENDBRANCH 60 70
BRANCH 56 76
ATOM     76  O4  IDS C   5     158.860  15.374  49.6490  0.00  0.00     0.000 O
BRANCH 76 80
ATOM     77  C1  IDS C   5     154.796  15.298  49.2810  0.00  0.00     0.000 C
ATOM     78  C2  IDS C   5     155.372  14.203  50.1780  0.00  0.00     0.000 C
ATOM     79  C3  IDS C   5     156.782  14.570  50.5980  0.00  0.00     0.000 C
ATOM     80  C4  IDS C   5     157.691  14.587  49.3730  0.00  0.00     0.000 C
ATOM     81  C5  IDS C   5     156.924  15.167  48.1770  0.00  0.00     0.000 C
ATOM     82  O5  IDS C   5     155.851  16.001  48.6250  0.00  0.00     0.000 O
BRANCH 78 83
ATOM     83   O  IDS C   5     154.548  14.037  51.3980  0.00  0.00     0.000 O
ATOM     84   S  IDS C   5     154.125  12.575  51.8770  0.00  0.00     0.000 S
ATOM     85   O  IDS C   5     153.604  11.913  50.7120  0.00  0.00     0.000 OA
ATOM     86   O  IDS C   5     155.340  11.975  52.3760  0.00  0.00     0.000 OA
ATOM     87   O  IDS C   5     153.138  12.773  52.9100  0.00  0.00     0.000 OA
ENDBRANCH 78 83
BRANCH 81 88
ATOM     88   C  IDS C   5     157.782  15.993  47.2360  0.00  0.00     0.000 C
ATOM     89   O  IDS C   5     157.877  17.180  47.3980  0.00  0.00     0.000 OA
ATOM     90   O  IDS C   5     158.368  15.450  46.3270  0.00  0.00     0.000 OA
ENDBRANCH 81 88
ENDBRANCH 76 80
ENDBRANCH 56 76
ENDBRANCH 55 59
ENDBRANCH 39 55
ENDBRANCH 38 42
ENDBRANCH 18 38
ENDBRANCH 17 21
ENDBRANCH 1 17
TORSDOF 18
ENDMDL
MODEL 26
REMARK VINA RESULT:      -8.2     24.853     30.977
ROOT
ATOM      1  C1  IDS C   1     153.623  36.822  73.6590  0.00  0.00     0.000 C
ATOM      2  C2  IDS C   1     155.130  36.580  73.7920  0.00  0.00     0.000 C
ATOM      3  C3  IDS C   1     155.824  37.804  74.3710  0.00  0.00     0.000 C
ATOM      4  C4  IDS C   1     155.587  39.023  73.4900  0.00  0.00     0.000 C
ATOM      5  C5  IDS C   1     154.154  39.019  72.9660  0.00  0.00     0.000 C
ATOM      6  O5  IDS C   1     153.329  38.206  73.8000  0.00  0.00     0.000 O
ATOM      7   O  IDS C   1     157.231  37.552  74.4900  0.00  0.00     0.000 O
ATOM      9  HD  IDS C   1     157.341  36.723  74.7160  0.00  0.00     0.000 HD
ENDROOT
BRANCH 2 9
ATOM      9   O  IDS C   1     155.402  35.442  74.6990  0.00  0.00     0.000 O
ATOM     10   S  IDS C   1     156.200  34.175  74.1480  0.00  0.00     0.000 S
ATOM     11   O  IDS C   1     156.312  33.262  75.2640  0.00  0.00     0.000 OA
ATOM     12   O  IDS C   1     155.395  33.648  73.0660  0.00  0.00     0.000 OA
ATOM     13   O  IDS C   1     157.481  34.678  73.7040  0.00  0.00     0.000 OA
ENDBRANCH 2 9
BRANCH 5 14
ATOM     14   C  IDS C   1     153.559  40.416  72.9170  0.00  0.00     0.000 C
ATOM     15   O  IDS C   1     153.298  40.913  71.8480  0.00  0.00     0.000 OA
ATOM     16   O  IDS C   1     153.353  41.024  73.9540  0.00  0.00     0.000 OA
ENDBRANCH 5 14
BRANCH 1 17
ATOM     17  O4  SGN C   2     152.708  35.908  73.9910  0.00  0.00     0.000 O
BRANCH 17 21
ATOM     18  C1  SGN C   2     150.248  33.916  76.7320  0.00  0.00     0.000 C
ATOM     19  C2  SGN C   2     151.024  35.128  77.2600  0.00  0.00     0.000 C
ATOM     20  C3  SGN C   2     151.521  35.980  76.0860  0.00  0.00     0.000 C
ATOM     21  C4  SGN C   2     152.310  35.117  75.1080  0.00  0.00     0.000 C
ATOM     22  C5  SGN C   2     151.435  33.953  74.6530  0.00  0.00     0.000 C
ATOM     23  O5  SGN C   2     151.012  33.180  75.8000  0.00  0.00     0.000 O
ATOM     24   O  SGN C   2     152.312  37.053  76.5680  0.00  0.00     0.000 O
ATOM     26  HD  SGN C   2     151.716  36.667  76.0730  0.00  0.00     0.000 HD
BRANCH 19 28
ATOM     26   N  SGN C   2     150.273  35.445  78.4830  0.00  0.00     0.000 N
ATOM     28  HD  SGN C   2     150.225  34.582  78.4300  0.00  0.00     0.000 HD
ATOM     28   O  SGN C   2     149.964  36.903  80.4840  0.00  0.00     0.000 OA
ATOM     29   S  SGN C   2     150.997  35.920  79.8380  0.00  0.00     0.000 S
ATOM     30   O  SGN C   2     151.125  34.786  80.6710  0.00  0.00     0.000 OA
ATOM     31   O  SGN C   2     152.157  36.656  79.4720  0.00  0.00     0.000 OA
ENDBRANCH 19 28
BRANCH 22 32
ATOM     32   C  SGN C   2     152.144  32.999  73.7220  0.00  0.00     0.000 C
ATOM     33   S  SGN C   2     151.584  31.446  71.7440  0.00  0.00     0.000 S
ATOM     34   O  SGN C   2     151.013  30.441  72.6050  0.00  0.00     0.000 OA
ATOM     35   O  SGN C   2     150.867  31.618  70.4970  0.00  0.00     0.000 OA
ATOM     36   O  SGN C   2     153.013  31.332  71.5740  0.00  0.00     0.000 OA
ATOM     37   O  SGN C   2     151.363  32.814  72.5350  0.00  0.00     0.000 O
ENDBRANCH 22 32
BRANCH 18 38
ATOM     38  O4  IDS C   3     148.999  33.827  76.2680  0.00  0.00     0.000 O
BRANCH 38 42
ATOM     39  C1  IDS C   3     145.697  33.125  75.4160  0.00  0.00     0.000 C
ATOM     40  C2  IDS C   3     146.864  32.393  74.7330  0.00  0.00     0.000 C
ATOM     41  C3  IDS C   3     147.886  33.382  74.1760  0.00  0.00     0.000 C
ATOM     42  C4  IDS C   3     148.252  34.438  75.2100  0.00  0.00     0.000 C
ATOM     43  C5  IDS C   3     146.977  35.079  75.7720  0.00  0.00     0.000 C
ATOM     44  O5  IDS C   3     146.168  34.065  76.3660  0.00  0.00     0.000 O
ATOM     45   O  IDS C   3     147.348  34.014  73.0120  0.00  0.00     0.000 O
ATOM     47  HD  IDS C   3     146.628  34.462  72.8370  0.00  0.00     0.000 HD
BRANCH 40 47
ATOM     47   O  IDS C   3     147.570  31.522  75.7030  0.00  0.00     0.000 O
ATOM     48   S  IDS C   3     147.750  29.964  75.3890  0.00  0.00     0.000 S
ATOM     49   O  IDS C   3     146.467  29.353  75.6640  0.00  0.00     0.000 OA
ATOM     50   O  IDS C   3     148.783  29.511  76.2940  0.00  0.00     0.000 OA
ATOM     51   O  IDS C   3     148.128  29.869  74.0050  0.00  0.00     0.000 OA
ENDBRANCH 40 47
BRANCH 43 52
ATOM     52   C  IDS C   3     147.264  36.160  76.7890  0.00  0.00     0.000 C
ATOM     53   O  IDS C   3     147.611  37.259  76.4200  0.00  0.00     0.000 OA
ATOM     54   O  IDS C   3     147.146  35.922  77.9640  0.00  0.00     0.000 OA
ENDBRANCH 43 52
BRANCH 39 55
ATOM     55  O4  SGN C   4     144.590  33.506  74.7770  0.00  0.00     0.000 O
BRANCH 55 59
ATOM     56  C1  SGN C   4     140.901  32.052  76.1120  0.00  0.00     0.000 C
ATOM     57  C2  SGN C   4     141.803  31.056  75.3640  0.00  0.00     0.000 C
ATOM     58  C3  SGN C   4     143.236  31.575  75.2870  0.00  0.00     0.000 C
ATOM     59  C4  SGN C   4     143.264  32.999  74.7450  0.00  0.00     0.000 C
ATOM     60  C5  SGN C   4     142.352  33.870  75.6070  0.00  0.00     0.000 C
ATOM     61  O5  SGN C   4     141.014  33.340  75.5290  0.00  0.00     0.000 O
ATOM     62   O  SGN C   4     144.012  30.711  74.4670  0.00  0.00     0.000 O
ATOM     64  HD  SGN C   4     143.396  30.200  74.7980  0.00  0.00     0.000 HD
BRANCH 57 66
ATOM     64   N  SGN C   4     140.683  30.164  75.0230  0.00  0.00     0.000 N
ATOM     66  HD  SGN C   4     140.586  29.418  74.5930  0.00  0.00     0.000 HD
ATOM     66   S  SGN C   4     140.739  28.613  75.3920  0.00  0.00     0.000 S
ATOM     67   O  SGN C   4     139.558  28.013  74.8870  0.00  0.00     0.000 OA
ATOM     68   O  SGN C   4     142.006  28.129  74.9660  0.00  0.00     0.000 OA
ATOM     69   O  SGN C   4     140.699  28.602  76.9540  0.00  0.00     0.000 OA
ENDBRANCH 57 66
BRANCH 60 70
ATOM     70   C  SGN C   4     142.301  35.319  75.1730  0.00  0.00     0.000 C
ATOM     71   O  SGN C   4     144.370  38.151  76.5170  0.00  0.00     0.000 OA
ATOM     72   O  SGN C   4     144.699  36.936  74.4520  0.00  0.00     0.000 OA
ATOM     73   O  SGN C   4     143.089  36.139  76.0570  0.00  0.00     0.000 O
ATOM     74   S  SGN C   4     143.752  37.446  75.4180  0.00  0.00     0.000 S
ATOM     75   O  SGN C   4     142.647  38.166  74.8180  0.00  0.00     0.000 OA
ENDBRANCH 60 70
BRANCH 56 76
ATOM     76  O4  IDS C   5     140.498  32.216  77.3860  0.00  0.00     0.000 O
BRANCH 76 80
ATOM     77  C1  IDS C   5     140.425  33.934  81.0870  0.00  0.00     0.000 C
ATOM     78  C2  IDS C   5     141.819  33.538  80.5990  0.00  0.00     0.000 C
ATOM     79  C3  IDS C   5     141.798  33.333  79.0970  0.00  0.00     0.000 C
ATOM     80  C4  IDS C   5     140.914  32.136  78.7570  0.00  0.00     0.000 C
ATOM     81  C5  IDS C   5     139.693  32.126  79.6880  0.00  0.00     0.000 C
ATOM     82  O5  IDS C   5     139.432  33.440  80.1890  0.00  0.00     0.000 O
BRANCH 78 83
ATOM     83   O  IDS C   5     142.805  34.598  80.9130  0.00  0.00     0.000 O
ATOM     84   S  IDS C   5     144.027  34.280  81.8880  0.00  0.00     0.000 S
ATOM     85   O  IDS C   5     143.456  33.637  83.0410  0.00  0.00     0.000 OA
ATOM     86   O  IDS C   5     144.901  33.416  81.1300  0.00  0.00     0.000 OA
ATOM     87   O  IDS C   5     144.630  35.556  82.1880  0.00  0.00     0.000 OA
ENDBRANCH 78 83
BRANCH 81 88
ATOM     88   C  IDS C   5     138.420  31.626  79.0290  0.00  0.00     0.000 C
ATOM     89   O  IDS C   5     137.561  32.407  78.7170  0.00  0.00     0.000 OA
ATOM     90   O  IDS C   5     138.279  30.443  78.8200  0.00  0.00     0.000 OA
ENDBRANCH 81 88
ENDBRANCH 76 80
ENDBRANCH 56 76
ENDBRANCH 55 59
ENDBRANCH 39 55
ENDBRANCH 38 42
ENDBRANCH 18 38
ENDBRANCH 17 21
ENDBRANCH 1 17
TORSDOF 18
ENDMDL
MODEL 27
REMARK VINA RESULT:      -8.1     25.571     30.531
ROOT
ATOM      1  C1  IDS C   1     148.515  42.950  70.0560  0.00  0.00     0.000 C
ATOM      2  C2  IDS C   1     147.962  43.617  68.7930  0.00  0.00     0.000 C
ATOM      3  C3  IDS C   1     148.821  44.808  68.3910  0.00  0.00     0.000 C
ATOM      4  C4  IDS C   1     148.879  45.832  69.5160  0.00  0.00     0.000 C
ATOM      5  C5  IDS C   1     148.975  45.125  70.8640  0.00  0.00     0.000 C
ATOM      6  O5  IDS C   1     149.467  43.796  70.6870  0.00  0.00     0.000 O
ATOM      7   O  IDS C   1     148.287  45.412  67.2050  0.00  0.00     0.000 O
ATOM      9  HD  IDS C   1     147.978  44.784  66.6950  0.00  0.00     0.000 HD
ENDROOT
BRANCH 2 9
ATOM      9   O  IDS C   1     147.954  42.669  67.6570  0.00  0.00     0.000 O
ATOM     10   S  IDS C   1     146.586  42.372  66.8930  0.00  0.00     0.000 S
ATOM     11   O  IDS C   1     146.913  41.432  65.8440  0.00  0.00     0.000 OA
ATOM     12   O  IDS C   1     145.695  41.817  67.8910  0.00  0.00     0.000 OA
ATOM     13   O  IDS C   1     146.135  43.648  66.3820  0.00  0.00     0.000 OA
ENDBRANCH 2 9
BRANCH 5 14
ATOM     14   C  IDS C   1     149.892  45.854  71.8300  0.00  0.00     0.000 C
ATOM     15   O  IDS C   1     151.040  45.498  71.9420  0.00  0.00     0.000 OA
ATOM     16   O  IDS C   1     149.462  46.789  72.4850  0.00  0.00     0.000 OA
ENDBRANCH 5 14
BRANCH 1 17
ATOM     17  O4  SGN C   2     148.600  41.625  70.2010  0.00  0.00     0.000 O
BRANCH 17 21
ATOM     18  C1  SGN C   2     150.644  38.089  71.1190  0.00  0.00     0.000 C
ATOM     19  C2  SGN C   2     151.383  39.403  71.4040  0.00  0.00     0.000 C
ATOM     20  C3  SGN C   2     150.384  40.566  71.4250  0.00  0.00     0.000 C
ATOM     21  C4  SGN C   2     149.567  40.580  70.1380  0.00  0.00     0.000 C
ATOM     22  C5  SGN C   2     148.880  39.228  69.9690  0.00  0.00     0.000 C
ATOM     23  O5  SGN C   2     149.872  38.176  69.9400  0.00  0.00     0.000 O
ATOM     24   O  SGN C   2     151.074  41.792  71.6010  0.00  0.00     0.000 O
ATOM     26  HD  SGN C   2     150.443  41.211  71.7250  0.00  0.00     0.000 HD
BRANCH 19 28
ATOM     26   N  SGN C   2     152.521  38.956  72.2190  0.00  0.00     0.000 N
ATOM     28  HD  SGN C   2     152.537  38.426  71.5340  0.00  0.00     0.000 HD
ATOM     28   O  SGN C   2     154.368  39.515  73.7990  0.00  0.00     0.000 OA
ATOM     29   S  SGN C   2     153.877  39.811  72.3420  0.00  0.00     0.000 S
ATOM     30   O  SGN C   2     154.809  39.264  71.4320  0.00  0.00     0.000 OA
ATOM     31   O  SGN C   2     153.530  41.186  72.2510  0.00  0.00     0.000 OA
ENDBRANCH 19 28
BRANCH 22 32
ATOM     32   C  SGN C   2     148.088  39.115  68.6890  0.00  0.00     0.000 C
ATOM     33   S  SGN C   2     146.095  37.774  67.7560  0.00  0.00     0.000 S
ATOM     34   O  SGN C   2     146.895  36.590  67.5600  0.00  0.00     0.000 OA
ATOM     35   O  SGN C   2     144.755  37.497  68.2300  0.00  0.00     0.000 OA
ATOM     36   O  SGN C   2     146.134  38.701  66.6490  0.00  0.00     0.000 OA
ATOM     37   O  SGN C   2     146.808  38.534  68.9650  0.00  0.00     0.000 O
ENDBRANCH 22 32
BRANCH 18 38
ATOM     38  O4  IDS C   3     149.914  37.318  71.9290  0.00  0.00     0.000 O
BRANCH 38 42
ATOM     39  C1  IDS C   3     149.268  34.893  74.3430  0.00  0.00     0.000 C
ATOM     40  C2  IDS C   3     150.411  34.717  73.3300  0.00  0.00     0.000 C
ATOM     41  C3  IDS C   3     149.913  34.907  71.8980  0.00  0.00     0.000 C
ATOM     42  C4  IDS C   3     149.074  36.170  71.7690  0.00  0.00     0.000 C
ATOM     43  C5  IDS C   3     147.974  36.174  72.8370  0.00  0.00     0.000 C
ATOM     44  O5  IDS C   3     148.577  36.112  74.1280  0.00  0.00     0.000 O
ATOM     45   O  IDS C   3     149.137  33.770  71.5120  0.00  0.00     0.000 O
ATOM     47  HD  IDS C   3     148.443  33.365  71.8350  0.00  0.00     0.000 HD
BRANCH 40 47
ATOM     47   O  IDS C   3     151.476  35.720  73.5680  0.00  0.00     0.000 O
ATOM     48   S  IDS C   3     152.696  35.370  74.5410  0.00  0.00     0.000 S
ATOM     49   O  IDS C   3     152.179  35.493  75.8870  0.00  0.00     0.000 OA
ATOM     50   O  IDS C   3     153.712  36.356  74.2460  0.00  0.00     0.000 OA
ATOM     51   O  IDS C   3     153.100  34.027  74.2190  0.00  0.00     0.000 OA
ENDBRANCH 40 47
BRANCH 43 52
ATOM     52   C  IDS C   3     147.079  37.391  72.7530  0.00  0.00     0.000 C
ATOM     53   O  IDS C   3     146.128  37.389  72.0050  0.00  0.00     0.000 OA
ATOM     54   O  IDS C   3     147.318  38.357  73.4320  0.00  0.00     0.000 OA
ENDBRANCH 43 52
BRANCH 39 55
ATOM     55  O4  SGN C   4     148.489  33.894  74.7590  0.00  0.00     0.000 O
BRANCH 55 59
ATOM     56  C1  SGN C   4     146.236  32.349  77.9280  0.00  0.00     0.000 C
ATOM     57  C2  SGN C   4     146.799  33.768  78.1130  0.00  0.00     0.000 C
ATOM     58  C3  SGN C   4     147.244  34.353  76.7750  0.00  0.00     0.000 C
ATOM     59  C4  SGN C   4     148.168  33.384  76.0460  0.00  0.00     0.000 C
ATOM     60  C5  SGN C   4     147.460  32.038  75.9100  0.00  0.00     0.000 C
ATOM     61  O5  SGN C   4     147.174  31.542  77.2330  0.00  0.00     0.000 O
ATOM     62   O  SGN C   4     147.893  35.598  76.9920  0.00  0.00     0.000 O
ATOM     64  HD  SGN C   4     147.338  35.525  77.6520  0.00  0.00     0.000 HD
BRANCH 57 66
ATOM     64   N  SGN C   4     146.224  33.588  79.4550  0.00  0.00     0.000 N
ATOM     66  HD  SGN C   4     146.425  33.836  80.2600  0.00  0.00     0.000 HD
ATOM     66   S  SGN C   4     145.907  34.851  80.3790  0.00  0.00     0.000 S
ATOM     67   O  SGN C   4     145.425  34.360  81.6180  0.00  0.00     0.000 OA
ATOM     68   O  SGN C   4     147.061  35.682  80.3560  0.00  0.00     0.000 OA
ATOM     69   O  SGN C   4     144.750  35.580  79.6250  0.00  0.00     0.000 OA
ENDBRANCH 57 66
BRANCH 60 70
ATOM     70   C  SGN C   4     148.277  30.988  75.1900  0.00  0.00     0.000 C
ATOM     71   O  SGN C   4     150.308  31.460  72.0660  0.00  0.00     0.000 OA
ATOM     72   O  SGN C   4     151.111  31.359  74.3450  0.00  0.00     0.000 OA
ATOM     73   O  SGN C   4     148.743  31.491  73.9230  0.00  0.00     0.000 O
ATOM     74   S  SGN C   4     150.130  30.903  73.3870  0.00  0.00     0.000 S
ATOM     75   O  SGN C   4     149.947  29.465  73.3880  0.00  0.00     0.000 OA
ENDBRANCH 60 70
BRANCH 56 76
ATOM     76  O4  IDS C   5     145.016  31.816  77.7300  0.00  0.00     0.000 O
BRANCH 76 80
ATOM     77  C1  IDS C   5     142.921  32.458  74.2870  0.00  0.00     0.000 C
ATOM     78  C2  IDS C   5     142.608  33.443  75.4130  0.00  0.00     0.000 C
ATOM     79  C3  IDS C   5     143.713  33.406  76.4510  0.00  0.00     0.000 C
ATOM     80  C4  IDS C   5     143.733  32.038  77.1270  0.00  0.00     0.000 C
ATOM     81  C5  IDS C   5     143.435  30.951  76.0840  0.00  0.00     0.000 C
ATOM     82  O5  IDS C   5     143.763  31.411  74.7700  0.00  0.00     0.000 O
BRANCH 78 83
ATOM     83   O  IDS C   5     142.505  34.824  74.8870  0.00  0.00     0.000 O
ATOM     84   S  IDS C   5     141.095  35.570  74.8890  0.00  0.00     0.000 S
ATOM     85   O  IDS C   5     140.156  34.643  74.3170  0.00  0.00     0.000 OA
ATOM     86   O  IDS C   5     140.826  35.867  76.2770  0.00  0.00     0.000 OA
ATOM     87   O  IDS C   5     141.281  36.759  74.0930  0.00  0.00     0.000 OA
ENDBRANCH 78 83
BRANCH 81 88
ATOM     88   C  IDS C   5     144.187  29.653  76.3160  0.00  0.00     0.000 C
ATOM     89   O  IDS C   5     143.798  28.876  77.1470  0.00  0.00     0.000 OA
ATOM     90   O  IDS C   5     145.173  29.408  75.6610  0.00  0.00     0.000 OA
ENDBRANCH 81 88
ENDBRANCH 76 80
ENDBRANCH 56 76
ENDBRANCH 55 59
ENDBRANCH 39 55
ENDBRANCH 38 42
ENDBRANCH 18 38
ENDBRANCH 17 21
ENDBRANCH 1 17
TORSDOF 18
ENDMDL
MODEL 28
REMARK VINA RESULT:      -8.1     24.570     30.569
ROOT
ATOM      1  C1  IDS C   1     134.010  19.787  64.5220  0.00  0.00     0.000 C
ATOM      2  C2  IDS C   1     133.226  20.322  63.3200  0.00  0.00     0.000 C
ATOM      3  C3  IDS C   1     133.148  19.277  62.2170  0.00  0.00     0.000 C
ATOM      4  C4  IDS C   1     134.543  18.868  61.7660  0.00  0.00     0.000 C
ATOM      5  C5  IDS C   1     135.477  18.775  62.9680  0.00  0.00     0.000 C
ATOM      6  O5  IDS C   1     134.718  18.607  64.1660  0.00  0.00     0.000 O
ATOM      7   O  IDS C   1     132.406  19.799  61.1060  0.00  0.00     0.000 O
ATOM      9  HD  IDS C   1     131.766  20.294  61.4140  0.00  0.00     0.000 HD
ENDROOT
BRANCH 2 9
ATOM      9   O  IDS C   1     131.839  20.667  63.7070  0.00  0.00     0.000 O
ATOM     10   S  IDS C   1     131.315  22.158  63.4950  0.00  0.00     0.000 S
ATOM     11   O  IDS C   1     129.942  22.164  63.9500  0.00  0.00     0.000 OA
ATOM     12   O  IDS C   1     132.180  22.994  64.3010  0.00  0.00     0.000 OA
ATOM     13   O  IDS C   1     131.437  22.422  62.0780  0.00  0.00     0.000 OA
ENDBRANCH 2 9
BRANCH 5 14
ATOM     14   C  IDS C   1     136.451  17.615  62.8490  0.00  0.00     0.000 C
ATOM     15   O  IDS C   1     136.384  16.700  63.6340  0.00  0.00     0.000 OA
ATOM     16   O  IDS C   1     137.292  17.619  61.9660  0.00  0.00     0.000 OA
ENDBRANCH 5 14
BRANCH 1 17
ATOM     17  O4  SGN C   2     133.622  19.977  65.7870  0.00  0.00     0.000 O
BRANCH 17 21
ATOM     18  C1  SGN C   2     131.977  18.863  69.4720  0.00  0.00     0.000 C
ATOM     19  C2  SGN C   2     132.418  17.724  68.5440  0.00  0.00     0.000 C
ATOM     20  C3  SGN C   2     133.361  18.269  67.4640  0.00  0.00     0.000 C
ATOM     21  C4  SGN C   2     132.708  19.441  66.7400  0.00  0.00     0.000 C
ATOM     22  C5  SGN C   2     132.321  20.505  67.7630  0.00  0.00     0.000 C
ATOM     23  O5  SGN C   2     131.421  19.937  68.7420  0.00  0.00     0.000 O
ATOM     24   O  SGN C   2     133.700  17.236  66.5550  0.00  0.00     0.000 O
ATOM     26  HD  SGN C   2     133.839  17.923  67.0620  0.00  0.00     0.000 HD
BRANCH 19 28
ATOM     26   N  SGN C   2     132.514  16.601  69.4870  0.00  0.00     0.000 N
ATOM     28  HD  SGN C   2     131.855  17.072  69.7940  0.00  0.00     0.000 HD
ATOM     28   O  SGN C   2     133.036  14.197  69.9000  0.00  0.00     0.000 OA
ATOM     29   S  SGN C   2     132.050  15.111  69.0980  0.00  0.00     0.000 S
ATOM     30   O  SGN C   2     130.746  14.925  69.6080  0.00  0.00     0.000 OA
ATOM     31   O  SGN C   2     132.293  14.932  67.7080  0.00  0.00     0.000 OA
ENDBRANCH 19 28
BRANCH 22 32
ATOM     32   C  SGN C   2     131.611  21.689  67.1540  0.00  0.00     0.000 C
ATOM     33   S  SGN C   2     130.780  24.024  67.8620  0.00  0.00     0.000 S
ATOM     34   O  SGN C   2     129.636  23.483  68.5520  0.00  0.00     0.000 OA
ATOM     35   O  SGN C   2     131.389  25.149  68.5400  0.00  0.00     0.000 OA
ATOM     36   O  SGN C   2     130.564  24.251  66.4520  0.00  0.00     0.000 OA
ATOM     37   O  SGN C   2     131.870  22.861  67.9370  0.00  0.00     0.000 O
ENDBRANCH 22 32
BRANCH 18 38
ATOM     38  O4  IDS C   3     132.625  19.456  70.4770  0.00  0.00     0.000 O
BRANCH 38 42
ATOM     39  C1  IDS C   3     133.870  19.864  73.7030  0.00  0.00     0.000 C
ATOM     40  C2  IDS C   3     132.500  19.212  73.4600  0.00  0.00     0.000 C
ATOM     41  C3  IDS C   3     131.619  20.092  72.5740  0.00  0.00     0.000 C
ATOM     42  C4  IDS C   3     132.377  20.569  71.3430  0.00  0.00     0.000 C
ATOM     43  C5  IDS C   3     133.705  21.208  71.7660  0.00  0.00     0.000 C
ATOM     44  O5  IDS C   3     134.479  20.247  72.4810  0.00  0.00     0.000 O
ATOM     45   O  IDS C   3     131.165  21.218  73.3270  0.00  0.00     0.000 O
ATOM     47  HD  IDS C   3     131.551  21.844  73.7840  0.00  0.00     0.000 HD
BRANCH 40 47
ATOM     47   O  IDS C   3     132.659  17.908  72.7750  0.00  0.00     0.000 O
ATOM     48   S  IDS C   3     132.599  16.552  73.6210  0.00  0.00     0.000 S
ATOM     49   O  IDS C   3     133.880  16.441  74.2850  0.00  0.00     0.000 OA
ATOM     50   O  IDS C   3     132.390  15.504  72.6450  0.00  0.00     0.000 OA
ATOM     51   O  IDS C   3     131.504  16.695  74.5420  0.00  0.00     0.000 OA
ENDBRANCH 40 47
BRANCH 43 52
ATOM     52   C  IDS C   3     134.503  21.732  70.5930  0.00  0.00     0.000 C
ATOM     53   O  IDS C   3     134.385  22.887  70.2520  0.00  0.00     0.000 OA
ATOM     54   O  IDS C   3     135.254  20.996  70.0050  0.00  0.00     0.000 OA
ENDBRANCH 43 52
BRANCH 39 55
ATOM     55  O4  SGN C   4     134.126  20.690  74.7180  0.00  0.00     0.000 O
BRANCH 55 59
ATOM     56  C1  SGN C   4     134.180  21.328  78.8530  0.00  0.00     0.000 C
ATOM     57  C2  SGN C   4     134.111  19.864  78.3840  0.00  0.00     0.000 C
ATOM     58  C3  SGN C   4     134.492  19.750  76.9100  0.00  0.00     0.000 C
ATOM     59  C4  SGN C   4     133.688  20.734  76.0690  0.00  0.00     0.000 C
ATOM     60  C5  SGN C   4     133.883  22.139  76.6350  0.00  0.00     0.000 C
ATOM     61  O5  SGN C   4     133.405  22.149  77.9950  0.00  0.00     0.000 O
ATOM     62   O  SGN C   4     134.277  18.417  76.4660  0.00  0.00     0.000 O
ATOM     64  HD  SGN C   4     134.446  18.339  77.3110  0.00  0.00     0.000 HD
BRANCH 57 66
ATOM     64   N  SGN C   4     134.354  19.661  79.8210  0.00  0.00     0.000 N
ATOM     66  HD  SGN C   4     133.934  19.287  80.4800  0.00  0.00     0.000 HD
ATOM     66   S  SGN C   4     134.287  18.198  80.4560  0.00  0.00     0.000 S
ATOM     67   O  SGN C   4     134.501  18.331  81.8510  0.00  0.00     0.000 OA
ATOM     68   O  SGN C   4     133.087  17.595  79.9870  0.00  0.00     0.000 OA
ATOM     69   O  SGN C   4     135.503  17.458  79.8130  0.00  0.00     0.000 OA
ENDBRANCH 57 66
BRANCH 60 70
ATOM     70   C  SGN C   4     133.137  23.213  75.8750  0.00  0.00     0.000 C
ATOM     71   O  SGN C   4     134.561  26.404  74.4970  0.00  0.00     0.000 OA
ATOM     72   O  SGN C   4     134.050  24.374  73.2860  0.00  0.00     0.000 OA
ATOM     73   O  SGN C   4     133.970  24.375  75.6940  0.00  0.00     0.000 O
ATOM     74   S  SGN C   4     133.701  25.249  74.3820  0.00  0.00     0.000 S
ATOM     75   O  SGN C   4     132.289  25.572  74.4360  0.00  0.00     0.000 OA
ENDBRANCH 60 70
BRANCH 56 76
ATOM     76  O4  IDS C   5     135.110  22.109  79.4330  0.00  0.00     0.000 O
BRANCH 76 80
ATOM     77  C1  IDS C   5     138.153  24.299  81.0450  0.00  0.00     0.000 C
ATOM     78  C2  IDS C   5     137.411  24.991  79.9020  0.00  0.00     0.000 C
ATOM     79  C3  IDS C   5     136.070  24.319  79.6790  0.00  0.00     0.000 C
ATOM     80  C4  IDS C   5     136.290  22.890  79.1910  0.00  0.00     0.000 C
ATOM     81  C5  IDS C   5     137.495  22.282  79.9210  0.00  0.00     0.000 C
ATOM     82  O5  IDS C   5     137.714  22.947  81.1690  0.00  0.00     0.000 O
BRANCH 78 83
ATOM     83   O  IDS C   5     137.172  26.418  80.2200  0.00  0.00     0.000 O
ATOM     84   S  IDS C   5     138.004  27.549  79.4610  0.00  0.00     0.000 S
ATOM     85   O  IDS C   5     139.382  27.144  79.5370  0.00  0.00     0.000 OA
ATOM     86   O  IDS C   5     137.488  27.558  78.1130  0.00  0.00     0.000 OA
ATOM     87   O  IDS C   5     137.731  28.775  80.1690  0.00  0.00     0.000 OA
ENDBRANCH 78 83
BRANCH 81 88
ATOM     88   C  IDS C   5     137.356  20.799  80.2110  0.00  0.00     0.000 C
ATOM     89   O  IDS C   5     137.047  20.431  81.3130  0.00  0.00     0.000 OA
ATOM     90   O  IDS C   5     137.556  19.995  79.3300  0.00  0.00     0.000 OA
ENDBRANCH 81 88
ENDBRANCH 76 80
ENDBRANCH 56 76
ENDBRANCH 55 59
ENDBRANCH 39 55
ENDBRANCH 38 42
ENDBRANCH 18 38
ENDBRANCH 17 21
ENDBRANCH 1 17
TORSDOF 18
ENDMDL
MODEL 29
REMARK VINA RESULT:      -8.1     29.617     35.957
ROOT
ATOM      1  C1  IDS C   1     139.851  34.476  44.8450  0.00  0.00     0.000 C
ATOM      2  C2  IDS C   1     141.228  34.228  44.2230  0.00  0.00     0.000 C
ATOM      3  C3  IDS C   1     142.321  34.322  45.2770  0.00  0.00     0.000 C
ATOM      4  C4  IDS C   1     142.310  35.691  45.9430  0.00  0.00     0.000 C
ATOM      5  C5  IDS C   1     140.874  36.157  46.1560  0.00  0.00     0.000 C
ATOM      6  O5  IDS C   1     139.987  35.038  46.1440  0.00  0.00     0.000 O
ATOM      7   O  IDS C   1     143.600  34.081  44.6730  0.00  0.00     0.000 O
ATOM      9  HD  IDS C   1     143.503  33.476  44.0610  0.00  0.00     0.000 HD
ENDROOT
BRANCH 2 9
ATOM      9   O  IDS C   1     141.300  32.876  43.6240  0.00  0.00     0.000 O
ATOM     10   S  IDS C   1     141.793  32.712  42.1160  0.00  0.00     0.000 S
ATOM     11   O  IDS C   1     141.764  31.293  41.8420  0.00  0.00     0.000 OA
ATOM     12   O  IDS C   1     140.847  33.462  41.3140  0.00  0.00     0.000 OA
ATOM     13   O  IDS C   1     143.129  33.265  42.0750  0.00  0.00     0.000 OA
ENDBRANCH 2 9
BRANCH 5 14
ATOM     14   C  IDS C   1     140.700  36.894  47.4740  0.00  0.00     0.000 C
ATOM     15   O  IDS C   1     141.486  37.757  47.7790  0.00  0.00     0.000 OA
ATOM     16   O  IDS C   1     139.772  36.606  48.2110  0.00  0.00     0.000 OA
ENDBRANCH 5 14
BRANCH 1 17
ATOM     17  O4  SGN C   2     138.774  33.745  44.5440  0.00  0.00     0.000 O
BRANCH 17 21
ATOM     18  C1  SGN C   2     136.236  30.420  44.7080  0.00  0.00     0.000 C
ATOM     19  C2  SGN C   2     137.184  30.619  45.8960  0.00  0.00     0.000 C
ATOM     20  C3  SGN C   2     137.720  32.056  45.8990  0.00  0.00     0.000 C
ATOM     21  C4  SGN C   2     138.342  32.387  44.5470  0.00  0.00     0.000 C
ATOM     22  C5  SGN C   2     137.305  32.155  43.4520  0.00  0.00     0.000 C
ATOM     23  O5  SGN C   2     136.851  30.783  43.4900  0.00  0.00     0.000 O
ATOM     24   O  SGN C   2     138.663  32.217  46.9450  0.00  0.00     0.000 O
ATOM     26  HD  SGN C   2     137.998  32.436  46.4350  0.00  0.00     0.000 HD
BRANCH 19 28
ATOM     26   N  SGN C   2     136.517  29.827  46.9390  0.00  0.00     0.000 N
ATOM     28  HD  SGN C   2     136.285  29.435  46.2030  0.00  0.00     0.000 HD
ATOM     28   O  SGN C   2     136.527  28.908  49.2580  0.00  0.00     0.000 OA
ATOM     29   S  SGN C   2     137.326  28.835  47.9130  0.00  0.00     0.000 S
ATOM     30   O  SGN C   2     137.205  27.530  47.3860  0.00  0.00     0.000 OA
ATOM     31   O  SGN C   2     138.617  29.392  48.1210  0.00  0.00     0.000 OA
ENDBRANCH 19 28
BRANCH 22 32
ATOM     32   C  SGN C   2     137.839  32.399  42.0610  0.00  0.00     0.000 C
ATOM     33   S  SGN C   2     137.966  31.183  39.7930  0.00  0.00     0.000 S
ATOM     34   O  SGN C   2     139.040  30.328  40.2340  0.00  0.00     0.000 OA
ATOM     35   O  SGN C   2     136.996  30.511  38.9530  0.00  0.00     0.000 OA
ATOM     36   O  SGN C   2     138.404  32.453  39.2630  0.00  0.00     0.000 OA
ATOM     37   O  SGN C   2     137.171  31.538  41.1310  0.00  0.00     0.000 O
ENDBRANCH 22 32
BRANCH 18 38
ATOM     38  O4  IDS C   3     134.963  30.789  44.5500  0.00  0.00     0.000 O
BRANCH 38 42
ATOM     39  C1  IDS C   3     131.493  30.980  44.7830  0.00  0.00     0.000 C
ATOM     40  C2  IDS C   3     132.204  29.625  44.6380  0.00  0.00     0.000 C
ATOM     41  C3  IDS C   3     133.161  29.628  43.4460  0.00  0.00     0.000 C
ATOM     42  C4  IDS C   3     134.046  30.867  43.4530  0.00  0.00     0.000 C
ATOM     43  C5  IDS C   3     133.178  32.124  43.5840  0.00  0.00     0.000 C
ATOM     44  O5  IDS C   3     132.425  32.048  44.7940  0.00  0.00     0.000 O
ATOM     45   O  IDS C   3     132.406  29.581  42.2330  0.00  0.00     0.000 O
ATOM     47  HD  IDS C   3     131.772  30.059  41.8880  0.00  0.00     0.000 HD
BRANCH 40 47
ATOM     47   O  IDS C   3     133.003  29.323  45.8490  0.00  0.00     0.000 O
ATOM     48   S  IDS C   3     132.749  27.964  46.6520  0.00  0.00     0.000 S
ATOM     49   O  IDS C   3     131.537  28.174  47.4150  0.00  0.00     0.000 OA
ATOM     50   O  IDS C   3     133.912  27.797  47.4960  0.00  0.00     0.000 OA
ATOM     51   O  IDS C   3     132.613  26.927  45.6640  0.00  0.00     0.000 OA
ENDBRANCH 40 47
BRANCH 43 52
ATOM     52   C  IDS C   3     133.989  33.400  43.5710  0.00  0.00     0.000 C
ATOM     53   O  IDS C   3     134.226  33.976  44.6080  0.00  0.00     0.000 OA
ATOM     54   O  IDS C   3     134.397  33.837  42.5250  0.00  0.00     0.000 OA
ENDBRANCH 43 52
BRANCH 39 55
ATOM     55  O4  SGN C   4     130.337  31.275  44.1900  0.00  0.00     0.000 O
BRANCH 55 59
ATOM     56  C1  SGN C   4     126.991  30.548  46.5940  0.00  0.00     0.000 C
ATOM     57  C2  SGN C   4     127.049  29.799  45.2520  0.00  0.00     0.000 C
ATOM     58  C3  SGN C   4     128.460  29.836  44.6710  0.00  0.00     0.000 C
ATOM     59  C4  SGN C   4     128.987  31.266  44.6330  0.00  0.00     0.000 C
ATOM     60  C5  SGN C   4     128.896  31.860  46.0370  0.00  0.00     0.000 C
ATOM     61  O5  SGN C   4     127.513  31.858  46.4410  0.00  0.00     0.000 O
ATOM     62   O  SGN C   4     128.453  29.270  43.3680  0.00  0.00     0.000 O
ATOM     64  HD  SGN C   4     127.801  28.875  43.7790  0.00  0.00     0.000 HD
BRANCH 57 66
ATOM     64   N  SGN C   4     125.598  29.552  45.2360  0.00  0.00     0.000 N
ATOM     66  HD  SGN C   4     125.035  29.167  44.7020  0.00  0.00     0.000 HD
ATOM     66   S  SGN C   4     125.028  28.074  45.0440  0.00  0.00     0.000 S
ATOM     67   O  SGN C   4     123.614  28.165  45.0100  0.00  0.00     0.000 OA
ATOM     68   O  SGN C   4     125.719  27.501  43.9410  0.00  0.00     0.000 OA
ATOM     69   O  SGN C   4     125.469  27.335  46.3490  0.00  0.00     0.000 OA
ENDBRANCH 57 66
BRANCH 60 70
ATOM     70   C  SGN C   4     129.403  33.283  46.1320  0.00  0.00     0.000 C
ATOM     71   O  SGN C   4     130.971  34.925  49.1240  0.00  0.00     0.000 OA
ATOM     72   O  SGN C   4     132.091  34.038  47.1730  0.00  0.00     0.000 OA
ATOM     73   O  SGN C   4     129.743  33.609  47.4940  0.00  0.00     0.000 O
ATOM     74   S  SGN C   4     130.910  34.681  47.7010  0.00  0.00     0.000 S
ATOM     75   O  SGN C   4     130.491  35.838  46.9350  0.00  0.00     0.000 OA
ENDBRANCH 60 70
BRANCH 56 76
ATOM     76  O4  IDS C   5     127.115  30.210  47.8910  0.00  0.00     0.000 O
BRANCH 76 80
ATOM     77  C1  IDS C   5     124.328  28.662  50.4400  0.00  0.00     0.000 C
ATOM     78  C2  IDS C   5     124.255  30.179  50.2640  0.00  0.00     0.000 C
ATOM     79  C3  IDS C   5     125.001  30.588  49.0100  0.00  0.00     0.000 C
ATOM     80  C4  IDS C   5     126.487  30.290  49.1790  0.00  0.00     0.000 C
ATOM     81  C5  IDS C   5     126.657  28.968  49.9410  0.00  0.00     0.000 C
ATOM     82  O5  IDS C   5     125.493  28.149  49.7930  0.00  0.00     0.000 O
BRANCH 78 83
ATOM     83   O  IDS C   5     122.847  30.624  50.1390  0.00  0.00     0.000 O
ATOM     84   S  IDS C   5     122.303  31.803  51.0660  0.00  0.00     0.000 S
ATOM     85   O  IDS C   5     122.705  31.470  52.4060  0.00  0.00     0.000 OA
ATOM     86   O  IDS C   5     122.934  33.001  50.5640  0.00  0.00     0.000 OA
ATOM     87   O  IDS C   5     120.871  31.812  50.8860  0.00  0.00     0.000 OA
ENDBRANCH 78 83
BRANCH 81 88
ATOM     88   C  IDS C   5     127.853  28.147  49.4930  0.00  0.00     0.000 C
ATOM     89   O  IDS C   5     128.954  28.434  49.8790  0.00  0.00     0.000 OA
ATOM     90   O  IDS C   5     127.689  27.207  48.7500  0.00  0.00     0.000 OA
ENDBRANCH 81 88
ENDBRANCH 76 80
ENDBRANCH 56 76
ENDBRANCH 55 59
ENDBRANCH 39 55
ENDBRANCH 38 42
ENDBRANCH 18 38
ENDBRANCH 17 21
ENDBRANCH 1 17
TORSDOF 18
ENDMDL
MODEL 30
REMARK VINA RESULT:      -8.0     29.710     35.394
ROOT
ATOM      1  C1  IDS C   1     139.916  34.508  44.8150  0.00  0.00     0.000 C
ATOM      2  C2  IDS C   1     141.305  34.247  44.2250  0.00  0.00     0.000 C
ATOM      3  C3  IDS C   1     142.375  34.339  45.3020  0.00  0.00     0.000 C
ATOM      4  C4  IDS C   1     142.359  35.712  45.9600  0.00  0.00     0.000 C
ATOM      5  C5  IDS C   1     140.921  36.189  46.1390  0.00  0.00     0.000 C
ATOM      6  O5  IDS C   1     140.028  35.076  46.1130  0.00  0.00     0.000 O
ATOM      7   O  IDS C   1     143.665  34.086  44.7270  0.00  0.00     0.000 O
ATOM      9  HD  IDS C   1     143.577  33.478  44.1180  0.00  0.00     0.000 HD
ENDROOT
BRANCH 2 9
ATOM      9   O  IDS C   1     141.380  32.891  43.6360  0.00  0.00     0.000 O
ATOM     10   S  IDS C   1     141.881  32.717  42.1310  0.00  0.00     0.000 S
ATOM     11   O  IDS C   1     141.854  31.296  41.8670  0.00  0.00     0.000 OA
ATOM     12   O  IDS C   1     140.939  33.460  41.3190  0.00  0.00     0.000 OA
ATOM     13   O  IDS C   1     143.217  33.270  42.0940  0.00  0.00     0.000 OA
ENDBRANCH 2 9
BRANCH 5 14
ATOM     14   C  IDS C   1     140.724  36.935  47.4480  0.00  0.00     0.000 C
ATOM     15   O  IDS C   1     141.510  37.793  47.7670  0.00  0.00     0.000 OA
ATOM     16   O  IDS C   1     139.776  36.660  48.1640  0.00  0.00     0.000 OA
ENDBRANCH 5 14
BRANCH 1 17
ATOM     17  O4  SGN C   2     138.841  33.781  44.4950  0.00  0.00     0.000 O
BRANCH 17 21
ATOM     18  C1  SGN C   2     136.217  30.530  44.7510  0.00  0.00     0.000 C
ATOM     19  C2  SGN C   2     137.131  30.772  45.9590  0.00  0.00     0.000 C
ATOM     20  C3  SGN C   2     137.701  32.194  45.9020  0.00  0.00     0.000 C
ATOM     21  C4  SGN C   2     138.375  32.436  44.5560  0.00  0.00     0.000 C
ATOM     22  C5  SGN C   2     137.369  32.169  43.4410  0.00  0.00     0.000 C
ATOM     23  O5  SGN C   2     136.881  30.811  43.5370  0.00  0.00     0.000 O
ATOM     24   O  SGN C   2     138.614  32.390  46.9690  0.00  0.00     0.000 O
ATOM     26  HD  SGN C   2     137.971  32.597  46.4260  0.00  0.00     0.000 HD
BRANCH 19 28
ATOM     26   N  SGN C   2     136.403  30.070  47.0250  0.00  0.00     0.000 N
ATOM     28  HD  SGN C   2     136.159  29.658  46.3040  0.00  0.00     0.000 HD
ATOM     28   O  SGN C   2     136.323  29.262  49.3840  0.00  0.00     0.000 OA
ATOM     29   S  SGN C   2     137.136  29.080  48.0580  0.00  0.00     0.000 S
ATOM     30   O  SGN C   2     136.946  27.761  47.5900  0.00  0.00     0.000 OA
ATOM     31   O  SGN C   2     138.455  29.570  48.2640  0.00  0.00     0.000 OA
ENDBRANCH 19 28
BRANCH 22 32
ATOM     32   C  SGN C   2     137.954  32.325  42.0580  0.00  0.00     0.000 C
ATOM     33   S  SGN C   2     138.135  30.979  39.8670  0.00  0.00     0.000 S
ATOM     34   O  SGN C   2     139.177  30.133  40.3930  0.00  0.00     0.000 OA
ATOM     35   O  SGN C   2     137.182  30.276  39.0340  0.00  0.00     0.000 OA
ATOM     36   O  SGN C   2     138.614  32.209  39.2820  0.00  0.00     0.000 OA
ATOM     37   O  SGN C   2     137.303  31.423  41.1550  0.00  0.00     0.000 O
ENDBRANCH 22 32
BRANCH 18 38
ATOM     38  O4  IDS C   3     134.959  30.919  44.5310  0.00  0.00     0.000 O
BRANCH 38 42
ATOM     39  C1  IDS C   3     131.496  31.283  44.5890  0.00  0.00     0.000 C
ATOM     40  C2  IDS C   3     132.145  29.892  44.5050  0.00  0.00     0.000 C
ATOM     41  C3  IDS C   3     133.157  29.823  43.3620  0.00  0.00     0.000 C
ATOM     42  C4  IDS C   3     134.101  31.018  43.3890  0.00  0.00     0.000 C
ATOM     43  C5  IDS C   3     133.291  32.318  43.4530  0.00  0.00     0.000 C
ATOM     44  O5  IDS C   3     132.479  32.305  44.6250  0.00  0.00     0.000 O
ATOM     45   O  IDS C   3     132.461  29.787  42.1150  0.00  0.00     0.000 O
ATOM     47  HD  IDS C   3     131.868  30.288  41.7300  0.00  0.00     0.000 HD
BRANCH 40 47
ATOM     47   O  IDS C   3     132.869  29.579  45.7600  0.00  0.00     0.000 O
ATOM     48   S  IDS C   3     132.629  28.175  46.4870  0.00  0.00     0.000 S
ATOM     49   O  IDS C   3     131.356  28.291  47.1650  0.00  0.00     0.000 OA
ATOM     50   O  IDS C   3     133.735  28.030  47.4080  0.00  0.00     0.000 OA
ATOM     51   O  IDS C   3     132.621  27.176  45.4510  0.00  0.00     0.000 OA
ENDBRANCH 40 47
BRANCH 43 52
ATOM     52   C  IDS C   3     134.165  33.553  43.4550  0.00  0.00     0.000 C
ATOM     53   O  IDS C   3     134.482  34.066  44.5030  0.00  0.00     0.000 OA
ATOM     54   O  IDS C   3     134.541  34.020  42.4100  0.00  0.00     0.000 OA
ENDBRANCH 43 52
BRANCH 39 55
ATOM     55  O4  SGN C   4     130.386  31.621  43.9340  0.00  0.00     0.000 O
BRANCH 55 59
ATOM     56  C1  SGN C   4     126.881  30.407  45.8690  0.00  0.00     0.000 C
ATOM     57  C2  SGN C   4     127.131  29.821  44.4690  0.00  0.00     0.000 C
ATOM     58  C3  SGN C   4     128.587  30.017  44.0520  0.00  0.00     0.000 C
ATOM     59  C4  SGN C   4     129.003  31.473  44.2240  0.00  0.00     0.000 C
ATOM     60  C5  SGN C   4     128.725  31.896  45.6650  0.00  0.00     0.000 C
ATOM     61  O5  SGN C   4     127.312  31.757  45.9140  0.00  0.00     0.000 O
ATOM     62   O  SGN C   4     128.756  29.603  42.7030  0.00  0.00     0.000 O
ATOM     64  HD  SGN C   4     128.098  29.122  42.9970  0.00  0.00     0.000 HD
BRANCH 57 66
ATOM     64   N  SGN C   4     125.714  29.427  44.4320  0.00  0.00     0.000 N
ATOM     66  HD  SGN C   4     125.160  29.140  43.8310  0.00  0.00     0.000 HD
ATOM     66   S  SGN C   4     125.282  28.001  43.8600  0.00  0.00     0.000 S
ATOM     67   O  SGN C   4     123.866  27.940  43.8970  0.00  0.00     0.000 OA
ATOM     68   O  SGN C   4     125.957  27.828  42.6210  0.00  0.00     0.000 OA
ATOM     69   O  SGN C   4     125.872  26.992  44.8970  0.00  0.00     0.000 OA
ENDBRANCH 57 66
BRANCH 60 70
ATOM     70   C  SGN C   4     129.108  33.329  45.9660  0.00  0.00     0.000 C
ATOM     71   O  SGN C   4     130.542  34.656  49.1730  0.00  0.00     0.000 OA
ATOM     72   O  SGN C   4     131.726  34.156  47.1250  0.00  0.00     0.000 OA
ATOM     73   O  SGN C   4     129.424  33.485  47.3630  0.00  0.00     0.000 O
ATOM     74   S  SGN C   4     130.496  34.614  47.7300  0.00  0.00     0.000 S
ATOM     75   O  SGN C   4     129.975  35.828  47.1330  0.00  0.00     0.000 OA
ENDBRANCH 60 70
BRANCH 56 76
ATOM     76  O4  IDS C   5     126.899  29.931  47.1280  0.00  0.00     0.000 O
BRANCH 76 80
ATOM     77  C1  IDS C   5     128.409  27.664  50.1670  0.00  0.00     0.000 C
ATOM     78  C2  IDS C   5     128.102  26.886  48.8870  0.00  0.00     0.000 C
ATOM     79  C3  IDS C   5     127.978  27.845  47.7200  0.00  0.00     0.000 C
ATOM     80  C4  IDS C   5     126.764  28.746  47.9260  0.00  0.00     0.000 C
ATOM     81  C5  IDS C   5     126.648  29.112  49.4130  0.00  0.00     0.000 C
ATOM     82  O5  IDS C   5     127.921  29.000  50.0580  0.00  0.00     0.000 O
BRANCH 78 83
ATOM     83   O  IDS C   5     129.186  25.921  48.5870  0.00  0.00     0.000 O
ATOM     84   S  IDS C   5     128.849  24.369  48.4450  0.00  0.00     0.000 S
ATOM     85   O  IDS C   5     128.051  24.030  49.5920  0.00  0.00     0.000 OA
ATOM     86   O  IDS C   5     128.129  24.251  47.1980  0.00  0.00     0.000 OA
ATOM     87   O  IDS C   5     130.123  23.693  48.4170  0.00  0.00     0.000 OA
ENDBRANCH 78 83
BRANCH 81 88
ATOM     88   C  IDS C   5     126.130  30.516  49.6640  0.00  0.00     0.000 C
ATOM     89   O  IDS C   5     124.972  30.770  49.4670  0.00  0.00     0.000 OA
ATOM     90   O  IDS C   5     126.886  31.371  50.0620  0.00  0.00     0.000 OA
ENDBRANCH 81 88
ENDBRANCH 76 80
ENDBRANCH 56 76
ENDBRANCH 55 59
ENDBRANCH 39 55
ENDBRANCH 38 42
ENDBRANCH 18 38
ENDBRANCH 17 21
ENDBRANCH 1 17
TORSDOF 18
ENDMDL
MODEL 31
REMARK VINA RESULT:      -8.0     26.272     32.653
ROOT
ATOM      1  C1  IDS C   1     147.867  35.412  72.4200  0.00  0.00     0.000 C
ATOM      2  C2  IDS C   1     149.156  35.095  71.6560  0.00  0.00     0.000 C
ATOM      3  C3  IDS C   1     149.780  36.365  71.0970  0.00  0.00     0.000 C
ATOM      4  C4  IDS C   1     148.807  37.076  70.1670  0.00  0.00     0.000 C
ATOM      5  C5  IDS C   1     147.391  36.994  70.7270  0.00  0.00     0.000 C
ATOM      6  O5  IDS C   1     147.433  36.735  72.1310  0.00  0.00     0.000 O
ATOM      7   O  IDS C   1     150.986  36.043  70.3920  0.00  0.00     0.000 O
ATOM      9  HD  IDS C   1     151.383  35.397  70.8110  0.00  0.00     0.000 HD
ENDROOT
BRANCH 2 9
ATOM      9   O  IDS C   1     150.154  34.462  72.5480  0.00  0.00     0.000 O
ATOM     10   S  IDS C   1     150.824  33.080  72.1190  0.00  0.00     0.000 S
ATOM     11   O  IDS C   1     151.748  32.742  73.1780  0.00  0.00     0.000 OA
ATOM     12   O  IDS C   1     149.731  32.137  72.0010  0.00  0.00     0.000 OA
ATOM     13   O  IDS C   1     151.486  33.337  70.8580  0.00  0.00     0.000 OA
ENDBRANCH 2 9
BRANCH 5 14
ATOM     14   C  IDS C   1     146.608  38.275  70.4970  0.00  0.00     0.000 C
ATOM     15   O  IDS C   1     147.127  39.339  70.7330  0.00  0.00     0.000 OA
ATOM     16   O  IDS C   1     145.463  38.218  70.0800  0.00  0.00     0.000 OA
ENDBRANCH 5 14
BRANCH 1 17
ATOM     17  O4  SGN C   2     147.558  34.850  73.5920  0.00  0.00     0.000 O
BRANCH 17 21
ATOM     18  C1  SGN C   2     147.224  34.657  77.7600  0.00  0.00     0.000 C
ATOM     19  C2  SGN C   2     147.362  36.056  77.1460  0.00  0.00     0.000 C
ATOM     20  C3  SGN C   2     147.048  35.998  75.6460  0.00  0.00     0.000 C
ATOM     21  C4  SGN C   2     147.908  34.937  74.9700  0.00  0.00     0.000 C
ATOM     22  C5  SGN C   2     147.681  33.596  75.6630  0.00  0.00     0.000 C
ATOM     23  O5  SGN C   2     148.008  33.710  77.0670  0.00  0.00     0.000 O
ATOM     24   O  SGN C   2     147.260  37.272  75.0600  0.00  0.00     0.000 O
ATOM     26  HD  SGN C   2     146.851  36.522  75.2020  0.00  0.00     0.000 HD
BRANCH 19 28
ATOM     26   N  SGN C   2     146.858  36.904  78.2350  0.00  0.00     0.000 N
ATOM     28  HD  SGN C   2     147.226  36.238  78.6470  0.00  0.00     0.000 HD
ATOM     28   O  SGN C   2     146.349  39.186  79.1060  0.00  0.00     0.000 OA
ATOM     29   S  SGN C   2     147.549  38.302  78.6260  0.00  0.00     0.000 S
ATOM     30   O  SGN C   2     148.402  38.062  79.7260  0.00  0.00     0.000 OA
ATOM     31   O  SGN C   2     148.081  38.868  77.4350  0.00  0.00     0.000 OA
ENDBRANCH 19 28
BRANCH 22 32
ATOM     32   C  SGN C   2     148.533  32.482  75.1060  0.00  0.00     0.000 C
ATOM     33   S  SGN C   2     149.640  30.299  75.9130  0.00  0.00     0.000 S
ATOM     34   O  SGN C   2     150.707  31.005  76.5770  0.00  0.00     0.000 OA
ATOM     35   O  SGN C   2     149.170  29.139  76.6400  0.00  0.00     0.000 OA
ATOM     36   O  SGN C   2     149.888  30.039  74.5140  0.00  0.00     0.000 OA
ATOM     37   O  SGN C   2     148.415  31.323  75.9380  0.00  0.00     0.000 O
ENDBRANCH 22 32
BRANCH 18 38
ATOM     38  O4  IDS C   3     146.132  33.977  78.1160  0.00  0.00     0.000 O
BRANCH 38 42
ATOM     39  C1  IDS C   3     142.855  33.140  78.9450  0.00  0.00     0.000 C
ATOM     40  C2  IDS C   3     143.507  34.421  79.4890  0.00  0.00     0.000 C
ATOM     41  C3  IDS C   3     144.850  34.119  80.1530  0.00  0.00     0.000 C
ATOM     42  C4  IDS C   3     145.716  33.234  79.2670  0.00  0.00     0.000 C
ATOM     43  C5  IDS C   3     144.920  31.997  78.8320  0.00  0.00     0.000 C
ATOM     44  O5  IDS C   3     143.756  32.417  78.1230  0.00  0.00     0.000 O
ATOM     45   O  IDS C   3     144.623  33.472  81.4060  0.00  0.00     0.000 O
ATOM     47  HD  IDS C   3     144.193  32.764  81.6610  0.00  0.00     0.000 HD
BRANCH 40 47
ATOM     47   O  IDS C   3     143.760  35.383  78.3890  0.00  0.00     0.000 O
ATOM     48   S  IDS C   3     143.155  36.861  78.4700  0.00  0.00     0.000 S
ATOM     49   O  IDS C   3     141.753  36.735  78.1340  0.00  0.00     0.000 OA
ATOM     50   O  IDS C   3     143.892  37.628  77.4890  0.00  0.00     0.000 OA
ATOM     51   O  IDS C   3     143.368  37.314  79.8190  0.00  0.00     0.000 OA
ENDBRANCH 40 47
BRANCH 43 52
ATOM     52   C  IDS C   3     145.729  31.054  77.9690  0.00  0.00     0.000 C
ATOM     53   O  IDS C   3     146.792  30.635  78.3660  0.00  0.00     0.000 OA
ATOM     54   O  IDS C   3     145.309  30.725  76.8890  0.00  0.00     0.000 OA
ENDBRANCH 43 52
BRANCH 39 55
ATOM     55  O4  SGN C   4     142.033  32.370  79.6580  0.00  0.00     0.000 O
BRANCH 55 59
ATOM     56  C1  SGN C   4     138.019  32.676  78.5170  0.00  0.00     0.000 C
ATOM     57  C2  SGN C   4     138.445  33.480  79.7570  0.00  0.00     0.000 C
ATOM     58  C3  SGN C   4     139.964  33.601  79.8280  0.00  0.00     0.000 C
ATOM     59  C4  SGN C   4     140.619  32.231  79.6950  0.00  0.00     0.000 C
ATOM     60  C5  SGN C   4     140.126  31.575  78.4070  0.00  0.00     0.000 C
ATOM     61  O5  SGN C   4     138.695  31.429  78.4930  0.00  0.00     0.000 O
ATOM     62   O  SGN C   4     140.335  34.217  81.0540  0.00  0.00     0.000 O
ATOM     64  HD  SGN C   4     139.546  34.531  80.8840  0.00  0.00     0.000 HD
BRANCH 57 66
ATOM     64   N  SGN C   4     137.057  33.591  80.2340  0.00  0.00     0.000 N
ATOM     66  HD  SGN C   4     136.658  33.928  80.9240  0.00  0.00     0.000 HD
ATOM     66   S  SGN C   4     136.442  35.011  80.6220  0.00  0.00     0.000 S
ATOM     67   O  SGN C   4     135.126  34.789  81.0990  0.00  0.00     0.000 OA
ATOM     68   O  SGN C   4     137.390  35.659  81.4630  0.00  0.00     0.000 OA
ATOM     69   O  SGN C   4     136.379  35.773  79.2600  0.00  0.00     0.000 OA
ENDBRANCH 57 66
BRANCH 60 70
ATOM     70   C  SGN C   4     140.717  30.205  78.1550  0.00  0.00     0.000 C
ATOM     71   O  SGN C   4     140.134  28.013  75.1610  0.00  0.00     0.000 OA
ATOM     72   O  SGN C   4     142.062  29.400  75.6210  0.00  0.00     0.000 OA
ATOM     73   O  SGN C   4     140.100  29.592  77.0060  0.00  0.00     0.000 O
ATOM     74   S  SGN C   4     141.006  28.577  76.1660  0.00  0.00     0.000 S
ATOM     75   O  SGN C   4     141.473  27.607  77.1370  0.00  0.00     0.000 OA
ENDBRANCH 60 70
BRANCH 56 76
ATOM     76  O4  IDS C   5     137.667  32.972  77.2520  0.00  0.00     0.000 O
BRANCH 76 80
ATOM     77  C1  IDS C   5     139.760  33.910  73.8760  0.00  0.00     0.000 C
ATOM     78  C2  IDS C   5     139.659  35.044  74.8960  0.00  0.00     0.000 C
ATOM     79  C3  IDS C   5     139.271  34.485  76.2500  0.00  0.00     0.000 C
ATOM     80  C4  IDS C   5     137.862  33.904  76.1780  0.00  0.00     0.000 C
ATOM     81  C5  IDS C   5     137.668  33.208  74.8230  0.00  0.00     0.000 C
ATOM     82  O5  IDS C   5     138.930  32.819  74.2720  0.00  0.00     0.000 O
BRANCH 78 83
ATOM     83   O  IDS C   5     140.959  35.742  75.0330  0.00  0.00     0.000 O
ATOM     84   S  IDS C   5     141.130  37.220  74.4570  0.00  0.00     0.000 S
ATOM     85   O  IDS C   5     140.611  37.184  73.1160  0.00  0.00     0.000 OA
ATOM     86   O  IDS C   5     140.360  38.062  75.3410  0.00  0.00     0.000 OA
ATOM     87   O  IDS C   5     142.544  37.500  74.5140  0.00  0.00     0.000 OA
ENDBRANCH 78 83
BRANCH 81 88
ATOM     88   C  IDS C   5     136.794  31.969  74.8860  0.00  0.00     0.000 C
ATOM     89   O  IDS C   5     137.301  30.881  74.9420  0.00  0.00     0.000 OA
ATOM     90   O  IDS C   5     135.590  32.084  74.8810  0.00  0.00     0.000 OA
ENDBRANCH 81 88
ENDBRANCH 76 80
ENDBRANCH 56 76
ENDBRANCH 55 59
ENDBRANCH 39 55
ENDBRANCH 38 42
ENDBRANCH 18 38
ENDBRANCH 17 21
ENDBRANCH 1 17
TORSDOF 18
ENDMDL
MODEL 32
REMARK VINA RESULT:      -8.0     25.689     33.558
ROOT
ATOM      1  C1  IDS C   1     137.889  43.637  66.1000  0.00  0.00     0.000 C
ATOM      2  C2  IDS C   1     137.164  44.982  65.9930  0.00  0.00     0.000 C
ATOM      3  C3  IDS C   1     135.750  44.793  65.4640  0.00  0.00     0.000 C
ATOM      4  C4  IDS C   1     135.773  44.125  64.0960  0.00  0.00     0.000 C
ATOM      5  C5  IDS C   1     136.852  43.047  64.0580  0.00  0.00     0.000 C
ATOM      6  O5  IDS C   1     137.180  42.634  65.3850  0.00  0.00     0.000 O
ATOM      7   O  IDS C   1     135.091  46.064  65.3770  0.00  0.00     0.000 O
ATOM      9  HD  IDS C   1     135.346  46.549  66.0480  0.00  0.00     0.000 HD
ENDROOT
BRANCH 2 9
ATOM      9   O  IDS C   1     137.061  45.632  67.3190  0.00  0.00     0.000 O
ATOM     10   S  IDS C   1     137.655  47.098  67.5210  0.00  0.00     0.000 S
ATOM     11   O  IDS C   1     137.387  47.448  68.8990  0.00  0.00     0.000 OA
ATOM     12   O  IDS C   1     139.070  46.989  67.2320  0.00  0.00     0.000 OA
ATOM     13   O  IDS C   1     136.951  47.942  66.5810  0.00  0.00     0.000 OA
ENDBRANCH 2 9
BRANCH 5 14
ATOM     14   C  IDS C   1     136.415  41.826  63.2670  0.00  0.00     0.000 C
ATOM     15   O  IDS C   1     136.738  40.726  63.6460  0.00  0.00     0.000 OA
ATOM     16   O  IDS C   1     135.745  41.966  62.2580  0.00  0.00     0.000 OA
ENDBRANCH 5 14
BRANCH 1 17
ATOM     17  O4  SGN C   2     138.647  43.300  67.1470  0.00  0.00     0.000 O
BRANCH 17 21
ATOM     18  C1  SGN C   2     139.522  41.225  70.6760  0.00  0.00     0.000 C
ATOM     19  C2  SGN C   2     138.340  40.705  69.8490  0.00  0.00     0.000 C
ATOM     20  C3  SGN C   2     138.412  41.273  68.4260  0.00  0.00     0.000 C
ATOM     21  C4  SGN C   2     138.515  42.794  68.4730  0.00  0.00     0.000 C
ATOM     22  C5  SGN C   2     139.725  43.185  69.3160  0.00  0.00     0.000 C
ATOM     23  O5  SGN C   2     139.591  42.636  70.6470  0.00  0.00     0.000 O
ATOM     24   O  SGN C   2     137.274  40.864  67.6850  0.00  0.00     0.000 O
ATOM     26  HD  SGN C   2     138.113  41.032  67.8240  0.00  0.00     0.000 HD
BRANCH 19 28
ATOM     26   N  SGN C   2     138.190  39.343  70.3780  0.00  0.00     0.000 N
ATOM     28  HD  SGN C   2     138.449  39.803  71.0640  0.00  0.00     0.000 HD
ATOM     28   O  SGN C   2     137.000  37.151  70.3310  0.00  0.00     0.000 OA
ATOM     29   S  SGN C   2     136.751  38.669  70.6220  0.00  0.00     0.000 S
ATOM     30   O  SGN C   2     136.436  38.821  71.9900  0.00  0.00     0.000 OA
ATOM     31   O  SGN C   2     135.863  39.180  69.6360  0.00  0.00     0.000 OA
ENDBRANCH 19 28
BRANCH 22 32
ATOM     32   C  SGN C   2     139.885  44.677  69.4750  0.00  0.00     0.000 C
ATOM     33   S  SGN C   2     140.115  46.411  71.3680  0.00  0.00     0.000 S
ATOM     34   O  SGN C   2     138.708  46.363  71.6760  0.00  0.00     0.000 OA
ATOM     35   O  SGN C   2     140.962  46.521  72.5370  0.00  0.00     0.000 OA
ATOM     36   O  SGN C   2     140.458  47.344  70.3200  0.00  0.00     0.000 OA
ATOM     37   O  SGN C   2     140.435  44.968  70.7660  0.00  0.00     0.000 O
ENDBRANCH 22 32
BRANCH 18 38
ATOM     38  O4  IDS C   3     140.799  40.838  70.6920  0.00  0.00     0.000 O
BRANCH 38 42
ATOM     39  C1  IDS C   3     144.021  40.169  71.8320  0.00  0.00     0.000 C
ATOM     40  C2  IDS C   3     143.774  40.646  70.3920  0.00  0.00     0.000 C
ATOM     41  C3  IDS C   3     142.724  39.781  69.6960  0.00  0.00     0.000 C
ATOM     42  C4  IDS C   3     141.495  39.592  70.5750  0.00  0.00     0.000 C
ATOM     43  C5  IDS C   3     141.919  39.097  71.9620  0.00  0.00     0.000 C
ATOM     44  O5  IDS C   3     142.803  40.051  72.5480  0.00  0.00     0.000 O
ATOM     45   O  IDS C   3     143.292  38.508  69.3820  0.00  0.00     0.000 O
ATOM     47  HD  IDS C   3     143.689  37.886  69.8360  0.00  0.00     0.000 HD
BRANCH 40 47
ATOM     47   O  IDS C   3     143.276  42.042  70.3850  0.00  0.00     0.000 O
ATOM     48   S  IDS C   3     144.269  43.240  70.0130  0.00  0.00     0.000 S
ATOM     49   O  IDS C   3     145.083  43.459  71.1900  0.00  0.00     0.000 OA
ATOM     50   O  IDS C   3     143.412  44.366  69.7160  0.00  0.00     0.000 OA
ATOM     51   O  IDS C   3     145.035  42.796  68.8800  0.00  0.00     0.000 OA
ENDBRANCH 40 47
BRANCH 43 52
ATOM     52   C  IDS C   3     140.744  38.859  72.8850  0.00  0.00     0.000 C
ATOM     53   O  IDS C   3     140.691  39.427  73.9520  0.00  0.00     0.000 OA
ATOM     54   O  IDS C   3     139.866  38.106  72.5510  0.00  0.00     0.000 OA
ENDBRANCH 43 52
BRANCH 39 55
ATOM     55  O4  SGN C   4     144.935  39.256  72.1610  0.00  0.00     0.000 O
BRANCH 55 59
ATOM     56  C1  SGN C   4     148.873  37.973  72.7540  0.00  0.00     0.000 C
ATOM     57  C2  SGN C   4     148.409  39.178  73.5910  0.00  0.00     0.000 C
ATOM     58  C3  SGN C   4     146.887  39.291  73.5800  0.00  0.00     0.000 C
ATOM     59  C4  SGN C   4     146.356  39.256  72.1510  0.00  0.00     0.000 C
ATOM     60  C5  SGN C   4     146.872  37.993  71.4660  0.00  0.00     0.000 C
ATOM     61  O5  SGN C   4     148.313  38.042  71.4530  0.00  0.00     0.000 O
ATOM     62   O  SGN C   4     146.494  40.490  74.2330  0.00  0.00     0.000 O
ATOM     64  HD  SGN C   4     147.246  40.278  74.6050  0.00  0.00     0.000 HD
BRANCH 57 66
ATOM     64   N  SGN C   4     148.970  40.196  74.4930  0.00  0.00     0.000 N
ATOM     66  HD  SGN C   4     149.194  40.236  75.3290  0.00  0.00     0.000 HD
ATOM     66   S  SGN C   4     150.286  39.891  75.3430  0.00  0.00     0.000 S
ATOM     67   O  SGN C   4     150.541  41.026  76.1530  0.00  0.00     0.000 OA
ATOM     68   O  SGN C   4     150.100  38.622  75.9570  0.00  0.00     0.000 OA
ATOM     69   O  SGN C   4     151.405  39.764  74.2600  0.00  0.00     0.000 OA
ENDBRANCH 57 66
BRANCH 60 70
ATOM     70   C  SGN C   4     146.402  37.839  70.0350  0.00  0.00     0.000 C
ATOM     71   O  SGN C   4     146.906  40.275  67.2210  0.00  0.00     0.000 OA
ATOM     72   O  SGN C   4     148.141  38.240  67.6490  0.00  0.00     0.000 OA
ATOM     73   O  SGN C   4     146.598  39.065  69.3050  0.00  0.00     0.000 O
ATOM     74   S  SGN C   4     146.871  38.925  67.7360  0.00  0.00     0.000 S
ATOM     75   O  SGN C   4     145.759  38.144  67.2340  0.00  0.00     0.000 OA
ENDBRANCH 60 70
BRANCH 56 76
ATOM     76  O4  IDS C   5     149.164  36.683  73.0040  0.00  0.00     0.000 O
BRANCH 76 80
ATOM     77  C1  IDS C   5     149.549  32.694  73.7730  0.00  0.00     0.000 C
ATOM     78  C2  IDS C   5     150.221  33.158  72.4810  0.00  0.00     0.000 C
ATOM     79  C3  IDS C   5     150.404  34.663  72.5090  0.00  0.00     0.000 C
ATOM     80  C4  IDS C   5     149.039  35.344  72.5030  0.00  0.00     0.000 C
ATOM     81  C5  IDS C   5     148.063  34.536  73.3700  0.00  0.00     0.000 C
ATOM     82  O5  IDS C   5     148.776  33.755  74.3330  0.00  0.00     0.000 O
BRANCH 78 83
ATOM     83   O  IDS C   5     151.552  32.527  72.3270  0.00  0.00     0.000 O
ATOM     84   S  IDS C   5     151.660  31.015  71.8290  0.00  0.00     0.000 S
ATOM     85   O  IDS C   5     150.735  30.266  72.6370  0.00  0.00     0.000 OA
ATOM     86   O  IDS C   5     151.294  31.050  70.4320  0.00  0.00     0.000 OA
ATOM     87   O  IDS C   5     153.036  30.633  72.0340  0.00  0.00     0.000 OA
ENDBRANCH 78 83
BRANCH 81 88
ATOM     88   C  IDS C   5     147.058  35.388  74.1240  0.00  0.00     0.000 C
ATOM     89   O  IDS C   5     147.312  35.769  75.2350  0.00  0.00     0.000 OA
ATOM     90   O  IDS C   5     146.007  35.679  73.6000  0.00  0.00     0.000 OA
ENDBRANCH 81 88
ENDBRANCH 76 80
ENDBRANCH 56 76
ENDBRANCH 55 59
ENDBRANCH 39 55
ENDBRANCH 38 42
ENDBRANCH 18 38
ENDBRANCH 17 21
ENDBRANCH 1 17
TORSDOF 18
ENDMDL
MODEL 33
REMARK VINA RESULT:      -8.0      7.383     11.201
ROOT
ATOM      1  C1  IDS C   1     148.004  18.038  53.0000  0.00  0.00     0.000 C
ATOM      2  C2  IDS C   1     146.733  18.504  53.7160  0.00  0.00     0.000 C
ATOM      3  C3  IDS C   1     145.492  17.964  53.0200  0.00  0.00     0.000 C
ATOM      4  C4  IDS C   1     145.448  18.423  51.5690  0.00  0.00     0.000 C
ATOM      5  C5  IDS C   1     146.849  18.391  50.9670  0.00  0.00     0.000 C
ATOM      6  O5  IDS C   1     147.686  17.511  51.7180  0.00  0.00     0.000 O
ATOM      7   O  IDS C   1     144.316  18.409  53.7100  0.00  0.00     0.000 O
ATOM      9  HD  IDS C   1     144.486  18.419  54.5590  0.00  0.00     0.000 HD
ENDROOT
BRANCH 2 9
ATOM      9   O  IDS C   1     146.708  18.017  55.1140  0.00  0.00     0.000 O
ATOM     10   S  IDS C   1     146.507  19.060  56.3030  0.00  0.00     0.000 S
ATOM     11   O  IDS C   1     146.514  18.280  57.5200  0.00  0.00     0.000 OA
ATOM     12   O  IDS C   1     147.627  19.974  56.2120  0.00  0.00     0.000 OA
ATOM     13   O  IDS C   1     145.235  19.702  56.0550  0.00  0.00     0.000 OA
ENDBRANCH 2 9
BRANCH 5 14
ATOM     14   C  IDS C   1     146.841  17.928  49.5200  0.00  0.00     0.000 C
ATOM     15   O  IDS C   1     147.760  18.225  48.7960  0.00  0.00     0.000 OA
ATOM     16   O  IDS C   1     145.906  17.265  49.1020  0.00  0.00     0.000 OA
ENDBRANCH 5 14
BRANCH 1 17
ATOM     17  O4  SGN C   2     149.087  17.603  53.6490  0.00  0.00     0.000 O
BRANCH 17 21
ATOM     18  C1  SGN C   2     151.639  14.648  55.1580  0.00  0.00     0.000 C
ATOM     19  C2  SGN C   2     150.549  14.182  54.1850  0.00  0.00     0.000 C
ATOM     20  C3  SGN C   2     149.994  15.385  53.4120  0.00  0.00     0.000 C
ATOM     21  C4  SGN C   2     149.538  16.468  54.3830  0.00  0.00     0.000 C
ATOM     22  C5  SGN C   2     150.705  16.848  55.2900  0.00  0.00     0.000 C
ATOM     23  O5  SGN C   2     151.172  15.679  56.0020  0.00  0.00     0.000 O
ATOM     24   O  SGN C   2     148.927  14.971  52.5760  0.00  0.00     0.000 O
ATOM     26  HD  SGN C   2     149.646  15.404  52.7890  0.00  0.00     0.000 HD
BRANCH 19 28
ATOM     26   N  SGN C   2     151.085  12.888  53.7420  0.00  0.00     0.000 N
ATOM     28  HD  SGN C   2     151.384  12.968  54.5510  0.00  0.00     0.000 HD
ATOM     28   O  SGN C   2     150.814  10.816  52.3810  0.00  0.00     0.000 OA
ATOM     29   S  SGN C   2     150.158  11.585  53.5760  0.00  0.00     0.000 S
ATOM     30   O  SGN C   2     150.302  10.808  54.7470  0.00  0.00     0.000 OA
ATOM     31   O  SGN C   2     148.865  12.023  53.1790  0.00  0.00     0.000 OA
ENDBRANCH 19 28
BRANCH 22 32
ATOM     32   C  SGN C   2     150.342  17.877  56.3320  0.00  0.00     0.000 C
ATOM     33   S  SGN C   2     151.436  19.862  57.5590  0.00  0.00     0.000 S
ATOM     34   O  SGN C   2     152.185  18.997  58.4360  0.00  0.00     0.000 OA
ATOM     35   O  SGN C   2     152.174  21.032  57.1280  0.00  0.00     0.000 OA
ATOM     36   O  SGN C   2     150.104  20.163  58.0260  0.00  0.00     0.000 OA
ATOM     37   O  SGN C   2     151.231  18.997  56.2340  0.00  0.00     0.000 O
ENDBRANCH 22 32
BRANCH 18 38
ATOM     38  O4  IDS C   3     152.916  14.966  54.9330  0.00  0.00     0.000 O
BRANCH 38 42
ATOM     39  C1  IDS C   3     156.301  14.284  54.4810  0.00  0.00     0.000 C
ATOM     40  C2  IDS C   3     155.449  13.454  55.4540  0.00  0.00     0.000 C
ATOM     41  C3  IDS C   3     154.699  14.352  56.4370  0.00  0.00     0.000 C
ATOM     42  C4  IDS C   3     153.995  15.492  55.7140  0.00  0.00     0.000 C
ATOM     43  C5  IDS C   3     154.990  16.224  54.8050  0.00  0.00     0.000 C
ATOM     44  O5  IDS C   3     155.528  15.298  53.8620  0.00  0.00     0.000 O
ATOM     45   O  IDS C   3     155.620  14.882  57.3920  0.00  0.00     0.000 O
ATOM     47  HD  IDS C   3     156.358  15.333  57.3450  0.00  0.00     0.000 HD
BRANCH 40 47
ATOM     47   O  IDS C   3     154.438  12.661  54.7140  0.00  0.00     0.000 O
ATOM     48   S  IDS C   3     154.903  11.436  53.7970  0.00  0.00     0.000 S
ATOM     49   O  IDS C   3     155.433  12.026  52.5860  0.00  0.00     0.000 OA
ATOM     50   O  IDS C   3     153.704  10.664  53.5570  0.00  0.00     0.000 OA
ATOM     51   O  IDS C   3     155.897  10.719  54.5500  0.00  0.00     0.000 OA
ENDBRANCH 40 47
BRANCH 43 52
ATOM     52   C  IDS C   3     154.366  17.391  54.0730  0.00  0.00     0.000 C
ATOM     53   O  IDS C   3     154.219  17.341  52.8730  0.00  0.00     0.000 OA
ATOM     54   O  IDS C   3     154.018  18.366  54.6890  0.00  0.00     0.000 OA
ENDBRANCH 43 52
BRANCH 39 55
ATOM     55  O4  SGN C   4     157.565  14.635  54.7200  0.00  0.00     0.000 O
BRANCH 55 59
ATOM     56  C1  SGN C   4     160.240  15.032  51.5280  0.00  0.00     0.000 C
ATOM     57  C2  SGN C   4     159.781  13.604  51.8670  0.00  0.00     0.000 C
ATOM     58  C3  SGN C   4     158.540  13.630  52.7550  0.00  0.00     0.000 C
ATOM     59  C4  SGN C   4     158.761  14.538  53.9600  0.00  0.00     0.000 C
ATOM     60  C5  SGN C   4     159.177  15.921  53.4630  0.00  0.00     0.000 C
ATOM     61  O5  SGN C   4     160.404  15.784  52.7200  0.00  0.00     0.000 O
ATOM     62   O  SGN C   4     158.226  12.308  53.1740  0.00  0.00     0.000 O
ATOM     64  HD  SGN C   4     158.624  12.206  52.4120  0.00  0.00     0.000 HD
BRANCH 57 66
ATOM     64   N  SGN C   4     159.734  13.042  50.5070  0.00  0.00     0.000 N
ATOM     66  HD  SGN C   4     160.302  12.905  49.8670  0.00  0.00     0.000 HD
ATOM     66   S  SGN C   4     160.719  11.861  50.0830  0.00  0.00     0.000 S
ATOM     67   O  SGN C   4     160.482  11.581  48.7140  0.00  0.00     0.000 OA
ATOM     68   O  SGN C   4     162.025  12.237  50.5030  0.00  0.00     0.000 OA
ATOM     69   O  SGN C   4     160.244  10.652  50.9500  0.00  0.00     0.000 OA
ENDBRANCH 57 66
BRANCH 60 70
ATOM     70   C  SGN C   4     159.417  16.921  54.5730  0.00  0.00     0.000 C
ATOM     71   O  SGN C   4     156.881  19.205  56.1400  0.00  0.00     0.000 OA
ATOM     72   O  SGN C   4     157.746  17.130  57.0310  0.00  0.00     0.000 OA
ATOM     73   O  SGN C   4     158.257  17.755  54.7610  0.00  0.00     0.000 O
ATOM     74   S  SGN C   4     158.011  18.311  56.2400  0.00  0.00     0.000 S
ATOM     75   O  SGN C   4     159.247  18.979  56.5960  0.00  0.00     0.000 OA
ENDBRANCH 60 70
BRANCH 56 76
ATOM     76  O4  IDS C   5     160.017  15.902  50.5260  0.00  0.00     0.000 O
BRANCH 76 80
ATOM     77  C1  IDS C   5     156.581  18.104  50.5510  0.00  0.00     0.000 C
ATOM     78  C2  IDS C   5     156.532  16.863  49.6600  0.00  0.00     0.000 C
ATOM     79  C3  IDS C   5     157.643  15.907  50.0500  0.00  0.00     0.000 C
ATOM     80  C4  IDS C   5     158.995  16.546  49.7500  0.00  0.00     0.000 C
ATOM     81  C5  IDS C   5     158.935  18.044  50.0810  0.00  0.00     0.000 C
ATOM     82  O5  IDS C   5     157.907  18.305  51.0410  0.00  0.00     0.000 O
BRANCH 78 83
ATOM     83   O  IDS C   5     155.236  16.162  49.8100  0.00  0.00     0.000 O
ATOM     84   S  IDS C   5     154.420  15.719  48.5120  0.00  0.00     0.000 S
ATOM     85   O  IDS C   5     154.376  16.876  47.6590  0.00  0.00     0.000 OA
ATOM     86   O  IDS C   5     155.173  14.624  47.9470  0.00  0.00     0.000 OA
ATOM     87   O  IDS C   5     153.120  15.313  48.9880  0.00  0.00     0.000 OA
ENDBRANCH 78 83
BRANCH 81 88
ATOM     88   C  IDS C   5     160.232  18.605  50.6350  0.00  0.00     0.000 C
ATOM     89   O  IDS C   5     160.283  18.978  51.7770  0.00  0.00     0.000 OA
ATOM     90   O  IDS C   5     161.207  18.672  49.9230  0.00  0.00     0.000 OA
ENDBRANCH 81 88
ENDBRANCH 76 80
ENDBRANCH 56 76
ENDBRANCH 55 59
ENDBRANCH 39 55
ENDBRANCH 38 42
ENDBRANCH 18 38
ENDBRANCH 17 21
ENDBRANCH 1 17
TORSDOF 18
ENDMDL
MODEL 34
REMARK VINA RESULT:      -7.9     12.367     18.388
ROOT
ATOM      1  C1  IDS C   1     150.287  16.216  47.5710  0.00  0.00     0.000 C
ATOM      2  C2  IDS C   1     149.961  15.664  46.1810  0.00  0.00     0.000 C
ATOM      3  C3  IDS C   1     151.016  14.661  45.7370  0.00  0.00     0.000 C
ATOM      4  C4  IDS C   1     152.394  15.308  45.7100  0.00  0.00     0.000 C
ATOM      5  C5  IDS C   1     152.554  16.248  46.9010  0.00  0.00     0.000 C
ATOM      6  O5  IDS C   1     151.626  15.900  47.9290  0.00  0.00     0.000 O
ATOM      7   O  IDS C   1     150.687  14.155  44.4350  0.00  0.00     0.000 O
ATOM      9  HD  IDS C   1     149.826  14.078  44.3830  0.00  0.00     0.000 HD
ENDROOT
BRANCH 2 9
ATOM      9   O  IDS C   1     148.655  14.966  46.1830  0.00  0.00     0.000 O
ATOM     10   S  IDS C   1     147.535  15.396  45.1330  0.00  0.00     0.000 S
ATOM     11   O  IDS C   1     146.405  14.529  45.3830  0.00  0.00     0.000 OA
ATOM     12   O  IDS C   1     147.251  16.788  45.4150  0.00  0.00     0.000 OA
ATOM     13   O  IDS C   1     148.120  15.193  43.8260  0.00  0.00     0.000 OA
ENDBRANCH 2 9
BRANCH 5 14
ATOM     14   C  IDS C   1     153.957  16.202  47.4830  0.00  0.00     0.000 C
ATOM     15   O  IDS C   1     154.352  15.185  47.9990  0.00  0.00     0.000 OA
ATOM     16   O  IDS C   1     154.668  17.191  47.4260  0.00  0.00     0.000 OA
ENDBRANCH 5 14
BRANCH 1 17
ATOM     17  O4  SGN C   2     149.364  16.381  48.5230  0.00  0.00     0.000 O
BRANCH 17 21
ATOM     18  C1  SGN C   2     147.344  15.444  52.0680  0.00  0.00     0.000 C
ATOM     19  C2  SGN C   2     148.727  14.809  51.8770  0.00  0.00     0.000 C
ATOM     20  C3  SGN C   2     149.496  15.558  50.7830  0.00  0.00     0.000 C
ATOM     21  C4  SGN C   2     148.663  15.625  49.5080  0.00  0.00     0.000 C
ATOM     22  C5  SGN C   2     147.321  16.277  49.8240  0.00  0.00     0.000 C
ATOM     23  O5  SGN C   2     146.637  15.518  50.8480  0.00  0.00     0.000 O
ATOM     24   O  SGN C   2     150.740  14.920  50.5430  0.00  0.00     0.000 O
ATOM     26  HD  SGN C   2     150.199  15.587  50.6590  0.00  0.00     0.000 HD
BRANCH 19 28
ATOM     26   N  SGN C   2     149.072  14.439  53.2570  0.00  0.00     0.000 N
ATOM     28  HD  SGN C   2     148.210  14.359  53.2320  0.00  0.00     0.000 HD
ATOM     28   O  SGN C   2     150.687  13.404  54.8520  0.00  0.00     0.000 OA
ATOM     29   S  SGN C   2     149.789  13.047  53.6200  0.00  0.00     0.000 S
ATOM     30   O  SGN C   2     148.784  12.147  54.0390  0.00  0.00     0.000 OA
ATOM     31   O  SGN C   2     150.633  12.699  52.5300  0.00  0.00     0.000 OA
ENDBRANCH 19 28
BRANCH 22 32
ATOM     32   C  SGN C   2     146.392  16.341  48.6360  0.00  0.00     0.000 C
ATOM     33   S  SGN C   2     143.872  16.595  48.1580  0.00  0.00     0.000 S
ATOM     34   O  SGN C   2     143.597  15.224  48.5090  0.00  0.00     0.000 OA
ATOM     35   O  SGN C   2     142.850  17.523  48.5960  0.00  0.00     0.000 OA
ATOM     36   O  SGN C   2     144.266  16.782  46.7810  0.00  0.00     0.000 OA
ATOM     37   O  SGN C   2     145.163  16.970  49.0190  0.00  0.00     0.000 O
ENDBRANCH 22 32
BRANCH 18 38
ATOM     38  O4  IDS C   3     146.988  16.555  52.7170  0.00  0.00     0.000 O
BRANCH 38 42
ATOM     39  C1  IDS C   3     145.761  19.092  54.7620  0.00  0.00     0.000 C
ATOM     40  C2  IDS C   3     145.071  18.742  53.4340  0.00  0.00     0.000 C
ATOM     41  C3  IDS C   3     146.068  18.740  52.2760  0.00  0.00     0.000 C
ATOM     42  C4  IDS C   3     147.319  17.945  52.6280  0.00  0.00     0.000 C
ATOM     43  C5  IDS C   3     147.886  18.435  53.9650  0.00  0.00     0.000 C
ATOM     44  O5  IDS C   3     146.897  18.273  54.9800  0.00  0.00     0.000 O
ATOM     45   O  IDS C   3     146.426  20.086  51.9580  0.00  0.00     0.000 O
ATOM     47  HD  IDS C   3     146.749  20.755  52.4030  0.00  0.00     0.000 HD
BRANCH 40 47
ATOM     47   O  IDS C   3     144.466  17.390  53.5030  0.00  0.00     0.000 O
ATOM     48   S  IDS C   3     142.937  17.180  53.0850  0.00  0.00     0.000 S
ATOM     49   O  IDS C   3     142.150  17.668  54.1980  0.00  0.00     0.000 OA
ATOM     50   O  IDS C   3     142.789  15.755  52.8860  0.00  0.00     0.000 OA
ATOM     51   O  IDS C   3     142.735  17.944  51.8830  0.00  0.00     0.000 OA
ENDBRANCH 40 47
BRANCH 43 52
ATOM     52   C  IDS C   3     149.150  17.707  54.3670  0.00  0.00     0.000 C
ATOM     53   O  IDS C   3     150.187  17.936  53.7880  0.00  0.00     0.000 OA
ATOM     54   O  IDS C   3     149.117  16.903  55.2640  0.00  0.00     0.000 OA
ENDBRANCH 43 52
BRANCH 39 55
ATOM     55  O4  SGN C   4     145.894  20.338  55.2190  0.00  0.00     0.000 O
BRANCH 55 59
ATOM     56  C1  SGN C   4     142.349  22.174  56.4690  0.00  0.00     0.000 C
ATOM     57  C2  SGN C   4     142.716  22.328  54.9830  0.00  0.00     0.000 C
ATOM     58  C3  SGN C   4     143.780  21.310  54.5800  0.00  0.00     0.000 C
ATOM     59  C4  SGN C   4     144.961  21.359  55.5430  0.00  0.00     0.000 C
ATOM     60  C5  SGN C   4     144.444  21.159  56.9660  0.00  0.00     0.000 C
ATOM     61  O5  SGN C   4     143.522  22.226  57.2650  0.00  0.00     0.000 O
ATOM     62   O  SGN C   4     144.207  21.569  53.2490  0.00  0.00     0.000 O
ATOM     64  HD  SGN C   4     143.391  21.859  53.2760  0.00  0.00     0.000 HD
BRANCH 57 66
ATOM     64   N  SGN C   4     141.494  23.147  55.0090  0.00  0.00     0.000 N
ATOM     66  HD  SGN C   4     141.230  23.888  54.6470  0.00  0.00     0.000 HD
ATOM     66   S  SGN C   4     140.767  23.564  53.6510  0.00  0.00     0.000 S
ATOM     67   O  SGN C   4     139.668  24.392  53.9940  0.00  0.00     0.000 OA
ATOM     68   O  SGN C   4     141.772  24.063  52.7770  0.00  0.00     0.000 OA
ATOM     69   O  SGN C   4     140.237  22.209  53.0820  0.00  0.00     0.000 OA
ENDBRANCH 57 66
BRANCH 60 70
ATOM     70   C  SGN C   4     145.530  21.178  58.0190  0.00  0.00     0.000 C
ATOM     71   O  SGN C   4     145.437  22.958  61.3250  0.00  0.00     0.000 OA
ATOM     72   O  SGN C   4     145.073  20.604  60.9070  0.00  0.00     0.000 OA
ATOM     73   O  SGN C   4     145.217  22.133  59.0510  0.00  0.00     0.000 O
ATOM     74   S  SGN C   4     145.770  21.808  60.5160  0.00  0.00     0.000 S
ATOM     75   O  SGN C   4     147.196  21.619  60.3400  0.00  0.00     0.000 OA
ENDBRANCH 60 70
BRANCH 56 76
ATOM     76  O4  IDS C   5     141.414  21.502  57.1650  0.00  0.00     0.000 O
BRANCH 76 80
ATOM     77  C1  IDS C   5     142.700  18.413  59.5030  0.00  0.00     0.000 C
ATOM     78  C2  IDS C   5     142.063  17.985  58.1810  0.00  0.00     0.000 C
ATOM     79  C3  IDS C   5     142.029  19.160  57.2230  0.00  0.00     0.000 C
ATOM     80  C4  IDS C   5     141.099  20.238  57.7700  0.00  0.00     0.000 C
ATOM     81  C5  IDS C   5     141.256  20.320  59.2950  0.00  0.00     0.000 C
ATOM     82  O5  IDS C   5     142.534  19.818  59.6960  0.00  0.00     0.000 O
BRANCH 78 83
ATOM     83   O  IDS C   5     142.841  16.891  57.5540  0.00  0.00     0.000 O
ATOM     84   S  IDS C   5     142.207  15.432  57.4390  0.00  0.00     0.000 S
ATOM     85   O  IDS C   5     141.688  15.122  58.7440  0.00  0.00     0.000 OA
ATOM     86   O  IDS C   5     141.179  15.545  56.4310  0.00  0.00     0.000 OA
ATOM     87   O  IDS C   5     143.288  14.567  57.0350  0.00  0.00     0.000 OA
ENDBRANCH 78 83
BRANCH 81 88
ATOM     88   C  IDS C   5     141.121  21.725  59.8530  0.00  0.00     0.000 C
ATOM     89   O  IDS C   5     140.033  22.225  59.9600  0.00  0.00     0.000 OA
ATOM     90   O  IDS C   5     142.111  22.333  60.1900  0.00  0.00     0.000 OA
ENDBRANCH 81 88
ENDBRANCH 76 80
ENDBRANCH 56 76
ENDBRANCH 55 59
ENDBRANCH 39 55
ENDBRANCH 38 42
ENDBRANCH 18 38
ENDBRANCH 17 21
ENDBRANCH 1 17
TORSDOF 18
ENDMDL
MODEL 35
REMARK VINA RESULT:      -7.9     24.453     30.884
ROOT
ATOM      1  C1  IDS C   1     147.234  43.624  70.4900  0.00  0.00     0.000 C
ATOM      2  C2  IDS C   1     146.340  44.811  70.8610  0.00  0.00     0.000 C
ATOM      3  C3  IDS C   1     145.987  45.628  69.6270  0.00  0.00     0.000 C
ATOM      4  C4  IDS C   1     147.247  46.141  68.9440  0.00  0.00     0.000 C
ATOM      5  C5  IDS C   1     148.335  45.073  68.9800  0.00  0.00     0.000 C
ATOM      6  O5  IDS C   1     147.751  43.784  69.1760  0.00  0.00     0.000 O
ATOM      7   O  IDS C   1     145.147  46.730  69.9990  0.00  0.00     0.000 O
ATOM      9  HD  IDS C   1     144.616  46.467  70.6300  0.00  0.00     0.000 HD
ENDROOT
BRANCH 2 9
ATOM      9   O  IDS C   1     145.072  44.346  71.4670  0.00  0.00     0.000 O
ATOM     10   S  IDS C   1     144.640  44.897  72.9000  0.00  0.00     0.000 S
ATOM     11   O  IDS C   1     143.370  44.273  73.1980  0.00  0.00     0.000 OA
ATOM     12   O  IDS C   1     145.695  44.491  73.8070  0.00  0.00     0.000 OA
ATOM     13   O  IDS C   1     144.540  46.332  72.7580  0.00  0.00     0.000 OA
ENDBRANCH 2 9
BRANCH 5 14
ATOM     14   C  IDS C   1     149.151  45.042  67.7000  0.00  0.00     0.000 C
ATOM     15   O  IDS C   1     149.224  44.018  67.0660  0.00  0.00     0.000 OA
ATOM     16   O  IDS C   1     149.727  46.050  67.3250  0.00  0.00     0.000 OA
ENDBRANCH 5 14
BRANCH 1 17
ATOM     17  O4  SGN C   2     147.062  42.398  70.9940  0.00  0.00     0.000 O
BRANCH 17 21
ATOM     18  C1  SGN C   2     145.866  38.388  70.8820  0.00  0.00     0.000 C
ATOM     19  C2  SGN C   2     145.976  39.110  69.5330  0.00  0.00     0.000 C
ATOM     20  C3  SGN C   2     146.810  40.387  69.6940  0.00  0.00     0.000 C
ATOM     21  C4  SGN C   2     146.238  41.249  70.8130  0.00  0.00     0.000 C
ATOM     22  C5  SGN C   2     146.183  40.426  72.0970  0.00  0.00     0.000 C
ATOM     23  O5  SGN C   2     145.372  39.247  71.8880  0.00  0.00     0.000 O
ATOM     24   O  SGN C   2     146.841  41.100  68.4690  0.00  0.00     0.000 O
ATOM     26  HD  SGN C   2     147.161  40.765  69.2010  0.00  0.00     0.000 HD
BRANCH 19 28
ATOM     26   N  SGN C   2     145.636  38.572  68.2090  0.00  0.00     0.000 N
ATOM     28  HD  SGN C   2     145.273  39.358  68.2110  0.00  0.00     0.000 HD
ATOM     28   O  SGN C   2     146.255  37.147  66.2570  0.00  0.00     0.000 OA
ATOM     29   S  SGN C   2     146.725  38.421  67.0360  0.00  0.00     0.000 S
ATOM     30   O  SGN C   2     146.595  39.543  66.1880  0.00  0.00     0.000 OA
ATOM     31   O  SGN C   2     147.979  38.143  67.6460  0.00  0.00     0.000 OA
ENDBRANCH 19 28
BRANCH 22 32
ATOM     32   C  SGN C   2     145.575  41.172  73.2600  0.00  0.00     0.000 C
ATOM     33   S  SGN C   2     144.445  40.653  75.5170  0.00  0.00     0.000 S
ATOM     34   O  SGN C   2     143.201  40.288  74.8880  0.00  0.00     0.000 OA
ATOM     35   O  SGN C   2     144.790  39.820  76.6500  0.00  0.00     0.000 OA
ATOM     36   O  SGN C   2     144.578  42.067  75.7810  0.00  0.00     0.000 OA
ATOM     37   O  SGN C   2     145.554  40.326  74.4160  0.00  0.00     0.000 O
ENDBRANCH 22 32
BRANCH 18 38
ATOM     38  O4  IDS C   3     146.746  37.614  71.5200  0.00  0.00     0.000 O
BRANCH 38 42
ATOM     39  C1  IDS C   3     149.736  36.469  72.8900  0.00  0.00     0.000 C
ATOM     40  C2  IDS C   3     149.710  37.174  71.5240  0.00  0.00     0.000 C
ATOM     41  C3  IDS C   3     148.688  36.528  70.5890  0.00  0.00     0.000 C
ATOM     42  C4  IDS C   3     147.348  36.336  71.2860  0.00  0.00     0.000 C
ATOM     43  C5  IDS C   3     147.554  35.603  72.6170  0.00  0.00     0.000 C
ATOM     44  O5  IDS C   3     148.433  36.369  73.4400  0.00  0.00     0.000 O
ATOM     45   O  IDS C   3     149.185  35.264  70.1450  0.00  0.00     0.000 O
ATOM     47  HD  IDS C   3     149.470  34.547  70.5370  0.00  0.00     0.000 HD
BRANCH 40 47
ATOM     47   O  IDS C   3     149.332  38.598  71.6810  0.00  0.00     0.000 O
ATOM     48   S  IDS C   3     150.441  39.676  72.0880  0.00  0.00     0.000 S
ATOM     49   O  IDS C   3     150.660  39.502  73.5080  0.00  0.00     0.000 OA
ATOM     50   O  IDS C   3     149.857  40.961  71.7720  0.00  0.00     0.000 OA
ATOM     51   O  IDS C   3     151.608  39.375  71.3030  0.00  0.00     0.000 OA
ENDBRANCH 40 47
BRANCH 43 52
ATOM     52   C  IDS C   3     146.258  35.352  73.3550  0.00  0.00     0.000 C
ATOM     53   O  IDS C   3     145.729  34.266  73.2920  0.00  0.00     0.000 OA
ATOM     54   O  IDS C   3     145.759  36.236  74.0030  0.00  0.00     0.000 OA
ENDBRANCH 43 52
BRANCH 39 55
ATOM     55  O4  SGN C   4     150.525  35.431  73.1710  0.00  0.00     0.000 O
BRANCH 55 59
ATOM     56  C1  SGN C   4     149.005  32.763  76.0120  0.00  0.00     0.000 C
ATOM     57  C2  SGN C   4     149.843  33.935  76.5500  0.00  0.00     0.000 C
ATOM     58  C3  SGN C   4     149.995  35.023  75.4900  0.00  0.00     0.000 C
ATOM     59  C4  SGN C   4     150.488  34.428  74.1760  0.00  0.00     0.000 C
ATOM     60  C5  SGN C   4     149.540  33.306  73.7580  0.00  0.00     0.000 C
ATOM     61  O5  SGN C   4     149.550  32.298  74.7880  0.00  0.00     0.000 O
ATOM     62   O  SGN C   4     150.892  36.021  75.9570  0.00  0.00     0.000 O
ATOM     64  HD  SGN C   4     150.540  35.692  76.6770  0.00  0.00     0.000 HD
BRANCH 57 66
ATOM     64   N  SGN C   4     149.958  33.200  77.8190  0.00  0.00     0.000 N
ATOM     66  HD  SGN C   4     150.435  33.265  78.5390  0.00  0.00     0.000 HD
ATOM     66   S  SGN C   4     149.830  33.964  79.2140  0.00  0.00     0.000 S
ATOM     67   O  SGN C   4     150.044  33.011  80.2420  0.00  0.00     0.000 OA
ATOM     68   O  SGN C   4     150.667  35.111  79.1390  0.00  0.00     0.000 OA
ATOM     69   O  SGN C   4     148.340  34.433  79.2440  0.00  0.00     0.000 OA
ENDBRANCH 57 66
BRANCH 60 70
ATOM     70   C  SGN C   4     149.921  32.638  72.4540  0.00  0.00     0.000 C
ATOM     71   O  SGN C   4     153.133  30.848  71.6910  0.00  0.00     0.000 OA
ATOM     72   O  SGN C   4     150.993  29.866  72.2430  0.00  0.00     0.000 OA
ATOM     73   O  SGN C   4     151.306  32.243  72.4750  0.00  0.00     0.000 O
ATOM     74   S  SGN C   4     151.695  30.958  71.6070  0.00  0.00     0.000 S
ATOM     75   O  SGN C   4     151.214  31.253  70.2720  0.00  0.00     0.000 OA
ENDBRANCH 60 70
BRANCH 56 76
ATOM     76  O4  IDS C   5     147.703  32.422  76.0330  0.00  0.00     0.000 O
BRANCH 76 80
ATOM     77  C1  IDS C   5     143.657  31.969  76.3270  0.00  0.00     0.000 C
ATOM     78  C2  IDS C   5     144.261  32.945  77.3370  0.00  0.00     0.000 C
ATOM     79  C3  IDS C   5     145.641  33.373  76.8760  0.00  0.00     0.000 C
ATOM     80  C4  IDS C   5     146.580  32.170  76.8910  0.00  0.00     0.000 C
ATOM     81  C5  IDS C   5     145.816  30.923  76.4230  0.00  0.00     0.000 C
ATOM     82  O5  IDS C   5     144.695  31.294  75.6160  0.00  0.00     0.000 O
BRANCH 78 83
ATOM     83   O  IDS C   5     143.415  34.155  77.4670  0.00  0.00     0.000 O
ATOM     84   S  IDS C   5     142.740  34.503  78.8690  0.00  0.00     0.000 S
ATOM     85   O  IDS C   5     142.116  33.288  79.3200  0.00  0.00     0.000 OA
ATOM     86   O  IDS C   5     143.828  34.931  79.7170  0.00  0.00     0.000 OA
ATOM     87   O  IDS C   5     141.798  35.561  78.5970  0.00  0.00     0.000 OA
ENDBRANCH 78 83
BRANCH 81 88
ATOM     88   C  IDS C   5     146.659  29.952  75.6160  0.00  0.00     0.000 C
ATOM     89   O  IDS C   5     146.564  29.929  74.4180  0.00  0.00     0.000 OA
ATOM     90   O  IDS C   5     147.423  29.206  76.1850  0.00  0.00     0.000 OA
ENDBRANCH 81 88
ENDBRANCH 76 80
ENDBRANCH 56 76
ENDBRANCH 55 59
ENDBRANCH 39 55
ENDBRANCH 38 42
ENDBRANCH 18 38
ENDBRANCH 17 21
ENDBRANCH 1 17
TORSDOF 18
ENDMDL
MODEL 36
REMARK VINA RESULT:      -7.8     20.752     24.713
ROOT
ATOM      1  C1  IDS C   1     159.553  34.323  51.8870  0.00  0.00     0.000 C
ATOM      2  C2  IDS C   1     158.747  33.188  51.2490  0.00  0.00     0.000 C
ATOM      3  C3  IDS C   1     157.282  33.575  51.1140  0.00  0.00     0.000 C
ATOM      4  C4  IDS C   1     156.687  33.908  52.4750  0.00  0.00     0.000 C
ATOM      5  C5  IDS C   1     157.702  34.678  53.3150  0.00  0.00     0.000 C
ATOM      6  O5  IDS C   1     158.681  35.283  52.4700  0.00  0.00     0.000 O
ATOM      7   O  IDS C   1     156.550  32.499  50.5100  0.00  0.00     0.000 O
ATOM      9  HD  IDS C   1     157.056  32.124  49.9160  0.00  0.00     0.000 HD
ENDROOT
BRANCH 2 9
ATOM      9   O  IDS C   1     159.254  32.880  49.8920  0.00  0.00     0.000 O
ATOM     10   S  IDS C   1     159.653  31.380  49.5260  0.00  0.00     0.000 S
ATOM     11   O  IDS C   1     160.089  31.411  48.1480  0.00  0.00     0.000 OA
ATOM     12   O  IDS C   1     160.714  31.024  50.4460  0.00  0.00     0.000 OA
ATOM     13   O  IDS C   1     158.453  30.595  49.7170  0.00  0.00     0.000 OA
ENDBRANCH 2 9
BRANCH 5 14
ATOM     14   C  IDS C   1     157.047  35.767  54.1480  0.00  0.00     0.000 C
ATOM     15   O  IDS C   1     155.848  35.773  54.2810  0.00  0.00     0.000 OA
ATOM     16   O  IDS C   1     157.737  36.624  54.6730  0.00  0.00     0.000 OA
ENDBRANCH 5 14
BRANCH 1 17
ATOM     17  O4  SGN C   2     160.758  34.697  51.4470  0.00  0.00     0.000 O
BRANCH 17 21
ATOM     18  C1  SGN C   2     163.496  37.366  49.7440  0.00  0.00     0.000 C
ATOM     19  C2  SGN C   2     162.149  37.952  50.1850  0.00  0.00     0.000 C
ATOM     20  C3  SGN C   2     161.451  36.983  51.1470  0.00  0.00     0.000 C
ATOM     21  C4  SGN C   2     161.348  35.599  50.5160  0.00  0.00     0.000 C
ATOM     22  C5  SGN C   2     162.745  35.125  50.1270  0.00  0.00     0.000 C
ATOM     23  O5  SGN C   2     163.344  36.068  49.2090  0.00  0.00     0.000 O
ATOM     24   O  SGN C   2     160.168  37.482  51.4870  0.00  0.00     0.000 O
ATOM     26  HD  SGN C   2     160.937  37.110  51.6270  0.00  0.00     0.000 HD
BRANCH 19 28
ATOM     26   N  SGN C   2     162.468  39.384  50.2730  0.00  0.00     0.000 N
ATOM     28  HD  SGN C   2     162.975  39.099  49.6310  0.00  0.00     0.000 HD
ATOM     28   O  SGN C   2     161.718  41.715  50.7480  0.00  0.00     0.000 OA
ATOM     29   S  SGN C   2     161.452  40.523  49.7680  0.00  0.00     0.000 S
ATOM     30   O  SGN C   2     161.855  40.907  48.4700  0.00  0.00     0.000 OA
ATOM     31   O  SGN C   2     160.129  40.047  49.9810  0.00  0.00     0.000 OA
ENDBRANCH 19 28
BRANCH 22 32
ATOM     32   C  SGN C   2     162.751  33.782  49.4380  0.00  0.00     0.000 C
ATOM     33   S  SGN C   2     164.326  32.362  47.9740  0.00  0.00     0.000 S
ATOM     34   O  SGN C   2     164.055  33.150  46.7970  0.00  0.00     0.000 OA
ATOM     35   O  SGN C   2     165.709  31.947  48.0880  0.00  0.00     0.000 OA
ATOM     36   O  SGN C   2     163.384  31.291  48.1950  0.00  0.00     0.000 OA
ATOM     37   O  SGN C   2     164.102  33.376  49.1860  0.00  0.00     0.000 O
ENDBRANCH 22 32
BRANCH 18 38
ATOM     38  O4  IDS C   3     164.666  37.317  50.3860  0.00  0.00     0.000 O
BRANCH 38 42
ATOM     39  C1  IDS C   3     167.707  37.868  51.9910  0.00  0.00     0.000 C
ATOM     40  C2  IDS C   3     167.521  38.217  50.5060  0.00  0.00     0.000 C
ATOM     41  C3  IDS C   3     166.966  37.026  49.7240  0.00  0.00     0.000 C
ATOM     42  C4  IDS C   3     165.771  36.408  50.4370  0.00  0.00     0.000 C
ATOM     43  C5  IDS C   3     166.135  36.107  51.8950  0.00  0.00     0.000 C
ATOM     44  O5  IDS C   3     166.521  37.319  52.5400  0.00  0.00     0.000 O
ATOM     45   O  IDS C   3     167.993  36.045  49.5650  0.00  0.00     0.000 O
ATOM     47  HD  IDS C   3     168.514  35.612  50.1040  0.00  0.00     0.000 HD
BRANCH 40 47
ATOM     47   O  IDS C   3     166.562  39.337  50.3500  0.00  0.00     0.000 O
ATOM     48   S  IDS C   3     167.046  40.713  49.6940  0.00  0.00     0.000 S
ATOM     49   O  IDS C   3     167.796  41.401  50.7230  0.00  0.00     0.000 OA
ATOM     50   O  IDS C   3     165.831  41.410  49.3340  0.00  0.00     0.000 OA
ATOM     51   O  IDS C   3     167.853  40.359  48.5570  0.00  0.00     0.000 OA
ENDBRANCH 40 47
BRANCH 43 52
ATOM     52   C  IDS C   3     165.000  35.463  52.6610  0.00  0.00     0.000 C
ATOM     53   O  IDS C   3     164.125  36.151  53.1330  0.00  0.00     0.000 OA
ATOM     54   O  IDS C   3     164.974  34.266  52.7960  0.00  0.00     0.000 OA
ENDBRANCH 43 52
BRANCH 39 55
ATOM     55  O4  SGN C   4     168.828  37.351  52.4940  0.00  0.00     0.000 O
BRANCH 55 59
ATOM     56  C1  SGN C   4     172.555  35.484  52.1330  0.00  0.00     0.000 C
ATOM     57  C2  SGN C   4     172.378  36.816  51.3850  0.00  0.00     0.000 C
ATOM     58  C3  SGN C   4     171.158  37.572  51.9050  0.00  0.00     0.000 C
ATOM     59  C4  SGN C   4     169.929  36.669  51.9110  0.00  0.00     0.000 C
ATOM     60  C5  SGN C   4     170.248  35.411  52.7150  0.00  0.00     0.000 C
ATOM     61  O5  SGN C   4     171.351  34.735  52.0800  0.00  0.00     0.000 O
ATOM     62   O  SGN C   4     170.931  38.721  51.1010  0.00  0.00     0.000 O
ATOM     64  HD  SGN C   4     171.785  38.583  51.0460  0.00  0.00     0.000 HD
BRANCH 57 66
ATOM     64   N  SGN C   4     173.082  37.633  50.3840  0.00  0.00     0.000 N
ATOM     66  HD  SGN C   4     173.723  38.216  50.3910  0.00  0.00     0.000 HD
ATOM     66   S  SGN C   4     174.674  37.589  50.2740  0.00  0.00     0.000 S
ATOM     67   O  SGN C   4     175.057  38.517  49.2740  0.00  0.00     0.000 OA
ATOM     68   O  SGN C   4     175.186  37.732  51.5930  0.00  0.00     0.000 OA
ATOM     69   O  SGN C   4     174.971  36.138  49.7770  0.00  0.00     0.000 OA
ENDBRANCH 57 66
BRANCH 60 70
ATOM     70   C  SGN C   4     169.096  34.433  52.8030  0.00  0.00     0.000 C
ATOM     71   O  SGN C   4     169.041  31.173  54.6660  0.00  0.00     0.000 OA
ATOM     72   O  SGN C   4     168.070  33.279  55.3510  0.00  0.00     0.000 OA
ATOM     73   O  SGN C   4     169.521  33.207  53.4290  0.00  0.00     0.000 O
ATOM     74   S  SGN C   4     168.409  32.404  54.2520  0.00  0.00     0.000 S
ATOM     75   O  SGN C   4     167.323  32.208  53.3130  0.00  0.00     0.000 OA
ENDBRANCH 60 70
BRANCH 56 76
ATOM     76  O4  IDS C   5     173.244  35.071  53.2130  0.00  0.00     0.000 O
BRANCH 76 80
ATOM     77  C1  IDS C   5     171.267  34.442  56.7280  0.00  0.00     0.000 C
ATOM     78  C2  IDS C   5     171.952  35.804  56.6200  0.00  0.00     0.000 C
ATOM     79  C3  IDS C   5     172.263  36.110  55.1680  0.00  0.00     0.000 C
ATOM     80  C4  IDS C   5     173.296  35.115  54.6470  0.00  0.00     0.000 C
ATOM     81  C5  IDS C   5     173.008  33.728  55.2370  0.00  0.00     0.000 C
ATOM     82  O5  IDS C   5     171.634  33.619  55.6200  0.00  0.00     0.000 O
BRANCH 78 83
ATOM     83   O  IDS C   5     171.073  36.875  57.1460  0.00  0.00     0.000 O
ATOM     84   S  IDS C   5     171.602  37.836  58.3050  0.00  0.00     0.000 S
ATOM     85   O  IDS C   5     172.158  36.973  59.3120  0.00  0.00     0.000 OA
ATOM     86   O  IDS C   5     172.588  38.682  57.6750  0.00  0.00     0.000 OA
ATOM     87   O  IDS C   5     170.447  38.572  58.7590  0.00  0.00     0.000 OA
ENDBRANCH 78 83
BRANCH 81 88
ATOM     88   C  IDS C   5     173.310  32.581  54.2890  0.00  0.00     0.000 C
ATOM     89   O  IDS C   5     172.408  31.976  53.7740  0.00  0.00     0.000 OA
ATOM     90   O  IDS C   5     174.459  32.283  54.0570  0.00  0.00     0.000 OA
ENDBRANCH 81 88
ENDBRANCH 76 80
ENDBRANCH 56 76
ENDBRANCH 55 59
ENDBRANCH 39 55
ENDBRANCH 38 42
ENDBRANCH 18 38
ENDBRANCH 17 21
ENDBRANCH 1 17
TORSDOF 18
ENDMDL
MODEL 37
REMARK VINA RESULT:      -7.8     24.810     31.037
ROOT
ATOM      1  C1  IDS C   1     146.904  43.945  70.9700  0.00  0.00     0.000 C
ATOM      2  C2  IDS C   1     145.783  44.977  71.1170  0.00  0.00     0.000 C
ATOM      3  C3  IDS C   1     145.647  45.812  69.8520  0.00  0.00     0.000 C
ATOM      4  C4  IDS C   1     146.953  46.530  69.5400  0.00  0.00     0.000 C
ATOM      5  C5  IDS C   1     148.137  45.616  69.8390  0.00  0.00     0.000 C
ATOM      6  O5  IDS C   1     147.716  44.252  69.8430  0.00  0.00     0.000 O
ATOM      7   O  IDS C   1     144.589  46.767  70.0130  0.00  0.00     0.000 O
ATOM      9  HD  IDS C   1     143.957  46.398  70.4750  0.00  0.00     0.000 HD
ENDROOT
BRANCH 2 9
ATOM      9   O  IDS C   1     144.482  44.312  71.3540  0.00  0.00     0.000 O
ATOM     10   S  IDS C   1     143.621  44.709  72.6370  0.00  0.00     0.000 S
ATOM     11   O  IDS C   1     142.421  43.904  72.5730  0.00  0.00     0.000 OA
ATOM     12   O  IDS C   1     144.454  44.390  73.7780  0.00  0.00     0.000 OA
ATOM     13   O  IDS C   1     143.355  46.125  72.5110  0.00  0.00     0.000 OA
ENDBRANCH 2 9
BRANCH 5 14
ATOM     14   C  IDS C   1     149.253  45.772  68.8200  0.00  0.00     0.000 C
ATOM     15   O  IDS C   1     149.940  44.820  68.5410  0.00  0.00     0.000 OA
ATOM     16   O  IDS C   1     149.447  46.856  68.2960  0.00  0.00     0.000 OA
ENDBRANCH 5 14
BRANCH 1 17
ATOM     17  O4  SGN C   2     146.788  42.680  71.3820  0.00  0.00     0.000 O
BRANCH 17 21
ATOM     18  C1  SGN C   2     145.854  38.623  70.9390  0.00  0.00     0.000 C
ATOM     19  C2  SGN C   2     145.974  39.444  69.6500  0.00  0.00     0.000 C
ATOM     20  C3  SGN C   2     146.718  40.755  69.9360  0.00  0.00     0.000 C
ATOM     21  C4  SGN C   2     146.047  41.499  71.0850  0.00  0.00     0.000 C
ATOM     22  C5  SGN C   2     145.991  40.584  72.3060  0.00  0.00     0.000 C
ATOM     23  O5  SGN C   2     145.266  39.376  71.9790  0.00  0.00     0.000 O
ATOM     24   O  SGN C   2     146.754  41.555  68.7660  0.00  0.00     0.000 O
ATOM     26  HD  SGN C   2     147.064  41.189  69.4870  0.00  0.00     0.000 HD
BRANCH 19 28
ATOM     26   N  SGN C   2     145.715  38.967  68.2850  0.00  0.00     0.000 N
ATOM     28  HD  SGN C   2     145.279  39.713  68.3280  0.00  0.00     0.000 HD
ATOM     28   O  SGN C   2     146.511  37.742  66.2620  0.00  0.00     0.000 OA
ATOM     29   S  SGN C   2     146.839  39.000  67.1350  0.00  0.00     0.000 S
ATOM     30   O  SGN C   2     146.619  40.159  66.3580  0.00  0.00     0.000 OA
ATOM     31   O  SGN C   2     148.101  38.802  67.7600  0.00  0.00     0.000 OA
ENDBRANCH 19 28
BRANCH 22 32
ATOM     32   C  SGN C   2     145.290  41.207  73.4880  0.00  0.00     0.000 C
ATOM     33   S  SGN C   2     143.363  40.657  75.1080  0.00  0.00     0.000 S
ATOM     34   O  SGN C   2     142.356  40.983  74.1300  0.00  0.00     0.000 OA
ATOM     35   O  SGN C   2     143.028  39.509  75.9250  0.00  0.00     0.000 OA
ATOM     36   O  SGN C   2     143.831  41.789  75.8720  0.00  0.00     0.000 OA
ATOM     37   O  SGN C   2     144.618  40.189  74.2400  0.00  0.00     0.000 O
ENDBRANCH 22 32
BRANCH 18 38
ATOM     38  O4  IDS C   3     146.755  37.860  71.5620  0.00  0.00     0.000 O
BRANCH 38 42
ATOM     39  C1  IDS C   3     149.692  36.720  73.0460  0.00  0.00     0.000 C
ATOM     40  C2  IDS C   3     149.726  37.509  71.7280  0.00  0.00     0.000 C
ATOM     41  C3  IDS C   3     148.786  36.894  70.6910  0.00  0.00     0.000 C
ATOM     42  C4  IDS C   3     147.413  36.618  71.2880  0.00  0.00     0.000 C
ATOM     43  C5  IDS C   3     147.562  35.808  72.5820  0.00  0.00     0.000 C
ATOM     44  O5  IDS C   3     148.362  36.546  73.5040  0.00  0.00     0.000 O
ATOM     45   O  IDS C   3     149.353  35.677  70.2020  0.00  0.00     0.000 O
ATOM     47  HD  IDS C   3     149.637  34.944  70.5660  0.00  0.00     0.000 HD
BRANCH 40 47
ATOM     47   O  IDS C   3     149.291  38.909  71.9480  0.00  0.00     0.000 O
ATOM     48   S  IDS C   3     150.384  40.062  72.1320  0.00  0.00     0.000 S
ATOM     49   O  IDS C   3     150.880  39.926  73.4850  0.00  0.00     0.000 OA
ATOM     50   O  IDS C   3     149.667  41.301  71.9270  0.00  0.00     0.000 OA
ATOM     51   O  IDS C   3     151.397  39.824  71.1400  0.00  0.00     0.000 OA
ENDBRANCH 40 47
BRANCH 43 52
ATOM     52   C  IDS C   3     146.232  35.471  73.2190  0.00  0.00     0.000 C
ATOM     53   O  IDS C   3     145.731  34.387  73.0300  0.00  0.00     0.000 OA
ATOM     54   O  IDS C   3     145.679  36.286  73.9120  0.00  0.00     0.000 OA
ENDBRANCH 43 52
BRANCH 39 55
ATOM     55  O4  SGN C   4     150.497  35.690  73.3110  0.00  0.00     0.000 O
BRANCH 55 59
ATOM     56  C1  SGN C   4     149.198  33.170  76.3880  0.00  0.00     0.000 C
ATOM     57  C2  SGN C   4     150.084  34.358  76.8000  0.00  0.00     0.000 C
ATOM     58  C3  SGN C   4     150.155  35.394  75.6820  0.00  0.00     0.000 C
ATOM     59  C4  SGN C   4     150.537  34.734  74.3620  0.00  0.00     0.000 C
ATOM     60  C5  SGN C   4     149.551  33.604  74.0750  0.00  0.00     0.000 C
ATOM     61  O5  SGN C   4     149.639  32.644  75.1470  0.00  0.00     0.000 O
ATOM     62   O  SGN C   4     151.094  36.403  76.0280  0.00  0.00     0.000 O
ATOM     64  HD  SGN C   4     150.800  36.112  76.7880  0.00  0.00     0.000 HD
BRANCH 57 66
ATOM     64   N  SGN C   4     150.103  33.676  78.1040  0.00  0.00     0.000 N
ATOM     66  HD  SGN C   4     150.636  33.645  78.7860  0.00  0.00     0.000 HD
ATOM     66   S  SGN C   4     150.289  34.508  79.4530  0.00  0.00     0.000 S
ATOM     67   O  SGN C   4     150.327  33.580  80.5240  0.00  0.00     0.000 OA
ATOM     68   O  SGN C   4     151.387  35.389  79.2510  0.00  0.00     0.000 OA
ATOM     69   O  SGN C   4     148.980  35.356  79.5480  0.00  0.00     0.000 OA
ENDBRANCH 57 66
BRANCH 60 70
ATOM     70   C  SGN C   4     149.820  32.873  72.7770  0.00  0.00     0.000 C
ATOM     71   O  SGN C   4     153.020  31.194  71.7550  0.00  0.00     0.000 OA
ATOM     72   O  SGN C   4     151.013  30.148  72.6050  0.00  0.00     0.000 OA
ATOM     73   O  SGN C   4     151.218  32.547  72.6620  0.00  0.00     0.000 O
ATOM     74   S  SGN C   4     151.578  31.229  71.8310  0.00  0.00     0.000 S
ATOM     75   O  SGN C   4     150.936  31.415  70.5450  0.00  0.00     0.000 OA
ENDBRANCH 60 70
BRANCH 56 76
ATOM     76  O4  IDS C   5     147.900  32.843  76.5310  0.00  0.00     0.000 O
BRANCH 76 80
ATOM     77  C1  IDS C   5     143.931  31.926  76.7820  0.00  0.00     0.000 C
ATOM     78  C2  IDS C   5     144.653  31.299  75.5890  0.00  0.00     0.000 C
ATOM     79  C3  IDS C   5     146.150  31.326  75.8220  0.00  0.00     0.000 C
ATOM     80  C4  IDS C   5     146.637  32.772  75.8530  0.00  0.00     0.000 C
ATOM     81  C5  IDS C   5     145.595  33.644  76.5680  0.00  0.00     0.000 C
ATOM     82  O5  IDS C   5     144.793  32.850  77.4470  0.00  0.00     0.000 O
BRANCH 78 83
ATOM     83   O  IDS C   5     144.232  29.891  75.4040  0.00  0.00     0.000 O
ATOM     84   S  IDS C   5     143.208  29.516  74.2400  0.00  0.00     0.000 S
ATOM     85   O  IDS C   5     142.122  30.452  74.3520  0.00  0.00     0.000 OA
ATOM     86   O  IDS C   5     143.959  29.660  73.0150  0.00  0.00     0.000 OA
ATOM     87   O  IDS C   5     142.813  28.151  74.4920  0.00  0.00     0.000 OA
ENDBRANCH 78 83
BRANCH 81 88
ATOM     88   C  IDS C   5     146.194  34.772  77.3880  0.00  0.00     0.000 C
ATOM     89   O  IDS C   5     146.111  34.749  78.5870  0.00  0.00     0.000 OA
ATOM     90   O  IDS C   5     146.755  35.687  76.8290  0.00  0.00     0.000 OA
ENDBRANCH 81 88
ENDBRANCH 76 80
ENDBRANCH 56 76
ENDBRANCH 55 59
ENDBRANCH 39 55
ENDBRANCH 38 42
ENDBRANCH 18 38
ENDBRANCH 17 21
ENDBRANCH 1 17
TORSDOF 18
ENDMDL
MODEL 38
REMARK VINA RESULT:      -7.7     27.329     32.247
ROOT
ATOM      1  C1  IDS C   1     144.743   6.796  86.4470  0.00  0.00     0.000 C
ATOM      2  C2  IDS C   1     143.822   5.685  86.9580  0.00  0.00     0.000 C
ATOM      3  C3  IDS C   1     144.544   4.805  87.9680  0.00  0.00     0.000 C
ATOM      4  C4  IDS C   1     145.786   4.181  87.3450  0.00  0.00     0.000 C
ATOM      5  C5  IDS C   1     146.481   5.192  86.4390  0.00  0.00     0.000 C
ATOM      6  O5  IDS C   1     146.093   6.519  86.7960  0.00  0.00     0.000 O
ATOM      7   O  IDS C   1     143.660   3.776  88.4350  0.00  0.00     0.000 O
ATOM      9  HD  IDS C   1     142.863   4.109  88.4950  0.00  0.00     0.000 HD
ENDROOT
BRANCH 2 9
ATOM      9   O  IDS C   1     142.633   6.254  87.6320  0.00  0.00     0.000 O
ATOM     10   S  IDS C   1     141.180   5.947  87.0510  0.00  0.00     0.000 S
ATOM     11   O  IDS C   1     140.251   6.625  87.9270  0.00  0.00     0.000 OA
ATOM     12   O  IDS C   1     141.178   6.483  85.7050  0.00  0.00     0.000 OA
ATOM     13   O  IDS C   1     141.037   4.509  87.0850  0.00  0.00     0.000 OA
ENDBRANCH 2 9
BRANCH 5 14
ATOM     14   C  IDS C   1     147.994   5.094  86.5250  0.00  0.00     0.000 C
ATOM     15   O  IDS C   1     148.596   5.828  87.2700  0.00  0.00     0.000 OA
ATOM     16   O  IDS C   1     148.588   4.276  85.8410  0.00  0.00     0.000 OA
ENDBRANCH 5 14
BRANCH 1 17
ATOM     17  O4  SGN C   2     144.340   8.060  86.2890  0.00  0.00     0.000 O
BRANCH 17 21
ATOM     18  C1  SGN C   2     144.115  12.014  87.6440  0.00  0.00     0.000 C
ATOM     19  C2  SGN C   2     144.810  11.009  88.5710  0.00  0.00     0.000 C
ATOM     20  C3  SGN C   2     145.186   9.749  87.7820  0.00  0.00     0.000 C
ATOM     21  C4  SGN C   2     143.960   9.190  87.0690  0.00  0.00     0.000 C
ATOM     22  C5  SGN C   2     143.364  10.276  86.1790  0.00  0.00     0.000 C
ATOM     23  O5  SGN C   2     143.015  11.429  86.9800  0.00  0.00     0.000 O
ATOM     24   O  SGN C   2     145.750   8.784  88.6550  0.00  0.00     0.000 O
ATOM     26  HD  SGN C   2     145.676   9.250  87.9290  0.00  0.00     0.000 HD
BRANCH 19 28
ATOM     26   N  SGN C   2     145.571  11.904  89.4540  0.00  0.00     0.000 N
ATOM     28  HD  SGN C   2     144.851  12.352  89.2780  0.00  0.00     0.000 HD
ATOM     28   O  SGN C   2     147.153  12.185  91.3630  0.00  0.00     0.000 OA
ATOM     29   S  SGN C   2     145.728  11.626  91.0300  0.00  0.00     0.000 S
ATOM     30   O  SGN C   2     144.766  12.415  91.6990  0.00  0.00     0.000 OA
ATOM     31   O  SGN C   2     145.737  10.217  91.2210  0.00  0.00     0.000 OA
ENDBRANCH 19 28
BRANCH 22 32
ATOM     32   C  SGN C   2     142.105   9.843  85.4680  0.00  0.00     0.000 C
ATOM     33   S  SGN C   2     141.229   9.592  83.0570  0.00  0.00     0.000 S
ATOM     34   O  SGN C   2     141.020  11.011  82.9120  0.00  0.00     0.000 OA
ATOM     35   O  SGN C   2     141.738   8.954  81.8610  0.00  0.00     0.000 OA
ATOM     36   O  SGN C   2     140.117   8.890  83.6540  0.00  0.00     0.000 OA
ATOM     37   O  SGN C   2     142.416   9.476  84.1190  0.00  0.00     0.000 O
ENDBRANCH 22 32
BRANCH 18 38
ATOM     38  O4  IDS C   3     144.630  12.853  86.7420  0.00  0.00     0.000 O
BRANCH 38 42
ATOM     39  C1  IDS C   3     145.869  15.503  84.8520  0.00  0.00     0.000 C
ATOM     40  C2  IDS C   3     144.651  14.693  84.3780  0.00  0.00     0.000 C
ATOM     41  C3  IDS C   3     144.951  13.194  84.3770  0.00  0.00     0.000 C
ATOM     42  C4  IDS C   3     145.593  12.760  85.6870  0.00  0.00     0.000 C
ATOM     43  C5  IDS C   3     146.798  13.656  85.9980  0.00  0.00     0.000 C
ATOM     44  O5  IDS C   3     146.361  15.011  86.0880  0.00  0.00     0.000 O
ATOM     45   O  IDS C   3     145.823  12.887  83.2870  0.00  0.00     0.000 O
ATOM     47  HD  IDS C   3     146.597  13.171  83.0240  0.00  0.00     0.000 HD
BRANCH 40 47
ATOM     47   O  IDS C   3     143.496  14.915  85.2800  0.00  0.00     0.000 O
ATOM     48   S  IDS C   3     142.770  16.340  85.3070  0.00  0.00     0.000 S
ATOM     49   O  IDS C   3     143.632  17.210  86.0780  0.00  0.00     0.000 OA
ATOM     50   O  IDS C   3     141.498  16.106  85.9540  0.00  0.00     0.000 OA
ATOM     51   O  IDS C   3     142.640  16.756  83.9360  0.00  0.00     0.000 OA
ENDBRANCH 40 47
BRANCH 43 52
ATOM     52   C  IDS C   3     147.505  13.264  87.2760  0.00  0.00     0.000 C
ATOM     53   O  IDS C   3     148.022  12.174  87.3700  0.00  0.00     0.000 OA
ATOM     54   O  IDS C   3     147.552  14.042  88.1950  0.00  0.00     0.000 OA
ENDBRANCH 43 52
BRANCH 39 55
ATOM     55  O4  SGN C   4     146.817  15.958  84.0340  0.00  0.00     0.000 O
BRANCH 55 59
ATOM     56  C1  SGN C   4     148.625  19.636  84.8770  0.00  0.00     0.000 C
ATOM     57  C2  SGN C   4     147.175  19.684  84.3640  0.00  0.00     0.000 C
ATOM     58  C3  SGN C   4     146.516  18.312  84.4740  0.00  0.00     0.000 C
ATOM     59  C4  SGN C   4     147.391  17.242  83.8320  0.00  0.00     0.000 C
ATOM     60  C5  SGN C   4     148.780  17.297  84.4650  0.00  0.00     0.000 C
ATOM     61  O5  SGN C   4     149.338  18.603  84.2180  0.00  0.00     0.000 O
ATOM     62   O  SGN C   4     145.235  18.348  83.8590  0.00  0.00     0.000 O
ATOM     64  HD  SGN C   4     145.370  19.160  84.1280  0.00  0.00     0.000 HD
BRANCH 57 66
ATOM     64   N  SGN C   4     146.738  20.850  85.1480  0.00  0.00     0.000 N
ATOM     66  HD  SGN C   4     146.938  21.692  85.1810  0.00  0.00     0.000 HD
ATOM     66   S  SGN C   4     146.236  22.177  84.4180  0.00  0.00     0.000 S
ATOM     67   O  SGN C   4     145.946  23.132  85.4240  0.00  0.00     0.000 OA
ATOM     68   O  SGN C   4     147.194  22.488  83.4140  0.00  0.00     0.000 OA
ATOM     69   O  SGN C   4     144.908  21.737  83.7220  0.00  0.00     0.000 OA
ENDBRANCH 57 66
BRANCH 60 70
ATOM     70   C  SGN C   4     149.744  16.270  83.9140  0.00  0.00     0.000 C
ATOM     71   O  SGN C   4     150.563  12.919  85.3990  0.00  0.00     0.000 OA
ATOM     72   O  SGN C   4     149.088  13.387  83.5410  0.00  0.00     0.000 OA
ATOM     73   O  SGN C   4     149.948  15.207  84.8650  0.00  0.00     0.000 O
ATOM     74   S  SGN C   4     150.283  13.764  84.2620  0.00  0.00     0.000 S
ATOM     75   O  SGN C   4     151.431  13.978  83.4040  0.00  0.00     0.000 OA
ENDBRANCH 60 70
BRANCH 56 76
ATOM     76  O4  IDS C   5     149.237  19.867  86.0530  0.00  0.00     0.000 O
BRANCH 76 80
ATOM     77  C1  IDS C   5     149.560  16.825  88.7550  0.00  0.00     0.000 C
ATOM     78  C2  IDS C   5     148.396  17.781  89.0130  0.00  0.00     0.000 C
ATOM     79  C3  IDS C   5     148.097  18.578  87.7580  0.00  0.00     0.000 C
ATOM     80  C4  IDS C   5     149.281  19.487  87.4370  0.00  0.00     0.000 C
ATOM     81  C5  IDS C   5     150.589  18.747  87.7480  0.00  0.00     0.000 C
ATOM     82  O5  IDS C   5     150.388  17.331  87.7080  0.00  0.00     0.000 O
BRANCH 78 83
ATOM     83   O  IDS C   5     147.176  17.031  89.3920  0.00  0.00     0.000 O
ATOM     84   S  IDS C   5     146.937  16.624  90.9160  0.00  0.00     0.000 S
ATOM     85   O  IDS C   5     148.166  16.028  91.3640  0.00  0.00     0.000 OA
ATOM     86   O  IDS C   5     146.626  17.861  91.5930  0.00  0.00     0.000 OA
ATOM     87   O  IDS C   5     145.827  15.703  90.9050  0.00  0.00     0.000 OA
ENDBRANCH 78 83
BRANCH 81 88
ATOM     88   C  IDS C   5     151.724  19.075  86.7950  0.00  0.00     0.000 C
ATOM     89   O  IDS C   5     152.085  18.258  85.9910  0.00  0.00     0.000 OA
ATOM     90   O  IDS C   5     152.258  20.159  86.8510  0.00  0.00     0.000 OA
ENDBRANCH 81 88
ENDBRANCH 76 80
ENDBRANCH 56 76
ENDBRANCH 55 59
ENDBRANCH 39 55
ENDBRANCH 38 42
ENDBRANCH 18 38
ENDBRANCH 17 21
ENDBRANCH 1 17
TORSDOF 18
ENDMDL
MODEL 39
REMARK VINA RESULT:      -7.7     10.380     16.819
ROOT
ATOM      1  C1  IDS C   1     145.159  18.065  42.4550  0.00  0.00     0.000 C
ATOM      2  C2  IDS C   1     144.433  17.561  41.2040  0.00  0.00     0.000 C
ATOM      3  C3  IDS C   1     145.156  18.010  39.9430  0.00  0.00     0.000 C
ATOM      4  C4  IDS C   1     145.252  19.529  39.8900  0.00  0.00     0.000 C
ATOM      5  C5  IDS C   1     145.537  20.084  41.2830  0.00  0.00     0.000 C
ATOM      6  O5  IDS C   1     146.106  19.068  42.1090  0.00  0.00     0.000 O
ATOM      7   O  IDS C   1     144.461  17.524  38.7860  0.00  0.00     0.000 O
ATOM      9  HD  IDS C   1     144.149  16.736  38.9670  0.00  0.00     0.000 HD
ENDROOT
BRANCH 2 9
ATOM      9   O  IDS C   1     144.380  16.082  41.1860  0.00  0.00     0.000 O
ATOM     10   S  IDS C   1     142.965  15.348  41.2380  0.00  0.00     0.000 S
ATOM     11   O  IDS C   1     143.252  13.932  41.1910  0.00  0.00     0.000 OA
ATOM     12   O  IDS C   1     142.359  15.760  42.4880  0.00  0.00     0.000 OA
ATOM     13   O  IDS C   1     142.236  15.812  40.0790  0.00  0.00     0.000 OA
ENDBRANCH 2 9
BRANCH 5 14
ATOM     14   C  IDS C   1     146.491  21.265  41.2460  0.00  0.00     0.000 C
ATOM     15   O  IDS C   1     147.224  21.466  42.1830  0.00  0.00     0.000 OA
ATOM     16   O  IDS C   1     146.508  21.999  40.2720  0.00  0.00     0.000 OA
ENDBRANCH 5 14
BRANCH 1 17
ATOM     17  O4  SGN C   2     145.356  17.306  43.5370  0.00  0.00     0.000 O
BRANCH 17 21
ATOM     18  C1  SGN C   2     147.628  14.547  45.7170  0.00  0.00     0.000 C
ATOM     19  C2  SGN C   2     148.180  14.961  44.3480  0.00  0.00     0.000 C
ATOM     20  C3  SGN C   2     147.494  16.250  43.8790  0.00  0.00     0.000 C
ATOM     21  C4  SGN C   2     145.979  16.080  43.9110  0.00  0.00     0.000 C
ATOM     22  C5  SGN C   2     145.553  15.674  45.3190  0.00  0.00     0.000 C
ATOM     23  O5  SGN C   2     146.219  14.447  45.6970  0.00  0.00     0.000 O
ATOM     24   O  SGN C   2     147.939  16.587  42.5760  0.00  0.00     0.000 O
ATOM     26  HD  SGN C   2     147.711  16.732  43.3990  0.00  0.00     0.000 HD
BRANCH 19 28
ATOM     26   N  SGN C   2     149.599  14.603  44.4830  0.00  0.00     0.000 N
ATOM     28  HD  SGN C   2     149.193  14.038  44.9990  0.00  0.00     0.000 HD
ATOM     28   O  SGN C   2     151.866  14.426  43.4570  0.00  0.00     0.000 OA
ATOM     29   S  SGN C   2     150.413  13.860  43.3120  0.00  0.00     0.000 S
ATOM     30   O  SGN C   2     150.433  12.481  43.6150  0.00  0.00     0.000 OA
ATOM     31   O  SGN C   2     149.877  14.299  42.0690  0.00  0.00     0.000 OA
ENDBRANCH 19 28
BRANCH 22 32
ATOM     32   C  SGN C   2     144.071  15.422  45.4470  0.00  0.00     0.000 C
ATOM     33   S  SGN C   2     142.055  16.341  46.7640  0.00  0.00     0.000 S
ATOM     34   O  SGN C   2     142.443  15.654  47.9700  0.00  0.00     0.000 OA
ATOM     35   O  SGN C   2     141.521  17.667  46.9960  0.00  0.00     0.000 OA
ATOM     36   O  SGN C   2     141.250  15.546  45.8670  0.00  0.00     0.000 OA
ATOM     37   O  SGN C   2     143.430  16.583  45.9890  0.00  0.00     0.000 O
ENDBRANCH 22 32
BRANCH 18 38
ATOM     38  O4  IDS C   3     147.902  15.019  46.9350  0.00  0.00     0.000 O
BRANCH 38 42
ATOM     39  C1  IDS C   3     148.131  15.793  50.3230  0.00  0.00     0.000 C
ATOM     40  C2  IDS C   3     146.823  16.013  49.5470  0.00  0.00     0.000 C
ATOM     41  C3  IDS C   3     147.061  16.835  48.2810  0.00  0.00     0.000 C
ATOM     42  C4  IDS C   3     148.244  16.294  47.4880  0.00  0.00     0.000 C
ATOM     43  C5  IDS C   3     149.465  16.156  48.4060  0.00  0.00     0.000 C
ATOM     44  O5  IDS C   3     149.145  15.273  49.4790  0.00  0.00     0.000 O
ATOM     45   O  IDS C   3     147.303  18.196  48.6400  0.00  0.00     0.000 O
ATOM     47  HD  IDS C   3     147.863  18.602  49.1620  0.00  0.00     0.000 HD
BRANCH 40 47
ATOM     47   O  IDS C   3     146.240  14.714  49.1320  0.00  0.00     0.000 O
ATOM     48   S  IDS C   3     145.204  13.964  50.0910  0.00  0.00     0.000 S
ATOM     49   O  IDS C   3     145.999  13.355  51.1360  0.00  0.00     0.000 OA
ATOM     50   O  IDS C   3     144.550  12.983  49.2520  0.00  0.00     0.000 OA
ATOM     51   O  IDS C   3     144.307  14.972  50.5880  0.00  0.00     0.000 OA
ENDBRANCH 40 47
BRANCH 43 52
ATOM     52   C  IDS C   3     150.690  15.649  47.6790  0.00  0.00     0.000 C
ATOM     53   O  IDS C   3     150.859  14.460  47.5390  0.00  0.00     0.000 OA
ATOM     54   O  IDS C   3     151.492  16.434  47.2410  0.00  0.00     0.000 OA
ENDBRANCH 43 52
BRANCH 39 55
ATOM     55  O4  SGN C   4     148.581  16.625  51.2620  0.00  0.00     0.000 O
BRANCH 55 59
ATOM     56  C1  SGN C   4     149.847  17.505  55.1520  0.00  0.00     0.000 C
ATOM     57  C2  SGN C   4     150.561  16.341  54.4430  0.00  0.00     0.000 C
ATOM     58  C3  SGN C   4     150.298  16.379  52.9400  0.00  0.00     0.000 C
ATOM     59  C4  SGN C   4     148.804  16.485  52.6580  0.00  0.00     0.000 C
ATOM     60  C5  SGN C   4     148.249  17.700  53.3990  0.00  0.00     0.000 C
ATOM     61  O5  SGN C   4     148.470  17.510  54.8100  0.00  0.00     0.000 O
ATOM     62   O  SGN C   4     150.842  15.216  52.3320  0.00  0.00     0.000 O
ATOM     64  HD  SGN C   4     151.338  15.348  53.0300  0.00  0.00     0.000 HD
BRANCH 57 66
ATOM     64   N  SGN C   4     151.583  16.588  55.4730  0.00  0.00     0.000 N
ATOM     66  HD  SGN C   4     151.813  16.225  56.2250  0.00  0.00     0.000 HD
ATOM     66   S  SGN C   4     152.574  15.423  55.9280  0.00  0.00     0.000 S
ATOM     67   O  SGN C   4     153.391  15.941  56.9640  0.00  0.00     0.000 OA
ATOM     68   O  SGN C   4     151.777  14.271  56.1760  0.00  0.00     0.000 OA
ATOM     69   O  SGN C   4     153.448  15.163  54.6590  0.00  0.00     0.000 OA
ENDBRANCH 57 66
BRANCH 60 70
ATOM     70   C  SGN C   4     146.767  17.919  53.1890  0.00  0.00     0.000 C
ATOM     71   O  SGN C   4     145.124  20.938  51.6740  0.00  0.00     0.000 OA
ATOM     72   O  SGN C   4     145.552  18.806  50.6160  0.00  0.00     0.000 OA
ATOM     73   O  SGN C   4     146.510  19.275  52.7770  0.00  0.00     0.000 O
ATOM     74   S  SGN C   4     145.235  19.507  51.8400  0.00  0.00     0.000 S
ATOM     75   O  SGN C   4     144.128  18.923  52.5690  0.00  0.00     0.000 OA
ENDBRANCH 60 70
BRANCH 56 76
ATOM     76  O4  IDS C   5     150.179  18.757  55.5190  0.00  0.00     0.000 O
BRANCH 76 80
ATOM     77  C1  IDS C   5     151.326  19.877  59.2720  0.00  0.00     0.000 C
ATOM     78  C2  IDS C   5     149.816  19.905  59.0350  0.00  0.00     0.000 C
ATOM     79  C3  IDS C   5     149.472  19.077  57.8120  0.00  0.00     0.000 C
ATOM     80  C4  IDS C   5     150.071  19.729  56.5690  0.00  0.00     0.000 C
ATOM     81  C5  IDS C   5     151.453  20.304  56.9120  0.00  0.00     0.000 C
ATOM     82  O5  IDS C   5     152.011  19.630  58.0440  0.00  0.00     0.000 O
BRANCH 78 83
ATOM     83   O  IDS C   5     149.093  19.344  60.2000  0.00  0.00     0.000 O
ATOM     84   S  IDS C   5     147.856  20.136  60.8220  0.00  0.00     0.000 S
ATOM     85   O  IDS C   5     148.301  21.493  60.9940  0.00  0.00     0.000 OA
ATOM     86   O  IDS C   5     146.796  20.006  59.8490  0.00  0.00     0.000 OA
ATOM     87   O  IDS C   5     147.553  19.473  62.0660  0.00  0.00     0.000 OA
ENDBRANCH 78 83
BRANCH 81 88
ATOM     88   C  IDS C   5     152.459  20.206  55.7800  0.00  0.00     0.000 C
ATOM     89   O  IDS C   5     153.211  19.271  55.7270  0.00  0.00     0.000 OA
ATOM     90   O  IDS C   5     152.496  21.072  54.9360  0.00  0.00     0.000 OA
ENDBRANCH 81 88
ENDBRANCH 76 80
ENDBRANCH 56 76
ENDBRANCH 55 59
ENDBRANCH 39 55
ENDBRANCH 38 42
ENDBRANCH 18 38
ENDBRANCH 17 21
ENDBRANCH 1 17
TORSDOF 18
ENDMDL
MODEL 40
REMARK VINA RESULT:      -7.7     36.643     42.562
ROOT
ATOM      1  C1  IDS C   1     134.152  43.678  61.8410  0.00  0.00     0.000 C
ATOM      2  C2  IDS C   1     132.986  42.738  61.5220  0.00  0.00     0.000 C
ATOM      3  C3  IDS C   1     132.919  41.599  62.5290  0.00  0.00     0.000 C
ATOM      4  C4  IDS C   1     134.218  40.805  62.5300  0.00  0.00     0.000 C
ATOM      5  C5  IDS C   1     135.408  41.749  62.3840  0.00  0.00     0.000 C
ATOM      6  O5  IDS C   1     135.037  43.071  62.7740  0.00  0.00     0.000 O
ATOM      7   O  IDS C   1     131.818  40.735  62.2120  0.00  0.00     0.000 O
ATOM      9  HD  IDS C   1     131.165  41.223  61.9180  0.00  0.00     0.000 HD
ENDROOT
BRANCH 2 9
ATOM      9   O  IDS C   1     131.695  43.460  61.5790  0.00  0.00     0.000 O
ATOM     10   S  IDS C   1     130.758  43.493  60.2890  0.00  0.00     0.000 S
ATOM     11   O  IDS C   1     129.588  44.253  60.6680  0.00  0.00     0.000 OA
ATOM     12   O  IDS C   1     131.541  44.141  59.2560  0.00  0.00     0.000 OA
ATOM     13   O  IDS C   1     130.456  42.112  59.9850  0.00  0.00     0.000 OA
ENDBRANCH 2 9
BRANCH 5 14
ATOM     14   C  IDS C   1     136.593  41.313  63.2280  0.00  0.00     0.000 C
ATOM     15   O  IDS C   1     136.452  40.428  64.0370  0.00  0.00     0.000 OA
ATOM     16   O  IDS C   1     137.673  41.860  63.0830  0.00  0.00     0.000 OA
ENDBRANCH 5 14
BRANCH 1 17
ATOM     17  O4  SGN C   2     134.048  45.009  61.7880  0.00  0.00     0.000 O
BRANCH 17 21
ATOM     18  C1  SGN C   2     134.601  48.723  63.6400  0.00  0.00     0.000 C
ATOM     19  C2  SGN C   2     134.818  47.481  64.5130  0.00  0.00     0.000 C
ATOM     20  C3  SGN C   2     134.999  46.245  63.6230  0.00  0.00     0.000 C
ATOM     21  C4  SGN C   2     133.832  46.122  62.6510  0.00  0.00     0.000 C
ATOM     22  C5  SGN C   2     133.721  47.410  61.8400  0.00  0.00     0.000 C
ATOM     23  O5  SGN C   2     133.536  48.534  62.7310  0.00  0.00     0.000 O
ATOM     24   O  SGN C   2     135.114  45.083  64.4280  0.00  0.00     0.000 O
ATOM     26  HD  SGN C   2     135.305  45.617  63.7730  0.00  0.00     0.000 HD
BRANCH 19 28
ATOM     26   N  SGN C   2     135.597  48.039  65.6270  0.00  0.00     0.000 N
ATOM     28  HD  SGN C   2     135.063  48.684  65.4050  0.00  0.00     0.000 HD
ATOM     28   O  SGN C   2     136.801  47.684  67.7820  0.00  0.00     0.000 OA
ATOM     29   S  SGN C   2     135.373  47.576  67.1500  0.00  0.00     0.000 S
ATOM     30   O  SGN C   2     134.533  48.530  67.7650  0.00  0.00     0.000 OA
ATOM     31   O  SGN C   2     134.987  46.208  67.1320  0.00  0.00     0.000 OA
ENDBRANCH 19 28
BRANCH 22 32
ATOM     32   C  SGN C   2     132.555  47.417  60.8830  0.00  0.00     0.000 C
ATOM     33   S  SGN C   2     132.130  47.602  58.3470  0.00  0.00     0.000 S
ATOM     34   O  SGN C   2     132.353  49.026  58.3450  0.00  0.00     0.000 OA
ATOM     35   O  SGN C   2     132.665  46.928  57.1830  0.00  0.00     0.000 OA
ATOM     36   O  SGN C   2     130.773  47.219  58.6600  0.00  0.00     0.000 OA
ATOM     37   O  SGN C   2     133.008  47.069  59.5690  0.00  0.00     0.000 O
ENDBRANCH 22 32
BRANCH 18 38
ATOM     38  O4  IDS C   3     135.479  49.463  62.9610  0.00  0.00     0.000 O
BRANCH 38 42
ATOM     39  C1  IDS C   3     138.512  50.747  61.8280  0.00  0.00     0.000 C
ATOM     40  C2  IDS C   3     138.305  50.396  63.3100  0.00  0.00     0.000 C
ATOM     41  C3  IDS C   3     137.044  51.060  63.8640  0.00  0.00     0.000 C
ATOM     42  C4  IDS C   3     135.856  50.844  62.9380  0.00  0.00     0.000 C
ATOM     43  C5  IDS C   3     136.228  51.261  61.5100  0.00  0.00     0.000 C
ATOM     44  O5  IDS C   3     137.342  50.485  61.0720  0.00  0.00     0.000 O
ATOM     45   O  IDS C   3     137.280  52.459  64.0290  0.00  0.00     0.000 O
ATOM     47  HD  IDS C   3     137.544  53.101  63.5100  0.00  0.00     0.000 HD
BRANCH 40 47
ATOM     47   O  IDS C   3     138.148  48.932  63.4820  0.00  0.00     0.000 O
ATOM     48   S  IDS C   3     138.937  48.179  64.6520  0.00  0.00     0.000 S
ATOM     49   O  IDS C   3     140.303  48.053  64.1930  0.00  0.00     0.000 OA
ATOM     50   O  IDS C   3     138.279  46.898  64.7900  0.00  0.00     0.000 OA
ATOM     51   O  IDS C   3     138.815  49.007  65.8220  0.00  0.00     0.000 OA
ENDBRANCH 40 47
BRANCH 43 52
ATOM     52   C  IDS C   3     135.082  51.101  60.5350  0.00  0.00     0.000 C
ATOM     53   O  IDS C   3     135.056  50.151  59.7860  0.00  0.00     0.000 OA
ATOM     54   O  IDS C   3     134.200  51.921  60.5100  0.00  0.00     0.000 OA
ENDBRANCH 43 52
BRANCH 39 55
ATOM     55  O4  SGN C   4     139.203  51.808  61.4100  0.00  0.00     0.000 O
BRANCH 55 59
ATOM     56  C1  SGN C   4     140.578  51.565  57.4660  0.00  0.00     0.000 C
ATOM     57  C2  SGN C   4     141.530  51.050  58.5590  0.00  0.00     0.000 C
ATOM     58  C3  SGN C   4     140.780  50.826  59.8690  0.00  0.00     0.000 C
ATOM     59  C4  SGN C   4     139.977  52.066  60.2470  0.00  0.00     0.000 C
ATOM     60  C5  SGN C   4     139.060  52.431  59.0810  0.00  0.00     0.000 C
ATOM     61  O5  SGN C   4     139.882  52.710  57.9300  0.00  0.00     0.000 O
ATOM     62   O  SGN C   4     141.704  50.495  60.8970  0.00  0.00     0.000 O
ATOM     64  HD  SGN C   4     142.080  50.215  60.1690  0.00  0.00     0.000 HD
BRANCH 57 66
ATOM     64   N  SGN C   4     142.126  49.979  57.7440  0.00  0.00     0.000 N
ATOM     66  HD  SGN C   4     142.638  49.934  57.0470  0.00  0.00     0.000 HD
ATOM     66   S  SGN C   4     143.699  49.940  57.4780  0.00  0.00     0.000 S
ATOM     67   O  SGN C   4     143.958  48.842  56.6200  0.00  0.00     0.000 OA
ATOM     68   O  SGN C   4     144.085  51.248  57.0750  0.00  0.00     0.000 OA
ATOM     69   O  SGN C   4     144.306  49.652  58.8880  0.00  0.00     0.000 OA
ENDBRANCH 57 66
BRANCH 60 70
ATOM     70   C  SGN C   4     138.199  53.648  59.3400  0.00  0.00     0.000 C
ATOM     71   O  SGN C   4     136.653  55.906  56.7680  0.00  0.00     0.000 OA
ATOM     72   O  SGN C   4     135.571  54.150  58.0290  0.00  0.00     0.000 OA
ATOM     73   O  SGN C   4     137.968  54.373  58.1170  0.00  0.00     0.000 O
ATOM     74   S  SGN C   4     136.589  55.175  58.0120  0.00  0.00     0.000 S
ATOM     75   O  SGN C   4     136.567  56.029  59.1830  0.00  0.00     0.000 OA
ENDBRANCH 60 70
BRANCH 56 76
ATOM     76  O4  IDS C   5     139.836  51.003  56.4940  0.00  0.00     0.000 O
BRANCH 76 80
ATOM     77  C1  IDS C   5     137.878  49.092  53.4660  0.00  0.00     0.000 C
ATOM     78  C2  IDS C   5     139.384  48.833  53.5110  0.00  0.00     0.000 C
ATOM     79  C3  IDS C   5     139.929  49.204  54.8760  0.00  0.00     0.000 C
ATOM     80  C4  IDS C   5     139.788  50.708  55.0900  0.00  0.00     0.000 C
ATOM     81  C5  IDS C   5     138.460  51.186  54.4870  0.00  0.00     0.000 C
ATOM     82  O5  IDS C   5     137.526  50.105  54.4080  0.00  0.00     0.000 O
BRANCH 78 83
ATOM     83   O  IDS C   5     139.677  47.402  53.2620  0.00  0.00     0.000 O
ATOM     84   S  IDS C   5     140.667  46.989  52.0820  0.00  0.00     0.000 S
ATOM     85   O  IDS C   5     140.225  47.716  50.9220  0.00  0.00     0.000 OA
ATOM     86   O  IDS C   5     141.980  47.384  52.5340  0.00  0.00     0.000 OA
ATOM     87   O  IDS C   5     140.533  45.559  51.9420  0.00  0.00     0.000 OA
ENDBRANCH 78 83
BRANCH 81 88
ATOM     88   C  IDS C   5     137.797  52.307  55.2660  0.00  0.00     0.000 C
ATOM     89   O  IDS C   5     136.906  52.058  56.0330  0.00  0.00     0.000 OA
ATOM     90   O  IDS C   5     138.171  53.447  55.1110  0.00  0.00     0.000 OA
ENDBRANCH 81 88
ENDBRANCH 76 80
ENDBRANCH 56 76
ENDBRANCH 55 59
ENDBRANCH 39 55
ENDBRANCH 38 42
ENDBRANCH 18 38
ENDBRANCH 17 21
ENDBRANCH 1 17
TORSDOF 18
ENDMDL
MODEL 41
REMARK VINA RESULT:      -7.6     26.714     33.945
ROOT
ATOM      1  C1  IDS C   1     142.602  45.070  43.8500  0.00  0.00     0.000 C
ATOM      2  C2  IDS C   1     142.358  46.484  43.3160  0.00  0.00     0.000 C
ATOM      3  C3  IDS C   1     141.566  47.311  44.3180  0.00  0.00     0.000 C
ATOM      4  C4  IDS C   1     140.228  46.650  44.6210  0.00  0.00     0.000 C
ATOM      5  C5  IDS C   1     140.399  45.137  44.7050  0.00  0.00     0.000 C
ATOM      6  O5  IDS C   1     141.764  44.811  44.9680  0.00  0.00     0.000 O
ATOM      7   O  IDS C   1     141.354  48.631  43.7980  0.00  0.00     0.000 O
ATOM      9  HD  IDS C   1     142.061  48.867  43.3570  0.00  0.00     0.000 HD
ENDROOT
BRANCH 2 9
ATOM      9   O  IDS C   1     143.640  47.185  43.0740  0.00  0.00     0.000 O
ATOM     10   S  IDS C   1     143.949  47.774  41.6250  0.00  0.00     0.000 S
ATOM     11   O  IDS C   1     145.250  48.398  41.7200  0.00  0.00     0.000 OA
ATOM     12   O  IDS C   1     143.934  46.634  40.7300  0.00  0.00     0.000 OA
ATOM     13   O  IDS C   1     142.891  48.721  41.3490  0.00  0.00     0.000 OA
ENDBRANCH 2 9
BRANCH 5 14
ATOM     14   C  IDS C   1     139.538  44.523  45.7960  0.00  0.00     0.000 C
ATOM     15   O  IDS C   1     138.631  43.787  45.4930  0.00  0.00     0.000 OA
ATOM     16   O  IDS C   1     139.769  44.779  46.9660  0.00  0.00     0.000 OA
ENDBRANCH 5 14
BRANCH 1 17
ATOM     17  O4  SGN C   2     143.776  44.442  43.7370  0.00  0.00     0.000 O
BRANCH 17 21
ATOM     18  C1  SGN C   2     147.487  43.083  45.1190  0.00  0.00     0.000 C
ATOM     19  C2  SGN C   2     146.498  43.578  46.1810  0.00  0.00     0.000 C
ATOM     20  C3  SGN C   2     145.084  43.632  45.5900  0.00  0.00     0.000 C
ATOM     21  C4  SGN C   2     145.082  44.457  44.3080  0.00  0.00     0.000 C
ATOM     22  C5  SGN C   2     146.096  43.866  43.3340  0.00  0.00     0.000 C
ATOM     23  O5  SGN C   2     147.409  43.857  43.9410  0.00  0.00     0.000 O
ATOM     24   O  SGN C   2     144.183  44.172  46.5420  0.00  0.00     0.000 O
ATOM     26  HD  SGN C   2     144.452  43.630  45.9220  0.00  0.00     0.000 HD
BRANCH 19 28
ATOM     26   N  SGN C   2     147.082  43.025  47.4110  0.00  0.00     0.000 N
ATOM     28  HD  SGN C   2     147.771  43.288  46.9560  0.00  0.00     0.000 HD
ATOM     28   O  SGN C   2     146.902  42.612  49.8640  0.00  0.00     0.000 OA
ATOM     29   S  SGN C   2     146.981  43.782  48.8260  0.00  0.00     0.000 S
ATOM     30   O  SGN C   2     148.193  44.480  49.0230  0.00  0.00     0.000 OA
ATOM     31   O  SGN C   2     145.749  44.491  48.8490  0.00  0.00     0.000 OA
ENDBRANCH 19 28
BRANCH 22 32
ATOM     32   C  SGN C   2     146.216  44.646  42.0480  0.00  0.00     0.000 C
ATOM     33   S  SGN C   2     148.056  45.714  40.5930  0.00  0.00     0.000 S
ATOM     34   O  SGN C   2     148.202  46.839  41.4820  0.00  0.00     0.000 OA
ATOM     35   O  SGN C   2     149.310  45.241  40.0440  0.00  0.00     0.000 OA
ATOM     36   O  SGN C   2     147.020  45.879  39.6010  0.00  0.00     0.000 OA
ATOM     37   O  SGN C   2     147.549  44.530  41.5360  0.00  0.00     0.000 O
ENDBRANCH 22 32
BRANCH 18 38
ATOM     38  O4  IDS C   3     147.731  41.846  44.6790  0.00  0.00     0.000 O
BRANCH 38 42
ATOM     39  C1  IDS C   3     148.627  38.492  44.4070  0.00  0.00     0.000 C
ATOM     40  C2  IDS C   3     149.544  39.502  45.1160  0.00  0.00     0.000 C
ATOM     41  C3  IDS C   3     149.815  40.718  44.2320  0.00  0.00     0.000 C
ATOM     42  C4  IDS C   3     148.524  41.266  43.6380  0.00  0.00     0.000 C
ATOM     43  C5  IDS C   3     147.745  40.135  42.9550  0.00  0.00     0.000 C
ATOM     44  O5  IDS C   3     147.455  39.122  43.9170  0.00  0.00     0.000 O
ATOM     45   O  IDS C   3     150.710  40.349  43.1820  0.00  0.00     0.000 O
ATOM     47  HD  IDS C   3     150.713  39.741  42.5650  0.00  0.00     0.000 HD
BRANCH 40 47
ATOM     47   O  IDS C   3     148.912  39.991  46.3650  0.00  0.00     0.000 O
ATOM     48   S  IDS C   3     149.039  39.136  47.7100  0.00  0.00     0.000 S
ATOM     49   O  IDS C   3     148.100  38.043  47.5760  0.00  0.00     0.000 OA
ATOM     50   O  IDS C   3     148.681  40.046  48.7750  0.00  0.00     0.000 OA
ATOM     51   O  IDS C   3     150.405  38.691  47.7810  0.00  0.00     0.000 OA
ENDBRANCH 40 47
BRANCH 43 52
ATOM     52   C  IDS C   3     146.460  40.612  42.3160  0.00  0.00     0.000 C
ATOM     53   O  IDS C   3     146.490  41.156  41.2360  0.00  0.00     0.000 OA
ATOM     54   O  IDS C   3     145.412  40.446  42.8860  0.00  0.00     0.000 OA
ENDBRANCH 43 52
BRANCH 39 55
ATOM     55  O4  SGN C   4     149.076  37.503  43.6350  0.00  0.00     0.000 O
BRANCH 55 59
ATOM     56  C1  SGN C   4     146.634  34.113  43.4040  0.00  0.00     0.000 C
ATOM     57  C2  SGN C   4     147.614  34.175  44.5880  0.00  0.00     0.000 C
ATOM     58  C3  SGN C   4     148.143  35.594  44.7790  0.00  0.00     0.000 C
ATOM     59  C4  SGN C   4     148.684  36.148  43.4660  0.00  0.00     0.000 C
ATOM     60  C5  SGN C   4     147.591  36.050  42.4040  0.00  0.00     0.000 C
ATOM     61  O5  SGN C   4     147.239  34.661  42.2440  0.00  0.00     0.000 O
ATOM     62   O  SGN C   4     149.154  35.595  45.7780  0.00  0.00     0.000 O
ATOM     64  HD  SGN C   4     148.640  34.930  45.9900  0.00  0.00     0.000 HD
BRANCH 57 66
ATOM     64   N  SGN C   4     146.779  33.520  45.6070  0.00  0.00     0.000 N
ATOM     66  HD  SGN C   4     146.417  32.740  45.7120  0.00  0.00     0.000 HD
ATOM     66   S  SGN C   4     147.223  32.127  46.2470  0.00  0.00     0.000 S
ATOM     67   O  SGN C   4     146.198  31.723  47.1390  0.00  0.00     0.000 OA
ATOM     68   O  SGN C   4     147.589  31.273  45.1710  0.00  0.00     0.000 OA
ATOM     69   O  SGN C   4     148.508  32.485  47.0610  0.00  0.00     0.000 OA
ENDBRANCH 57 66
BRANCH 60 70
ATOM     70   C  SGN C   4     148.006  36.580  41.0490  0.00  0.00     0.000 C
ATOM     71   O  SGN C   4     149.115  34.565  38.0800  0.00  0.00     0.000 OA
ATOM     72   O  SGN C   4     146.946  35.565  38.4560  0.00  0.00     0.000 OA
ATOM     73   O  SGN C   4     148.562  35.524  40.2420  0.00  0.00     0.000 O
ATOM     74   S  SGN C   4     148.374  35.661  38.6600  0.00  0.00     0.000 S
ATOM     75   O  SGN C   4     148.917  36.964  38.3330  0.00  0.00     0.000 OA
ENDBRANCH 60 70
BRANCH 56 76
ATOM     76  O4  IDS C   5     145.300  34.215  43.2530  0.00  0.00     0.000 O
BRANCH 76 80
ATOM     77  C1  IDS C   5     141.484  35.484  43.9470  0.00  0.00     0.000 C
ATOM     78  C2  IDS C   5     142.240  35.035  45.1970  0.00  0.00     0.000 C
ATOM     79  C3  IDS C   5     143.729  35.010  44.9160  0.00  0.00     0.000 C
ATOM     80  C4  IDS C   5     144.035  33.939  43.8730  0.00  0.00     0.000 C
ATOM     81  C5  IDS C   5     142.916  33.919  42.8220  0.00  0.00     0.000 C
ATOM     82  O5  IDS C   5     142.245  35.182  42.7770  0.00  0.00     0.000 O
BRANCH 78 83
ATOM     83   O  IDS C   5     141.991  35.966  46.3220  0.00  0.00     0.000 O
ATOM     84   S  IDS C   5     140.594  35.923  47.0920  0.00  0.00     0.000 S
ATOM     85   O  IDS C   5     139.580  35.936  46.0720  0.00  0.00     0.000 OA
ATOM     86   O  IDS C   5     140.619  34.696  47.8530  0.00  0.00     0.000 OA
ATOM     87   O  IDS C   5     140.574  37.096  47.9310  0.00  0.00     0.000 OA
ENDBRANCH 78 83
BRANCH 81 88
ATOM     88   C  IDS C   5     143.397  33.607  41.4160  0.00  0.00     0.000 C
ATOM     89   O  IDS C   5     143.371  32.476  41.0120  0.00  0.00     0.000 OA
ATOM     90   O  IDS C   5     143.803  34.502  40.7100  0.00  0.00     0.000 OA
ENDBRANCH 81 88
ENDBRANCH 76 80
ENDBRANCH 56 76
ENDBRANCH 55 59
ENDBRANCH 39 55
ENDBRANCH 38 42
ENDBRANCH 18 38
ENDBRANCH 17 21
ENDBRANCH 1 17
TORSDOF 18
ENDMDL
MODEL 42
REMARK VINA RESULT:      -7.6     29.826     37.228
ROOT
ATOM      1  C1  IDS C   1     129.066  40.186  45.7360  0.00  0.00     0.000 C
ATOM      2  C2  IDS C   1     127.601  40.288  46.1700  0.00  0.00     0.000 C
ATOM      3  C3  IDS C   1     126.944  41.523  45.5710  0.00  0.00     0.000 C
ATOM      4  C4  IDS C   1     127.683  42.784  45.9980  0.00  0.00     0.000 C
ATOM      5  C5  IDS C   1     129.187  42.533  46.0040  0.00  0.00     0.000 C
ATOM      6  O5  IDS C   1     129.502  41.416  45.1720  0.00  0.00     0.000 O
ATOM      7   O  IDS C   1     125.573  41.594  45.9880  0.00  0.00     0.000 O
ATOM      9  HD  IDS C   1     125.257  40.788  46.0210  0.00  0.00     0.000 HD
ENDROOT
BRANCH 2 9
ATOM      9   O  IDS C   1     126.833  39.108  45.7120  0.00  0.00     0.000 O
ATOM     10   S  IDS C   1     126.110  38.178  46.7880  0.00  0.00     0.000 S
ATOM     11   O  IDS C   1     125.446  37.140  46.0310  0.00  0.00     0.000 OA
ATOM     12   O  IDS C   1     127.168  37.669  47.6360  0.00  0.00     0.000 OA
ATOM     13   O  IDS C   1     125.185  39.037  47.4940  0.00  0.00     0.000 OA
ENDBRANCH 2 9
BRANCH 5 14
ATOM     14   C  IDS C   1     129.972  43.737  45.5110  0.00  0.00     0.000 C
ATOM     15   O  IDS C   1     131.172  43.754  45.6330  0.00  0.00     0.000 OA
ATOM     16   O  IDS C   1     129.383  44.674  45.0000  0.00  0.00     0.000 OA
ENDBRANCH 5 14
BRANCH 1 17
ATOM     17  O4  SGN C   2     129.634  39.039  45.3550  0.00  0.00     0.000 O
BRANCH 17 21
ATOM     18  C1  SGN C   2     130.917  36.324  42.4380  0.00  0.00     0.000 C
ATOM     19  C2  SGN C   2     130.336  37.651  41.9340  0.00  0.00     0.000 C
ATOM     20  C3  SGN C   2     130.315  38.676  43.0740  0.00  0.00     0.000 C
ATOM     21  C4  SGN C   2     129.587  38.101  44.2840  0.00  0.00     0.000 C
ATOM     22  C5  SGN C   2     130.257  36.792  44.6920  0.00  0.00     0.000 C
ATOM     23  O5  SGN C   2     130.232  35.863  43.5840  0.00  0.00     0.000 O
ATOM     24   O  SGN C   2     129.698  39.874  42.6340  0.00  0.00     0.000 O
ATOM     26  HD  SGN C   2     130.287  39.389  43.0440  0.00  0.00     0.000 HD
BRANCH 19 28
ATOM     26   N  SGN C   2     130.843  37.687  40.5550  0.00  0.00     0.000 N
ATOM     28  HD  SGN C   2     130.692  36.846  40.6970  0.00  0.00     0.000 HD
ATOM     28   O  SGN C   2     131.030  38.889  38.3770  0.00  0.00     0.000 OA
ATOM     29   S  SGN C   2     129.965  38.250  39.3310  0.00  0.00     0.000 S
ATOM     30   O  SGN C   2     129.382  37.141  38.6790  0.00  0.00     0.000 OA
ATOM     31   O  SGN C   2     129.132  39.285  39.8380  0.00  0.00     0.000 OA
ENDBRANCH 19 28
BRANCH 22 32
ATOM     32   C  SGN C   2     129.575  36.106  45.8500  0.00  0.00     0.000 C
ATOM     33   S  SGN C   2     130.205  34.670  47.8960  0.00  0.00     0.000 S
ATOM     34   O  SGN C   2     130.395  33.488  47.0940  0.00  0.00     0.000 OA
ATOM     35   O  SGN C   2     131.171  34.808  48.9660  0.00  0.00     0.000 OA
ATOM     36   O  SGN C   2     128.841  34.880  48.3220  0.00  0.00     0.000 OA
ATOM     37   O  SGN C   2     130.523  35.877  46.9000  0.00  0.00     0.000 O
ENDBRANCH 22 32
BRANCH 18 38
ATOM     38  O4  IDS C   3     132.185  35.965  42.6520  0.00  0.00     0.000 O
BRANCH 38 42
ATOM     39  C1  IDS C   3     135.660  35.943  42.4240  0.00  0.00     0.000 C
ATOM     40  C2  IDS C   3     134.786  36.207  41.1870  0.00  0.00     0.000 C
ATOM     41  C3  IDS C   3     133.733  35.114  41.0110  0.00  0.00     0.000 C
ATOM     42  C4  IDS C   3     133.002  34.838  42.3180  0.00  0.00     0.000 C
ATOM     43  C5  IDS C   3     134.018  34.578  43.4360  0.00  0.00     0.000 C
ATOM     44  O5  IDS C   3     134.863  35.719  43.5740  0.00  0.00     0.000 O
ATOM     45   O  IDS C   3     134.364  33.918  40.5490  0.00  0.00     0.000 O
ATOM     47  HD  IDS C   3     135.016  33.422  40.8310  0.00  0.00     0.000 HD
BRANCH 40 47
ATOM     47   O  IDS C   3     134.070  37.498  41.3210  0.00  0.00     0.000 O
ATOM     48   S  IDS C   3     134.392  38.695  40.3110  0.00  0.00     0.000 S
ATOM     49   O  IDS C   3     135.648  39.262  40.7550  0.00  0.00     0.000 OA
ATOM     50   O  IDS C   3     133.288  39.619  40.4520  0.00  0.00     0.000 OA
ATOM     51   O  IDS C   3     134.477  38.110  39.0000  0.00  0.00     0.000 OA
ENDBRANCH 40 47
BRANCH 43 52
ATOM     52   C  IDS C   3     133.362  34.267  44.7630  0.00  0.00     0.000 C
ATOM     53   O  IDS C   3     132.842  33.190  44.9410  0.00  0.00     0.000 OA
ATOM     54   O  IDS C   3     133.362  35.096  45.6370  0.00  0.00     0.000 OA
ENDBRANCH 43 52
BRANCH 39 55
ATOM     55  O4  SGN C   4     136.784  35.228  42.3950  0.00  0.00     0.000 O
BRANCH 55 59
ATOM     56  C1  SGN C   4     140.810  34.775  43.4410  0.00  0.00     0.000 C
ATOM     57  C2  SGN C   4     139.951  35.647  44.3730  0.00  0.00     0.000 C
ATOM     58  C3  SGN C   4     138.465  35.413  44.1170  0.00  0.00     0.000 C
ATOM     59  C4  SGN C   4     138.147  35.551  42.6320  0.00  0.00     0.000 C
ATOM     60  C5  SGN C   4     139.052  34.604  41.8460  0.00  0.00     0.000 C
ATOM     61  O5  SGN C   4     140.422  34.979  42.0920  0.00  0.00     0.000 O
ATOM     62   O  SGN C   4     137.699  36.334  44.8820  0.00  0.00     0.000 O
ATOM     64  HD  SGN C   4     138.427  36.226  45.3380  0.00  0.00     0.000 HD
BRANCH 57 66
ATOM     64   N  SGN C   4     141.049  36.439  44.9510  0.00  0.00     0.000 N
ATOM     66  HD  SGN C   4     141.132  37.023  45.5850  0.00  0.00     0.000 HD
ATOM     66   S  SGN C   4     141.345  36.394  46.5180  0.00  0.00     0.000 S
ATOM     67   O  SGN C   4     142.406  37.297  46.7770  0.00  0.00     0.000 OA
ATOM     68   O  SGN C   4     140.100  36.570  47.1820  0.00  0.00     0.000 OA
ATOM     69   O  SGN C   4     141.838  34.931  46.7600  0.00  0.00     0.000 OA
ENDBRANCH 57 66
BRANCH 60 70
ATOM     70   C  SGN C   4     138.823  34.642  40.3510  0.00  0.00     0.000 C
ATOM     71   O  SGN C   4     139.398  37.559  38.0550  0.00  0.00     0.000 OA
ATOM     72   O  SGN C   4     140.824  35.632  38.3760  0.00  0.00     0.000 OA
ATOM     73   O  SGN C   4     138.955  35.988  39.8540  0.00  0.00     0.000 O
ATOM     74   S  SGN C   4     139.473  36.147  38.3500  0.00  0.00     0.000 S
ATOM     75   O  SGN C   4     138.564  35.342  37.5580  0.00  0.00     0.000 OA
ENDBRANCH 60 70
BRANCH 56 76
ATOM     76  O4  IDS C   5     141.385  33.560  43.5200  0.00  0.00     0.000 O
BRANCH 76 80
ATOM     77  C1  IDS C   5     139.059  30.309  42.6980  0.00  0.00     0.000 C
ATOM     78  C2  IDS C   5     139.278  30.572  44.1880  0.00  0.00     0.000 C
ATOM     79  C3  IDS C   5     139.756  31.996  44.3940  0.00  0.00     0.000 C
ATOM     80  C4  IDS C   5     141.135  32.168  43.7630  0.00  0.00     0.000 C
ATOM     81  C5  IDS C   5     141.196  31.375  42.4500  0.00  0.00     0.000 C
ATOM     82  O5  IDS C   5     139.882  31.178  41.9200  0.00  0.00     0.000 O
BRANCH 78 83
ATOM     83   O  IDS C   5     138.017  30.387  44.9440  0.00  0.00     0.000 O
ATOM     84   S  IDS C   5     138.020  29.537  46.2940  0.00  0.00     0.000 S
ATOM     85   O  IDS C   5     138.717  28.316  45.9910  0.00  0.00     0.000 OA
ATOM     86   O  IDS C   5     138.709  30.361  47.2590  0.00  0.00     0.000 OA
ATOM     87   O  IDS C   5     136.632  29.332  46.6290  0.00  0.00     0.000 OA
ENDBRANCH 78 83
BRANCH 81 88
ATOM     88   C  IDS C   5     142.031  32.037  41.3690  0.00  0.00     0.000 C
ATOM     89   O  IDS C   5     143.217  32.158  41.5190  0.00  0.00     0.000 OA
ATOM     90   O  IDS C   5     141.496  32.438  40.3610  0.00  0.00     0.000 OA
ENDBRANCH 81 88
ENDBRANCH 76 80
ENDBRANCH 56 76
ENDBRANCH 55 59
ENDBRANCH 39 55
ENDBRANCH 38 42
ENDBRANCH 18 38
ENDBRANCH 17 21
ENDBRANCH 1 17
TORSDOF 18
ENDMDL
MODEL 43
REMARK VINA RESULT:      -7.6     31.005     35.821
ROOT
ATOM      1  C1  IDS C   1     128.839  36.348  69.5930  0.00  0.00     0.000 C
ATOM      2  C2  IDS C   1     128.933  37.851  69.3150  0.00  0.00     0.000 C
ATOM      3  C3  IDS C   1     127.552  38.446  69.0870  0.00  0.00     0.000 C
ATOM      4  C4  IDS C   1     126.859  37.762  67.9170  0.00  0.00     0.000 C
ATOM      5  C5  IDS C   1     127.153  36.265  67.9380  0.00  0.00     0.000 C
ATOM      6  O5  IDS C   1     127.549  35.860  69.2480  0.00  0.00     0.000 O
ATOM      7   O  IDS C   1     127.666  39.854  68.8340  0.00  0.00     0.000 O
ATOM      9  HD  IDS C   1     128.305  40.168  69.3270  0.00  0.00     0.000 HD
ENDROOT
BRANCH 2 9
ATOM      9   O  IDS C   1     129.542  38.562  70.4630  0.00  0.00     0.000 O
ATOM     10   S  IDS C   1     130.750  39.571  70.2080  0.00  0.00     0.000 S
ATOM     11   O  IDS C   1     131.103  40.103  71.5060  0.00  0.00     0.000 OA
ATOM     12   O  IDS C   1     131.806  38.774  69.6190  0.00  0.00     0.000 OA
ATOM     13   O  IDS C   1     130.238  40.581  69.3080  0.00  0.00     0.000 OA
ENDBRANCH 2 9
BRANCH 5 14
ATOM     14   C  IDS C   1     125.947  35.439  67.5220  0.00  0.00     0.000 C
ATOM     15   O  IDS C   1     126.019  34.735  66.5450  0.00  0.00     0.000 OA
ATOM     16   O  IDS C   1     124.920  35.495  68.1770  0.00  0.00     0.000 OA
ENDBRANCH 5 14
BRANCH 1 17
ATOM     17  O4  SGN C   2     129.549  35.738  70.5460  0.00  0.00     0.000 O
BRANCH 17 21
ATOM     18  C1  SGN C   2     130.195  33.902  74.2530  0.00  0.00     0.000 C
ATOM     19  C2  SGN C   2     128.748  33.938  73.7470  0.00  0.00     0.000 C
ATOM     20  C3  SGN C   2     128.730  34.238  72.2430  0.00  0.00     0.000 C
ATOM     21  C4  SGN C   2     129.520  35.510  71.9530  0.00  0.00     0.000 C
ATOM     22  C5  SGN C   2     130.936  35.351  72.4970  0.00  0.00     0.000 C
ATOM     23  O5  SGN C   2     130.888  35.086  73.9180  0.00  0.00     0.000 O
ATOM     24   O  SGN C   2     127.392  34.357  71.7910  0.00  0.00     0.000 O
ATOM     26  HD  SGN C   2     128.221  34.109  71.7600  0.00  0.00     0.000 HD
BRANCH 19 28
ATOM     26   N  SGN C   2     128.124  32.894  74.5720  0.00  0.00     0.000 N
ATOM     28  HD  SGN C   2     128.711  33.250  75.1000  0.00  0.00     0.000 HD
ATOM     28   O  SGN C   2     126.098  31.566  75.1670  0.00  0.00     0.000 OA
ATOM     29   S  SGN C   2     126.633  33.038  75.1570  0.00  0.00     0.000 S
ATOM     30   O  SGN C   2     126.741  33.488  76.4920  0.00  0.00     0.000 OA
ATOM     31   O  SGN C   2     125.873  33.791  74.2210  0.00  0.00     0.000 OA
ENDBRANCH 19 28
BRANCH 22 32
ATOM     32   C  SGN C   2     131.790  36.582  72.3120  0.00  0.00     0.000 C
ATOM     33   S  SGN C   2     134.272  37.259  72.4530  0.00  0.00     0.000 S
ATOM     34   O  SGN C   2     134.254  37.286  73.8940  0.00  0.00     0.000 OA
ATOM     35   O  SGN C   2     135.497  36.722  71.8970  0.00  0.00     0.000 OA
ATOM     36   O  SGN C   2     133.855  38.496  71.8350  0.00  0.00     0.000 OA
ATOM     37   O  SGN C   2     133.147  36.196  72.0650  0.00  0.00     0.000 O
ENDBRANCH 22 32
BRANCH 18 38
ATOM     38  O4  IDS C   3     131.121  32.946  74.1510  0.00  0.00     0.000 O
BRANCH 38 42
ATOM     39  C1  IDS C   3     133.488  30.420  74.5300  0.00  0.00     0.000 C
ATOM     40  C2  IDS C   3     133.881  31.796  73.9690  0.00  0.00     0.000 C
ATOM     41  C3  IDS C   3     132.976  32.197  72.8050  0.00  0.00     0.000 C
ATOM     42  C4  IDS C   3     131.507  31.995  73.1540  0.00  0.00     0.000 C
ATOM     43  C5  IDS C   3     131.289  30.570  73.6760  0.00  0.00     0.000 C
ATOM     44  O5  IDS C   3     132.103  30.366  74.8300  0.00  0.00     0.000 O
ATOM     45   O  IDS C   3     133.310  31.418  71.6550  0.00  0.00     0.000 O
ATOM     47  HD  IDS C   3     133.367  30.570  71.4850  0.00  0.00     0.000 HD
BRANCH 40 47
ATOM     47   O  IDS C   3     133.752  32.840  75.0130  0.00  0.00     0.000 O
ATOM     48   S  IDS C   3     135.047  33.638  75.5050  0.00  0.00     0.000 S
ATOM     49   O  IDS C   3     135.756  32.738  76.3890  0.00  0.00     0.000 OA
ATOM     50   O  IDS C   3     134.538  34.803  76.1940  0.00  0.00     0.000 OA
ATOM     51   O  IDS C   3     135.798  33.963  74.3220  0.00  0.00     0.000 OA
ENDBRANCH 40 47
BRANCH 43 52
ATOM     52   C  IDS C   3     129.844  30.286  74.0180  0.00  0.00     0.000 C
ATOM     53   O  IDS C   3     129.522  30.096  75.1690  0.00  0.00     0.000 OA
ATOM     54   O  IDS C   3     129.018  30.251  73.1410  0.00  0.00     0.000 OA
ENDBRANCH 43 52
BRANCH 39 55
ATOM     55  O4  SGN C   4     133.991  29.269  74.0840  0.00  0.00     0.000 O
BRANCH 55 59
ATOM     56  C1  SGN C   4     135.960  26.828  76.8540  0.00  0.00     0.000 C
ATOM     57  C2  SGN C   4     136.750  28.033  76.3150  0.00  0.00     0.000 C
ATOM     58  C3  SGN C   4     135.817  29.038  75.6450  0.00  0.00     0.000 C
ATOM     59  C4  SGN C   4     134.925  28.343  74.6220  0.00  0.00     0.000 C
ATOM     60  C5  SGN C   4     134.185  27.199  75.3120  0.00  0.00     0.000 C
ATOM     61  O5  SGN C   4     135.163  26.270  75.8210  0.00  0.00     0.000 O
ATOM     62   O  SGN C   4     136.584  30.062  75.0280  0.00  0.00     0.000 O
ATOM     64  HD  SGN C   4     137.076  29.790  75.6870  0.00  0.00     0.000 HD
BRANCH 57 66
ATOM     64   N  SGN C   4     137.544  27.879  77.5440  0.00  0.00     0.000 N
ATOM     66  HD  SGN C   4     138.280  27.480  77.7680  0.00  0.00     0.000 HD
ATOM     66   S  SGN C   4     139.094  28.259  77.5630  0.00  0.00     0.000 S
ATOM     67   O  SGN C   4     139.593  27.948  78.8530  0.00  0.00     0.000 OA
ATOM     68   O  SGN C   4     139.685  27.654  76.4200  0.00  0.00     0.000 OA
ATOM     69   O  SGN C   4     139.097  29.809  77.3660  0.00  0.00     0.000 OA
ENDBRANCH 57 66
BRANCH 60 70
ATOM     70   C  SGN C   4     133.254  26.434  74.3960  0.00  0.00     0.000 C
ATOM     71   O  SGN C   4     134.177  24.643  71.2260  0.00  0.00     0.000 OA
ATOM     72   O  SGN C   4     133.776  23.673  73.4040  0.00  0.00     0.000 OA
ATOM     73   O  SGN C   4     133.932  26.066  73.1790  0.00  0.00     0.000 O
ATOM     74   S  SGN C   4     133.442  24.721  72.4670  0.00  0.00     0.000 S
ATOM     75   O  SGN C   4     132.015  24.898  72.2840  0.00  0.00     0.000 OA
ENDBRANCH 60 70
BRANCH 56 76
ATOM     76  O4  IDS C   5     135.393  26.497  78.0290  0.00  0.00     0.000 O
BRANCH 76 80
ATOM     77  C1  IDS C   5     137.673  24.968  81.0490  0.00  0.00     0.000 C
ATOM     78  C2  IDS C   5     136.971  23.917  80.1890  0.00  0.00     0.000 C
ATOM     79  C3  IDS C   5     136.533  24.536  78.8770  0.00  0.00     0.000 C
ATOM     80  C4  IDS C   5     135.466  25.594  79.1420  0.00  0.00     0.000 C
ATOM     81  C5  IDS C   5     135.815  26.356  80.4290  0.00  0.00     0.000 C
ATOM     82  O5  IDS C   5     137.218  26.274  80.6970  0.00  0.00     0.000 O
BRANCH 78 83
ATOM     83   O  IDS C   5     137.884  22.788  79.8930  0.00  0.00     0.000 O
ATOM     84   S  IDS C   5     137.441  21.297  80.2470  0.00  0.00     0.000 S
ATOM     85   O  IDS C   5     136.963  21.337  81.6030  0.00  0.00     0.000 OA
ATOM     86   O  IDS C   5     136.408  20.972  79.2910  0.00  0.00     0.000 OA
ATOM     87   O  IDS C   5     138.624  20.488  80.0830  0.00  0.00     0.000 OA
ENDBRANCH 78 83
BRANCH 81 88
ATOM     88   C  IDS C   5     135.440  27.826  80.3950  0.00  0.00     0.000 C
ATOM     89   O  IDS C   5     134.296  28.156  80.5550  0.00  0.00     0.000 OA
ATOM     90   O  IDS C   5     136.298  28.658  80.2070  0.00  0.00     0.000 OA
ENDBRANCH 81 88
ENDBRANCH 76 80
ENDBRANCH 56 76
ENDBRANCH 55 59
ENDBRANCH 39 55
ENDBRANCH 38 42
ENDBRANCH 18 38
ENDBRANCH 17 21
ENDBRANCH 1 17
TORSDOF 18
ENDMDL
MODEL 44
REMARK VINA RESULT:      -7.6     23.039     29.109
ROOT
ATOM      1  C1  IDS C   1     163.035  31.143  77.2400  0.00  0.00     0.000 C
ATOM      2  C2  IDS C   1     163.641  30.085  78.1670  0.00  0.00     0.000 C
ATOM      3  C3  IDS C   1     165.151  30.012  77.9900  0.00  0.00     0.000 C
ATOM      4  C4  IDS C   1     165.506  29.679  76.5480  0.00  0.00     0.000 C
ATOM      5  C5  IDS C   1     164.567  30.411  75.5940  0.00  0.00     0.000 C
ATOM      6  O5  IDS C   1     163.978  31.534  76.2510  0.00  0.00     0.000 O
ATOM      7   O  IDS C   1     165.695  29.020  78.8710  0.00  0.00     0.000 O
ATOM      9  HD  IDS C   1     165.249  29.039  79.6120  0.00  0.00     0.000 HD
ENDROOT
BRANCH 2 9
ATOM      9   O  IDS C   1     163.374  30.413  79.5860  0.00  0.00     0.000 O
ATOM     10   S  IDS C   1     162.704  29.317  80.5310  0.00  0.00     0.000 S
ATOM     11   O  IDS C   1     162.592  29.932  81.8340  0.00  0.00     0.000 OA
ATOM     12   O  IDS C   1     161.417  29.022  79.9330  0.00  0.00     0.000 OA
ATOM     13   O  IDS C   1     163.603  28.184  80.5200  0.00  0.00     0.000 OA
ENDBRANCH 2 9
BRANCH 5 14
ATOM     14   C  IDS C   1     165.284  30.903  74.3490  0.00  0.00     0.000 C
ATOM     15   O  IDS C   1     166.272  30.326  73.9650  0.00  0.00     0.000 OA
ATOM     16   O  IDS C   1     164.858  31.876  73.7500  0.00  0.00     0.000 OA
ENDBRANCH 5 14
BRANCH 1 17
ATOM     17  O4  SGN C   2     162.088  31.999  77.6340  0.00  0.00     0.000 O
BRANCH 17 21
ATOM     18  C1  SGN C   2     160.522  35.864  78.0000  0.00  0.00     0.000 C
ATOM     19  C2  SGN C   2     161.859  35.732  77.2610  0.00  0.00     0.000 C
ATOM     20  C3  SGN C   2     162.079  34.273  76.8420  0.00  0.00     0.000 C
ATOM     21  C4  SGN C   2     161.946  33.354  78.0510  0.00  0.00     0.000 C
ATOM     22  C5  SGN C   2     160.580  33.573  78.6950  0.00  0.00     0.000 C
ATOM     23  O5  SGN C   2     160.439  34.959  79.0820  0.00  0.00     0.000 O
ATOM     24   O  SGN C   2     163.353  34.132  76.2360  0.00  0.00     0.000 O
ATOM     26  HD  SGN C   2     162.502  34.005  76.3330  0.00  0.00     0.000 HD
BRANCH 19 28
ATOM     26   N  SGN C   2     161.953  37.032  76.5830  0.00  0.00     0.000 N
ATOM     28  HD  SGN C   2     161.647  37.231  77.3680  0.00  0.00     0.000 HD
ATOM     28   O  SGN C   2     163.120  38.508  74.9450  0.00  0.00     0.000 OA
ATOM     29   S  SGN C   2     163.363  37.749  76.2930  0.00  0.00     0.000 S
ATOM     30   O  SGN C   2     163.573  38.701  77.3160  0.00  0.00     0.000 OA
ATOM     31   O  SGN C   2     164.329  36.730  76.0730  0.00  0.00     0.000 OA
ENDBRANCH 19 28
BRANCH 22 32
ATOM     32   C  SGN C   2     160.367  32.749  79.9410  0.00  0.00     0.000 C
ATOM     33   S  SGN C   2     158.603  31.151  80.9300  0.00  0.00     0.000 S
ATOM     34   O  SGN C   2     157.727  32.235  81.2980  0.00  0.00     0.000 OA
ATOM     35   O  SGN C   2     157.906  29.985  80.4300  0.00  0.00     0.000 OA
ATOM     36   O  SGN C   2     159.605  30.841  81.9230  0.00  0.00     0.000 OA
ATOM     37   O  SGN C   2     159.417  31.711  79.6760  0.00  0.00     0.000 O
ENDBRANCH 22 32
BRANCH 18 38
ATOM     38  O4  IDS C   3     159.275  35.915  77.5250  0.00  0.00     0.000 O
BRANCH 38 42
ATOM     39  C1  IDS C   3     156.603  35.366  75.3600  0.00  0.00     0.000 C
ATOM     40  C2  IDS C   3     158.018  35.631  74.8210  0.00  0.00     0.000 C
ATOM     41  C3  IDS C   3     158.611  36.902  75.4270  0.00  0.00     0.000 C
ATOM     42  C4  IDS C   3     158.442  36.922  76.9400  0.00  0.00     0.000 C
ATOM     43  C5  IDS C   3     156.974  36.661  77.3020  0.00  0.00     0.000 C
ATOM     44  O5  IDS C   3     156.583  35.393  76.7770  0.00  0.00     0.000 O
ATOM     45   O  IDS C   3     157.970  38.044  74.8550  0.00  0.00     0.000 O
ATOM     47  HD  IDS C   3     157.149  38.310  74.7790  0.00  0.00     0.000 HD
BRANCH 40 47
ATOM     47   O  IDS C   3     158.924  34.510  75.1630  0.00  0.00     0.000 O
ATOM     48   S  IDS C   3     158.834  33.136  74.3480  0.00  0.00     0.000 S
ATOM     49   O  IDS C   3     157.669  32.447  74.8600  0.00  0.00     0.000 OA
ATOM     50   O  IDS C   3     160.065  32.437  74.6440  0.00  0.00     0.000 OA
ATOM     51   O  IDS C   3     158.705  33.494  72.9610  0.00  0.00     0.000 OA
ENDBRANCH 40 47
BRANCH 43 52
ATOM     52   C  IDS C   3     156.724  36.693  78.7930  0.00  0.00     0.000 C
ATOM     53   O  IDS C   3     156.116  35.791  79.3220  0.00  0.00     0.000 OA
ATOM     54   O  IDS C   3     157.132  37.619  79.4470  0.00  0.00     0.000 OA
ENDBRANCH 43 52
BRANCH 39 55
ATOM     55  O4  SGN C   4     155.495  35.841  74.7920  0.00  0.00     0.000 O
BRANCH 55 59
ATOM     56  C1  SGN C   4     152.386  33.164  73.9730  0.00  0.00     0.000 C
ATOM     57  C2  SGN C   4     153.608  33.105  73.0400  0.00  0.00     0.000 C
ATOM     58  C3  SGN C   4     154.801  33.824  73.6640  0.00  0.00     0.000 C
ATOM     59  C4  SGN C   4     154.406  35.224  74.1200  0.00  0.00     0.000 C
ATOM     60  C5  SGN C   4     153.208  35.114  75.0610  0.00  0.00     0.000 C
ATOM     61  O5  SGN C   4     152.119  34.508  74.3370  0.00  0.00     0.000 O
ATOM     62   O  SGN C   4     155.865  33.884  72.7240  0.00  0.00     0.000 O
ATOM     64  HD  SGN C   4     155.425  33.171  72.5080  0.00  0.00     0.000 HD
BRANCH 57 66
ATOM     64   N  SGN C   4     153.446  31.662  72.8020  0.00  0.00     0.000 N
ATOM     66  HD  SGN C   4     152.903  31.159  72.3510  0.00  0.00     0.000 HD
ATOM     66   S  SGN C   4     153.384  31.086  71.3150  0.00  0.00     0.000 S
ATOM     67   O  SGN C   4     153.164  29.689  71.4080  0.00  0.00     0.000 OA
ATOM     68   O  SGN C   4     152.460  31.893  70.5950  0.00  0.00     0.000 OA
ATOM     69   O  SGN C   4     154.819  31.349  70.7550  0.00  0.00     0.000 OA
ENDBRANCH 57 66
BRANCH 60 70
ATOM     70   C  SGN C   4     152.725  36.446  75.5920  0.00  0.00     0.000 C
ATOM     71   O  SGN C   4     153.752  38.100  78.8040  0.00  0.00     0.000 OA
ATOM     72   O  SGN C   4     154.524  38.612  76.5700  0.00  0.00     0.000 OA
ATOM     73   O  SGN C   4     153.182  36.646  76.9440  0.00  0.00     0.000 O
ATOM     74   S  SGN C   4     153.428  38.160  77.3970  0.00  0.00     0.000 S
ATOM     75   O  SGN C   4     152.178  38.838  77.1210  0.00  0.00     0.000 OA
ENDBRANCH 60 70
BRANCH 56 76
ATOM     76  O4  IDS C   5     151.868  32.372  74.9290  0.00  0.00     0.000 O
BRANCH 76 80
ATOM     77  C1  IDS C   5     148.042  33.454  75.8520  0.00  0.00     0.000 C
ATOM     78  C2  IDS C   5     148.914  33.115  77.0600  0.00  0.00     0.000 C
ATOM     79  C3  IDS C   5     150.378  33.161  76.6680  0.00  0.00     0.000 C
ATOM     80  C4  IDS C   5     150.671  32.057  75.6570  0.00  0.00     0.000 C
ATOM     81  C5  IDS C   5     149.481  31.918  74.6960  0.00  0.00     0.000 C
ATOM     82  O5  IDS C   5     148.732  33.136  74.6440  0.00  0.00     0.000 O
BRANCH 78 83
ATOM     83   O  IDS C   5     148.692  34.087  78.1560  0.00  0.00     0.000 O
ATOM     84   S  IDS C   5     148.580  33.572  79.6620  0.00  0.00     0.000 S
ATOM     85   O  IDS C   5     147.647  32.478  79.6380  0.00  0.00     0.000 OA
ATOM     86   O  IDS C   5     149.919  33.169  80.0240  0.00  0.00     0.000 OA
ATOM     87   O  IDS C   5     148.113  34.703  80.4270  0.00  0.00     0.000 OA
ENDBRANCH 78 83
BRANCH 81 88
ATOM     88   C  IDS C   5     149.875  31.561  73.2750  0.00  0.00     0.000 C
ATOM     89   O  IDS C   5     149.623  32.318  72.3760  0.00  0.00     0.000 OA
ATOM     90   O  IDS C   5     150.443  30.516  73.0550  0.00  0.00     0.000 OA
ENDBRANCH 81 88
ENDBRANCH 76 80
ENDBRANCH 56 76
ENDBRANCH 55 59
ENDBRANCH 39 55
ENDBRANCH 38 42
ENDBRANCH 18 38
ENDBRANCH 17 21
ENDBRANCH 1 17
TORSDOF 18
ENDMDL
MODEL 45
REMARK VINA RESULT:      -7.5     36.682     43.111
ROOT
ATOM      1  C1  IDS C   1     134.337  43.690  61.8440  0.00  0.00     0.000 C
ATOM      2  C2  IDS C   1     133.160  42.754  61.5550  0.00  0.00     0.000 C
ATOM      3  C3  IDS C   1     133.081  41.648  62.5970  0.00  0.00     0.000 C
ATOM      4  C4  IDS C   1     134.371  40.839  62.6210  0.00  0.00     0.000 C
ATOM      5  C5  IDS C   1     135.571  41.764  62.4450  0.00  0.00     0.000 C
ATOM      6  O5  IDS C   1     135.216  43.102  62.7950  0.00  0.00     0.000 O
ATOM      7   O  IDS C   1     131.969  40.788  62.3070  0.00  0.00     0.000 O
ATOM      9  HD  IDS C   1     131.322  41.274  61.9990  0.00  0.00     0.000 HD
ENDROOT
BRANCH 2 9
ATOM      9   O  IDS C   1     131.878  43.494  61.5910  0.00  0.00     0.000 O
ATOM     10   S  IDS C   1     130.994  43.593  60.2670  0.00  0.00     0.000 S
ATOM     11   O  IDS C   1     129.820  44.354  60.6310  0.00  0.00     0.000 OA
ATOM     12   O  IDS C   1     131.826  44.270  59.2930  0.00  0.00     0.000 OA
ATOM     13   O  IDS C   1     130.686  42.230  59.8950  0.00  0.00     0.000 OA
ENDBRANCH 2 9
BRANCH 5 14
ATOM     14   C  IDS C   1     136.752  41.340  63.3010  0.00  0.00     0.000 C
ATOM     15   O  IDS C   1     136.604  40.475  64.1300  0.00  0.00     0.000 OA
ATOM     16   O  IDS C   1     137.836  41.876  63.1460  0.00  0.00     0.000 OA
ENDBRANCH 5 14
BRANCH 1 17
ATOM     17  O4  SGN C   2     134.250  45.020  61.7500  0.00  0.00     0.000 O
BRANCH 17 21
ATOM     18  C1  SGN C   2     134.602  48.792  63.5310  0.00  0.00     0.000 C
ATOM     19  C2  SGN C   2     134.763  47.579  64.4550  0.00  0.00     0.000 C
ATOM     20  C3  SGN C   2     135.033  46.322  63.6190  0.00  0.00     0.000 C
ATOM     21  C4  SGN C   2     133.950  46.154  62.5600  0.00  0.00     0.000 C
ATOM     22  C5  SGN C   2     133.889  47.417  61.7050  0.00  0.00     0.000 C
ATOM     23  O5  SGN C   2     133.617  48.562  62.5450  0.00  0.00     0.000 O
ATOM     24   O  SGN C   2     135.096  45.185  64.4640  0.00  0.00     0.000 O
ATOM     26  HD  SGN C   2     135.333  45.703  63.8120  0.00  0.00     0.000 HD
BRANCH 19 28
ATOM     26   N  SGN C   2     135.459  48.177  65.6030  0.00  0.00     0.000 N
ATOM     28  HD  SGN C   2     134.958  48.820  65.3080  0.00  0.00     0.000 HD
ATOM     28   O  SGN C   2     136.471  47.906  67.8660  0.00  0.00     0.000 OA
ATOM     29   S  SGN C   2     135.099  47.791  67.1220  0.00  0.00     0.000 S
ATOM     30   O  SGN C   2     134.230  48.788  67.6200  0.00  0.00     0.000 OA
ATOM     31   O  SGN C   2     134.687  46.430  67.1350  0.00  0.00     0.000 OA
ENDBRANCH 19 28
BRANCH 22 32
ATOM     32   C  SGN C   2     132.804  47.378  60.6570  0.00  0.00     0.000 C
ATOM     33   S  SGN C   2     131.786  48.923  58.8630  0.00  0.00     0.000 S
ATOM     34   O  SGN C   2     131.045  49.682  59.8390  0.00  0.00     0.000 OA
ATOM     35   O  SGN C   2     132.340  49.732  57.7970  0.00  0.00     0.000 OA
ATOM     36   O  SGN C   2     131.103  47.742  58.3920  0.00  0.00     0.000 OA
ATOM     37   O  SGN C   2     133.055  48.382  59.6670  0.00  0.00     0.000 O
ENDBRANCH 22 32
BRANCH 18 38
ATOM     38  O4  IDS C   3     135.523  49.527  62.9030  0.00  0.00     0.000 O
BRANCH 38 42
ATOM     39  C1  IDS C   3     138.568  50.809  61.8020  0.00  0.00     0.000 C
ATOM     40  C2  IDS C   3     138.350  50.443  63.2790  0.00  0.00     0.000 C
ATOM     41  C3  IDS C   3     137.090  51.106  63.8330  0.00  0.00     0.000 C
ATOM     42  C4  IDS C   3     135.905  50.907  62.8980  0.00  0.00     0.000 C
ATOM     43  C5  IDS C   3     136.287  51.338  61.4760  0.00  0.00     0.000 C
ATOM     44  O5  IDS C   3     137.400  50.561  61.0360  0.00  0.00     0.000 O
ATOM     45   O  IDS C   3     137.331  52.503  64.0140  0.00  0.00     0.000 O
ATOM     47  HD  IDS C   3     137.600  53.149  63.5040  0.00  0.00     0.000 HD
BRANCH 40 47
ATOM     47   O  IDS C   3     138.187  48.978  63.4330  0.00  0.00     0.000 O
ATOM     48   S  IDS C   3     138.897  48.222  64.6500  0.00  0.00     0.000 S
ATOM     49   O  IDS C   3     140.292  48.101  64.2830  0.00  0.00     0.000 OA
ATOM     50   O  IDS C   3     138.235  46.939  64.7390  0.00  0.00     0.000 OA
ATOM     51   O  IDS C   3     138.696  49.045  65.8130  0.00  0.00     0.000 OA
ENDBRANCH 40 47
BRANCH 43 52
ATOM     52   C  IDS C   3     135.147  51.193  60.4940  0.00  0.00     0.000 C
ATOM     53   O  IDS C   3     135.341  50.681  59.4150  0.00  0.00     0.000 OA
ATOM     54   O  IDS C   3     134.048  51.589  60.7910  0.00  0.00     0.000 OA
ENDBRANCH 43 52
BRANCH 39 55
ATOM     55  O4  SGN C   4     139.265  51.872  61.3990  0.00  0.00     0.000 O
BRANCH 55 59
ATOM     56  C1  SGN C   4     140.665  51.724  57.4590  0.00  0.00     0.000 C
ATOM     57  C2  SGN C   4     141.564  51.087  58.5330  0.00  0.00     0.000 C
ATOM     58  C3  SGN C   4     140.784  50.854  59.8240  0.00  0.00     0.000 C
ATOM     59  C4  SGN C   4     140.070  52.129  60.2570  0.00  0.00     0.000 C
ATOM     60  C5  SGN C   4     139.196  52.619  59.1040  0.00  0.00     0.000 C
ATOM     61  O5  SGN C   4     140.049  52.893  57.9750  0.00  0.00     0.000 O
ATOM     62   O  SGN C   4     141.670  50.405  60.8410  0.00  0.00     0.000 O
ATOM     64  HD  SGN C   4     142.033  50.135  60.1020  0.00  0.00     0.000 HD
BRANCH 57 66
ATOM     64   N  SGN C   4     142.093  49.992  57.7030  0.00  0.00     0.000 N
ATOM     66  HD  SGN C   4     142.592  49.927  56.9980  0.00  0.00     0.000 HD
ATOM     66   S  SGN C   4     143.658  49.875  57.4150  0.00  0.00     0.000 S
ATOM     67   O  SGN C   4     143.849  48.771  56.5460  0.00  0.00     0.000 OA
ATOM     68   O  SGN C   4     144.105  51.165  57.0150  0.00  0.00     0.000 OA
ATOM     69   O  SGN C   4     144.269  49.545  58.8140  0.00  0.00     0.000 OA
ENDBRANCH 57 66
BRANCH 60 70
ATOM     70   C  SGN C   4     138.423  53.882  59.4170  0.00  0.00     0.000 C
ATOM     71   O  SGN C   4     137.780  56.766  57.0980  0.00  0.00     0.000 OA
ATOM     72   O  SGN C   4     136.255  54.988  57.6980  0.00  0.00     0.000 OA
ATOM     73   O  SGN C   4     138.569  54.840  58.3510  0.00  0.00     0.000 O
ATOM     74   S  SGN C   4     137.344  55.840  58.1180  0.00  0.00     0.000 S
ATOM     75   O  SGN C   4     137.124  56.464  59.4080  0.00  0.00     0.000 OA
ENDBRANCH 60 70
BRANCH 56 76
ATOM     76  O4  IDS C   5     139.895  51.268  56.4550  0.00  0.00     0.000 O
BRANCH 76 80
ATOM     77  C1  IDS C   5     136.949  51.031  53.6400  0.00  0.00     0.000 C
ATOM     78  C2  IDS C   5     136.473  51.482  55.0200  0.00  0.00     0.000 C
ATOM     79  C3  IDS C   5     137.655  51.955  55.8430  0.00  0.00     0.000 C
ATOM     80  C4  IDS C   5     138.587  50.779  56.1200  0.00  0.00     0.000 C
ATOM     81  C5  IDS C   5     138.652  49.878  54.8790  0.00  0.00     0.000 C
ATOM     82  O5  IDS C   5     138.314  50.619  53.7020  0.00  0.00     0.000 O
BRANCH 78 83
ATOM     83   O  IDS C   5     135.507  52.600  54.9020  0.00  0.00     0.000 O
ATOM     84   S  IDS C   5     134.035  52.442  55.4960  0.00  0.00     0.000 S
ATOM     85   O  IDS C   5     133.546  51.179  55.0110  0.00  0.00     0.000 OA
ATOM     86   O  IDS C   5     134.200  52.474  56.9300  0.00  0.00     0.000 OA
ATOM     87   O  IDS C   5     133.289  53.571  54.9970  0.00  0.00     0.000 OA
ENDBRANCH 78 83
BRANCH 81 88
ATOM     88   C  IDS C   5     140.013  49.247  54.6470  0.00  0.00     0.000 C
ATOM     89   O  IDS C   5     140.705  49.631  53.7420  0.00  0.00     0.000 OA
ATOM     90   O  IDS C   5     140.394  48.360  55.3760  0.00  0.00     0.000 OA
ENDBRANCH 81 88
ENDBRANCH 76 80
ENDBRANCH 56 76
ENDBRANCH 55 59
ENDBRANCH 39 55
ENDBRANCH 38 42
ENDBRANCH 18 38
ENDBRANCH 17 21
ENDBRANCH 1 17
TORSDOF 18
ENDMDL
MODEL 46
REMARK VINA RESULT:      -7.5     20.977     25.182
ROOT
ATOM      1  C1  IDS C   1     159.607  34.263  51.9400  0.00  0.00     0.000 C
ATOM      2  C2  IDS C   1     158.767  33.152  51.3040  0.00  0.00     0.000 C
ATOM      3  C3  IDS C   1     157.304  33.564  51.2160  0.00  0.00     0.000 C
ATOM      4  C4  IDS C   1     156.752  33.883  52.5980  0.00  0.00     0.000 C
ATOM      5  C5  IDS C   1     157.801  34.622  53.4230  0.00  0.00     0.000 C
ATOM      6  O5  IDS C   1     158.766  35.226  52.5630  0.00  0.00     0.000 O
ATOM      7   O  IDS C   1     156.539  32.511  50.6130  0.00  0.00     0.000 O
ATOM      9  HD  IDS C   1     157.024  32.139  49.9990  0.00  0.00     0.000 HD
ENDROOT
BRANCH 2 9
ATOM      9   O  IDS C   1     159.232  32.861  49.9290  0.00  0.00     0.000 O
ATOM     10   S  IDS C   1     159.637  31.369  49.5380  0.00  0.00     0.000 S
ATOM     11   O  IDS C   1     160.027  31.416  48.1470  0.00  0.00     0.000 OA
ATOM     12   O  IDS C   1     160.732  31.019  50.4190  0.00  0.00     0.000 OA
ATOM     13   O  IDS C   1     158.455  30.567  49.7630  0.00  0.00     0.000 OA
ENDBRANCH 2 9
BRANCH 5 14
ATOM     14   C  IDS C   1     157.187  35.705  54.2940  0.00  0.00     0.000 C
ATOM     15   O  IDS C   1     155.994  35.886  54.2620  0.00  0.00     0.000 OA
ATOM     16   O  IDS C   1     157.902  36.382  55.0130  0.00  0.00     0.000 OA
ENDBRANCH 5 14
BRANCH 1 17
ATOM     17  O4  SGN C   2     160.806  34.626  51.4750  0.00  0.00     0.000 O
BRANCH 17 21
ATOM     18  C1  SGN C   2     163.524  37.273  49.7060  0.00  0.00     0.000 C
ATOM     19  C2  SGN C   2     162.185  37.866  50.1620  0.00  0.00     0.000 C
ATOM     20  C3  SGN C   2     161.500  36.908  51.1430  0.00  0.00     0.000 C
ATOM     21  C4  SGN C   2     161.384  35.519  50.5260  0.00  0.00     0.000 C
ATOM     22  C5  SGN C   2     162.774  35.037  50.1200  0.00  0.00     0.000 C
ATOM     23  O5  SGN C   2     163.360  35.971  49.1840  0.00  0.00     0.000 O
ATOM     24   O  SGN C   2     160.224  37.413  51.4990  0.00  0.00     0.000 O
ATOM     26  HD  SGN C   2     160.994  37.041  51.6300  0.00  0.00     0.000 HD
BRANCH 19 28
ATOM     26   N  SGN C   2     162.492  39.303  50.1810  0.00  0.00     0.000 N
ATOM     28  HD  SGN C   2     162.921  39.011  49.4880  0.00  0.00     0.000 HD
ATOM     28   O  SGN C   2     161.773  41.635  50.6980  0.00  0.00     0.000 OA
ATOM     29   S  SGN C   2     161.406  40.419  49.7820  0.00  0.00     0.000 S
ATOM     30   O  SGN C   2     161.641  40.780  48.4370  0.00  0.00     0.000 OA
ATOM     31   O  SGN C   2     160.126  39.932  50.1660  0.00  0.00     0.000 OA
ENDBRANCH 19 28
BRANCH 22 32
ATOM     32   C  SGN C   2     162.765  33.689  49.4420  0.00  0.00     0.000 C
ATOM     33   S  SGN C   2     163.468  32.645  47.1930  0.00  0.00     0.000 S
ATOM     34   O  SGN C   2     162.319  33.181  46.5070  0.00  0.00     0.000 OA
ATOM     35   O  SGN C   2     164.682  32.673  46.4030  0.00  0.00     0.000 OA
ATOM     36   O  SGN C   2     163.230  31.374  47.8360  0.00  0.00     0.000 OA
ATOM     37   O  SGN C   2     163.731  33.675  48.3840  0.00  0.00     0.000 O
ENDBRANCH 22 32
BRANCH 18 38
ATOM     38  O4  IDS C   3     164.703  37.226  50.3300  0.00  0.00     0.000 O
BRANCH 38 42
ATOM     39  C1  IDS C   3     167.972  37.561  51.4830  0.00  0.00     0.000 C
ATOM     40  C2  IDS C   3     167.419  36.192  51.0590  0.00  0.00     0.000 C
ATOM     41  C3  IDS C   3     166.100  35.885  51.7670  0.00  0.00     0.000 C
ATOM     42  C4  IDS C   3     165.142  37.065  51.6830  0.00  0.00     0.000 C
ATOM     43  C5  IDS C   3     165.846  38.341  52.1600  0.00  0.00     0.000 C
ATOM     44  O5  IDS C   3     166.991  38.575  51.3420  0.00  0.00     0.000 O
ATOM     45   O  IDS C   3     166.360  35.571  53.1370  0.00  0.00     0.000 O
ATOM     47  HD  IDS C   3     166.765  35.971  53.7900  0.00  0.00     0.000 HD
BRANCH 40 47
ATOM     47   O  IDS C   3     167.157  36.166  49.6000  0.00  0.00     0.000 O
ATOM     48   S  IDS C   3     167.436  34.830  48.7650  0.00  0.00     0.000 S
ATOM     49   O  IDS C   3     168.870  34.769  48.5820  0.00  0.00     0.000 OA
ATOM     50   O  IDS C   3     166.727  35.007  47.5170  0.00  0.00     0.000 OA
ATOM     51   O  IDS C   3     166.927  33.742  49.5560  0.00  0.00     0.000 OA
ENDBRANCH 40 47
BRANCH 43 52
ATOM     52   C  IDS C   3     164.944  39.555  52.1310  0.00  0.00     0.000 C
ATOM     53   O  IDS C   3     163.987  39.612  52.8690  0.00  0.00     0.000 OA
ATOM     54   O  IDS C   3     165.184  40.459  51.3720  0.00  0.00     0.000 OA
ENDBRANCH 43 52
BRANCH 39 55
ATOM     55  O4  SGN C   4     168.790  37.738  52.5210  0.00  0.00     0.000 O
BRANCH 55 59
ATOM     56  C1  SGN C   4     172.424  37.201  54.5230  0.00  0.00     0.000 C
ATOM     57  C2  SGN C   4     172.502  37.780  53.1000  0.00  0.00     0.000 C
ATOM     58  C3  SGN C   4     171.136  38.289  52.6470  0.00  0.00     0.000 C
ATOM     59  C4  SGN C   4     170.071  37.217  52.8480  0.00  0.00     0.000 C
ATOM     60  C5  SGN C   4     170.094  36.770  54.3080  0.00  0.00     0.000 C
ATOM     61  O5  SGN C   4     171.397  36.225  54.5940  0.00  0.00     0.000 O
ATOM     62   O  SGN C   4     171.203  38.680  51.2820  0.00  0.00     0.000 O
ATOM     64  HD  SGN C   4     172.007  38.798  51.5810  0.00  0.00     0.000 HD
BRANCH 57 66
ATOM     64   N  SGN C   4     173.927  37.808  53.4700  0.00  0.00     0.000 N
ATOM     66  HD  SGN C   4     174.672  37.557  53.1060  0.00  0.00     0.000 HD
ATOM     66   S  SGN C   4     175.005  38.467  52.4960  0.00  0.00     0.000 S
ATOM     67   O  SGN C   4     176.280  38.287  53.0890  0.00  0.00     0.000 OA
ATOM     68   O  SGN C   4     174.761  37.950  51.1930  0.00  0.00     0.000 OA
ATOM     69   O  SGN C   4     174.637  39.985  52.5090  0.00  0.00     0.000 OA
ENDBRANCH 57 66
BRANCH 60 70
ATOM     70   C  SGN C   4     169.067  35.708  54.6370  0.00  0.00     0.000 C
ATOM     71   O  SGN C   4     169.439  31.996  54.1950  0.00  0.00     0.000 OA
ATOM     72   O  SGN C   4     169.641  33.264  56.2440  0.00  0.00     0.000 OA
ATOM     73   O  SGN C   4     169.490  34.424  54.1380  0.00  0.00     0.000 O
ATOM     74   S  SGN C   4     168.997  33.142  54.9560  0.00  0.00     0.000 S
ATOM     75   O  SGN C   4     167.555  33.274  55.0170  0.00  0.00     0.000 OA
ENDBRANCH 60 70
BRANCH 56 76
ATOM     76  O4  IDS C   5     172.620  37.676  55.7670  0.00  0.00     0.000 O
BRANCH 76 80
ATOM     77  C1  IDS C   5     169.388  38.748  58.0170  0.00  0.00     0.000 C
ATOM     78  C2  IDS C   5     170.083  39.911  57.3110  0.00  0.00     0.000 C
ATOM     79  C3  IDS C   5     170.956  39.384  56.1890  0.00  0.00     0.000 C
ATOM     80  C4  IDS C   5     172.093  38.552  56.7750  0.00  0.00     0.000 C
ATOM     81  C5  IDS C   5     171.568  37.743  57.9690  0.00  0.00     0.000 C
ATOM     82  O5  IDS C   5     170.154  37.553  57.8640  0.00  0.00     0.000 O
BRANCH 78 83
ATOM     83   O  IDS C   5     169.086  40.842  56.7310  0.00  0.00     0.000 O
ATOM     84   S  IDS C   5     167.653  40.297  56.2920  0.00  0.00     0.000 S
ATOM     85   O  IDS C   5     167.902  39.122  55.5000  0.00  0.00     0.000 OA
ATOM     86   O  IDS C   5     166.962  40.012  57.5270  0.00  0.00     0.000 OA
ATOM     87   O  IDS C   5     167.039  41.367  55.5450  0.00  0.00     0.000 OA
ENDBRANCH 78 83
BRANCH 81 88
ATOM     88   C  IDS C   5     172.204  36.372  58.1110  0.00  0.00     0.000 C
ATOM     89   O  IDS C   5     173.280  36.263  58.6340  0.00  0.00     0.000 OA
ATOM     90   O  IDS C   5     171.622  35.396  57.6960  0.00  0.00     0.000 OA
ENDBRANCH 81 88
ENDBRANCH 76 80
ENDBRANCH 56 76
ENDBRANCH 55 59
ENDBRANCH 39 55
ENDBRANCH 38 42
ENDBRANCH 18 38
ENDBRANCH 17 21
ENDBRANCH 1 17
TORSDOF 18
ENDMDL
MODEL 47
REMARK VINA RESULT:      -7.5     19.891     26.414
ROOT
ATOM      1  C1  IDS C   1     169.250  33.942  54.5950  0.00  0.00     0.000 C
ATOM      2  C2  IDS C   1     170.218  34.712  55.4970  0.00  0.00     0.000 C
ATOM      3  C3  IDS C   1     171.425  33.855  55.8510  0.00  0.00     0.000 C
ATOM      4  C4  IDS C   1     170.989  32.578  56.5550  0.00  0.00     0.000 C
ATOM      5  C5  IDS C   1     169.713  32.037  55.9170  0.00  0.00     0.000 C
ATOM      6  O5  IDS C   1     169.567  32.556  54.5950  0.00  0.00     0.000 O
ATOM      7   O  IDS C   1     172.318  34.598  56.6920  0.00  0.00     0.000 O
ATOM      9  HD  IDS C   1     172.311  35.425  56.4330  0.00  0.00     0.000 HD
ENDROOT
BRANCH 2 9
ATOM      9   O  IDS C   1     170.718  35.928  54.8180  0.00  0.00     0.000 O
ATOM     10   S  IDS C   1     170.459  37.357  55.4780  0.00  0.00     0.000 S
ATOM     11   O  IDS C   1     171.073  38.320  54.5910  0.00  0.00     0.000 OA
ATOM     12   O  IDS C   1     169.019  37.496  55.5520  0.00  0.00     0.000 OA
ATOM     13   O  IDS C   1     171.088  37.310  56.7790  0.00  0.00     0.000 OA
ENDBRANCH 2 9
BRANCH 5 14
ATOM     14   C  IDS C   1     169.708  30.520  55.8420  0.00  0.00     0.000 C
ATOM     15   O  IDS C   1     169.171  29.884  56.7160  0.00  0.00     0.000 OA
ATOM     16   O  IDS C   1     170.247  29.958  54.9040  0.00  0.00     0.000 OA
ENDBRANCH 5 14
BRANCH 1 17
ATOM     17  O4  SGN C   2     168.655  34.489  53.5310  0.00  0.00     0.000 O
BRANCH 17 21
ATOM     18  C1  SGN C   2     168.402  35.214  49.4150  0.00  0.00     0.000 C
ATOM     19  C2  SGN C   2     169.560  34.325  49.8860  0.00  0.00     0.000 C
ATOM     20  C3  SGN C   2     169.279  33.814  51.3050  0.00  0.00     0.000 C
ATOM     21  C4  SGN C   2     168.979  34.985  52.2340  0.00  0.00     0.000 C
ATOM     22  C5  SGN C   2     167.812  35.787  51.6640  0.00  0.00     0.000 C
ATOM     23  O5  SGN C   2     168.143  36.253  50.3360  0.00  0.00     0.000 O
ATOM     24   O  SGN C   2     170.386  33.064  51.7750  0.00  0.00     0.000 O
ATOM     26  HD  SGN C   2     169.550  33.249  51.6460  0.00  0.00     0.000 HD
BRANCH 19 28
ATOM     26   N  SGN C   2     169.937  33.650  48.6360  0.00  0.00     0.000 N
ATOM     28  HD  SGN C   2     169.679  34.435  48.3770  0.00  0.00     0.000 HD
ATOM     28   O  SGN C   2     171.402  32.020  47.4460  0.00  0.00     0.000 OA
ATOM     29   S  SGN C   2     171.469  33.367  48.2420  0.00  0.00     0.000 S
ATOM     30   O  SGN C   2     171.878  34.392  47.3600  0.00  0.00     0.000 OA
ATOM     31   O  SGN C   2     172.192  33.146  49.4460  0.00  0.00     0.000 OA
ENDBRANCH 19 28
BRANCH 22 32
ATOM     32   C  SGN C   2     167.470  37.008  52.4820  0.00  0.00     0.000 C
ATOM     33   S  SGN C   2     165.965  39.093  52.3140  0.00  0.00     0.000 S
ATOM     34   O  SGN C   2     166.864  39.753  51.4020  0.00  0.00     0.000 OA
ATOM     35   O  SGN C   2     164.566  39.305  52.0060  0.00  0.00     0.000 OA
ATOM     36   O  SGN C   2     166.284  39.298  53.7080  0.00  0.00     0.000 OA
ATOM     37   O  SGN C   2     166.210  37.538  52.0520  0.00  0.00     0.000 O
ENDBRANCH 22 32
BRANCH 18 38
ATOM     38  O4  IDS C   3     167.196  34.884  48.9510  0.00  0.00     0.000 O
BRANCH 38 42
ATOM     39  C1  IDS C   3     163.978  34.657  47.6390  0.00  0.00     0.000 C
ATOM     40  C2  IDS C   3     164.229  35.300  49.0120  0.00  0.00     0.000 C
ATOM     41  C3  IDS C   3     165.045  34.375  49.9150  0.00  0.00     0.000 C
ATOM     42  C4  IDS C   3     166.262  33.824  49.1840  0.00  0.00     0.000 C
ATOM     43  C5  IDS C   3     165.830  33.204  47.8500  0.00  0.00     0.000 C
ATOM     44  O5  IDS C   3     165.188  34.202  47.0570  0.00  0.00     0.000 O
ATOM     45   O  IDS C   3     164.218  33.296  50.3560  0.00  0.00     0.000 O
ATOM     47  HD  IDS C   3     163.734  32.695  49.9630  0.00  0.00     0.000 HD
BRANCH 40 47
ATOM     47   O  IDS C   3     164.992  36.562  48.8630  0.00  0.00     0.000 O
ATOM     48   S  IDS C   3     164.241  37.897  48.4050  0.00  0.00     0.000 S
ATOM     49   O  IDS C   3     164.035  37.768  46.9790  0.00  0.00     0.000 OA
ATOM     50   O  IDS C   3     165.145  38.976  48.7380  0.00  0.00     0.000 OA
ATOM     51   O  IDS C   3     163.007  37.943  49.1440  0.00  0.00     0.000 OA
ENDBRANCH 40 47
BRANCH 43 52
ATOM     52   C  IDS C   3     166.987  32.609  47.0780  0.00  0.00     0.000 C
ATOM     53   O  IDS C   3     167.700  31.785  47.6020  0.00  0.00     0.000 OA
ATOM     54   O  IDS C   3     167.192  32.961  45.9440  0.00  0.00     0.000 OA
ENDBRANCH 43 52
BRANCH 39 55
ATOM     55  O4  SGN C   4     162.922  33.889  47.3650  0.00  0.00     0.000 O
BRANCH 55 59
ATOM     56  C1  SGN C   4     159.420  35.108  49.3030  0.00  0.00     0.000 C
ATOM     57  C2  SGN C   4     159.896  33.672  49.5810  0.00  0.00     0.000 C
ATOM     58  C3  SGN C   4     161.349  33.490  49.1510  0.00  0.00     0.000 C
ATOM     59  C4  SGN C   4     161.548  33.967  47.7170  0.00  0.00     0.000 C
ATOM     60  C5  SGN C   4     161.063  35.411  47.6080  0.00  0.00     0.000 C
ATOM     61  O5  SGN C   4     159.662  35.444  47.9460  0.00  0.00     0.000 O
ATOM     62   O  SGN C   4     161.716  32.123  49.2800  0.00  0.00     0.000 O
ATOM     64  HD  SGN C   4     161.100  32.239  49.8780  0.00  0.00     0.000 HD
BRANCH 57 66
ATOM     64   N  SGN C   4     159.471  33.590  50.9880  0.00  0.00     0.000 N
ATOM     66  HD  SGN C   4     158.718  33.612  51.4160  0.00  0.00     0.000 HD
ATOM     66   S  SGN C   4     158.380  32.518  51.4450  0.00  0.00     0.000 S
ATOM     67   O  SGN C   4     158.136  32.723  52.8260  0.00  0.00     0.000 OA
ATOM     68   O  SGN C   4     157.300  32.605  50.5240  0.00  0.00     0.000 OA
ATOM     69   O  SGN C   4     159.101  31.147  51.2430  0.00  0.00     0.000 OA
ENDBRANCH 57 66
BRANCH 60 70
ATOM     70   C  SGN C   4     161.218  36.004  46.2240  0.00  0.00     0.000 C
ATOM     71   O  SGN C   4     159.208  35.155  43.1670  0.00  0.00     0.000 OA
ATOM     72   O  SGN C   4     158.963  37.085  44.6030  0.00  0.00     0.000 OA
ATOM     73   O  SGN C   4     160.414  35.282  45.2720  0.00  0.00     0.000 O
ATOM     74   S  SGN C   4     159.865  36.116  44.0230  0.00  0.00     0.000 S
ATOM     75   O  SGN C   4     161.045  36.710  43.4260  0.00  0.00     0.000 OA
ENDBRANCH 60 70
BRANCH 56 76
ATOM     76  O4  IDS C   5     159.365  36.256  50.0030  0.00  0.00     0.000 O
BRANCH 76 80
ATOM     77  C1  IDS C   5     157.489  36.169  53.6270  0.00  0.00     0.000 C
ATOM     78  C2  IDS C   5     156.651  36.758  52.4920  0.00  0.00     0.000 C
ATOM     79  C3  IDS C   5     157.237  36.350  51.1550  0.00  0.00     0.000 C
ATOM     80  C4  IDS C   5     158.615  36.984  50.9870  0.00  0.00     0.000 C
ATOM     81  C5  IDS C   5     159.347  36.973  52.3360  0.00  0.00     0.000 C
ATOM     82  O5  IDS C   5     158.827  35.944  53.1820  0.00  0.00     0.000 O
BRANCH 78 83
ATOM     83   O  IDS C   5     155.255  36.265  52.5620  0.00  0.00     0.000 O
ATOM     84   S  IDS C   5     154.060  37.298  52.7830  0.00  0.00     0.000 S
ATOM     85   O  IDS C   5     154.454  38.128  53.8890  0.00  0.00     0.000 OA
ATOM     86   O  IDS C   5     153.951  38.023  51.5390  0.00  0.00     0.000 OA
ATOM     87   O  IDS C   5     152.895  36.494  53.0610  0.00  0.00     0.000 OA
ENDBRANCH 78 83
BRANCH 81 88
ATOM     88   C  IDS C   5     160.845  36.757  52.2220  0.00  0.00     0.000 C
ATOM     89   O  IDS C   5     161.568  37.687  51.9800  0.00  0.00     0.000 OA
ATOM     90   O  IDS C   5     161.304  35.648  52.3760  0.00  0.00     0.000 OA
ENDBRANCH 81 88
ENDBRANCH 76 80
ENDBRANCH 56 76
ENDBRANCH 55 59
ENDBRANCH 39 55
ENDBRANCH 38 42
ENDBRANCH 18 38
ENDBRANCH 17 21
ENDBRANCH 1 17
TORSDOF 18
ENDMDL
MODEL 48
REMARK VINA RESULT:      -7.5     25.989     31.387
ROOT
ATOM      1  C1  IDS C   1     147.409  43.324  70.2410  0.00  0.00     0.000 C
ATOM      2  C2  IDS C   1     146.587  44.574  70.5690  0.00  0.00     0.000 C
ATOM      3  C3  IDS C   1     146.265  45.357  69.3050  0.00  0.00     0.000 C
ATOM      4  C4  IDS C   1     147.544  45.770  68.5890  0.00  0.00     0.000 C
ATOM      5  C5  IDS C   1     148.571  44.644  68.6600  0.00  0.00     0.000 C
ATOM      6  O5  IDS C   1     147.919  43.400  68.9160  0.00  0.00     0.000 O
ATOM      7   O  IDS C   1     145.492  46.519  69.6370  0.00  0.00     0.000 O
ATOM      9  HD  IDS C   1     144.956  46.312  70.2840  0.00  0.00     0.000 HD
ENDROOT
BRANCH 2 9
ATOM      9   O  IDS C   1     145.302  44.207  71.2060  0.00  0.00     0.000 O
ATOM     10   S  IDS C   1     144.920  44.839  72.6190  0.00  0.00     0.000 S
ATOM     11   O  IDS C   1     143.620  44.301  72.9560  0.00  0.00     0.000 OA
ATOM     12   O  IDS C   1     145.960  44.412  73.5320  0.00  0.00     0.000 OA
ATOM     13   O  IDS C   1     144.898  46.271  72.4190  0.00  0.00     0.000 OA
ENDBRANCH 2 9
BRANCH 5 14
ATOM     14   C  IDS C   1     149.369  44.514  67.3740  0.00  0.00     0.000 C
ATOM     15   O  IDS C   1     150.420  43.921  67.3850  0.00  0.00     0.000 OA
ATOM     16   O  IDS C   1     148.944  45.011  66.3450  0.00  0.00     0.000 OA
ENDBRANCH 5 14
BRANCH 1 17
ATOM     17  O4  SGN C   2     147.175  42.132  70.7980  0.00  0.00     0.000 O
BRANCH 17 21
ATOM     18  C1  SGN C   2     146.004  38.113  70.7770  0.00  0.00     0.000 C
ATOM     19  C2  SGN C   2     146.258  38.761  69.4110  0.00  0.00     0.000 C
ATOM     20  C3  SGN C   2     147.067  40.052  69.5900  0.00  0.00     0.000 C
ATOM     21  C4  SGN C   2     146.377  40.969  70.5930  0.00  0.00     0.000 C
ATOM     22  C5  SGN C   2     146.186  40.216  71.9070  0.00  0.00     0.000 C
ATOM     23  O5  SGN C   2     145.404  39.022  71.6760  0.00  0.00     0.000 O
ATOM     24   O  SGN C   2     147.228  40.698  68.3380  0.00  0.00     0.000 O
ATOM     26  HD  SGN C   2     147.469  40.406  69.1170  0.00  0.00     0.000 HD
BRANCH 19 28
ATOM     26   N  SGN C   2     146.277  37.602  68.5080  0.00  0.00     0.000 N
ATOM     28  HD  SGN C   2     145.548  37.497  68.9630  0.00  0.00     0.000 HD
ATOM     28   O  SGN C   2     146.888  36.627  66.2950  0.00  0.00     0.000 OA
ATOM     29   S  SGN C   2     145.984  37.734  66.9330  0.00  0.00     0.000 S
ATOM     30   O  SGN C   2     144.630  37.389  66.7220  0.00  0.00     0.000 OA
ATOM     31   O  SGN C   2     146.459  39.006  66.5110  0.00  0.00     0.000 OA
ENDBRANCH 19 28
BRANCH 22 32
ATOM     32   C  SGN C   2     145.456  41.019  72.9560  0.00  0.00     0.000 C
ATOM     33   S  SGN C   2     143.304  40.866  74.3640  0.00  0.00     0.000 S
ATOM     34   O  SGN C   2     142.468  41.247  73.2540  0.00  0.00     0.000 OA
ATOM     35   O  SGN C   2     142.720  39.842  75.2060  0.00  0.00     0.000 OA
ATOM     36   O  SGN C   2     143.843  41.981  75.1060  0.00  0.00     0.000 OA
ATOM     37   O  SGN C   2     144.566  40.165  73.6840  0.00  0.00     0.000 O
ENDBRANCH 22 32
BRANCH 18 38
ATOM     38  O4  IDS C   3     146.813  37.381  71.5470  0.00  0.00     0.000 O
BRANCH 38 42
ATOM     39  C1  IDS C   3     149.576  36.248  73.3390  0.00  0.00     0.000 C
ATOM     40  C2  IDS C   3     149.735  36.843  71.9310  0.00  0.00     0.000 C
ATOM     41  C3  IDS C   3     148.799  36.160  70.9340  0.00  0.00     0.000 C
ATOM     42  C4  IDS C   3     147.382  36.069  71.4810  0.00  0.00     0.000 C
ATOM     43  C5  IDS C   3     147.404  35.438  72.8790  0.00  0.00     0.000 C
ATOM     44  O5  IDS C   3     148.215  36.236  73.7390  0.00  0.00     0.000 O
ATOM     45   O  IDS C   3     149.290  34.849  70.6460  0.00  0.00     0.000 O
ATOM     47  HD  IDS C   3     149.497  34.155  71.1210  0.00  0.00     0.000 HD
BRANCH 40 47
ATOM     47   O  IDS C   3     149.402  38.287  71.9350  0.00  0.00     0.000 O
ATOM     48   S  IDS C   3     150.551  39.367  72.2020  0.00  0.00     0.000 S
ATOM     49   O  IDS C   3     150.794  39.344  73.6280  0.00  0.00     0.000 OA
ATOM     50   O  IDS C   3     150.000  40.628  71.7550  0.00  0.00     0.000 OA
ATOM     51   O  IDS C   3     151.693  38.945  71.4350  0.00  0.00     0.000 OA
ENDBRANCH 40 47
BRANCH 43 52
ATOM     52   C  IDS C   3     146.023  35.290  73.4770  0.00  0.00     0.000 C
ATOM     53   O  IDS C   3     145.484  36.241  73.9940  0.00  0.00     0.000 OA
ATOM     54   O  IDS C   3     145.465  34.223  73.4350  0.00  0.00     0.000 OA
ENDBRANCH 43 52
BRANCH 39 55
ATOM     55  O4  SGN C   4     150.282  35.210  73.7870  0.00  0.00     0.000 O
BRANCH 55 59
ATOM     56  C1  SGN C   4     150.204  34.360  77.8830  0.00  0.00     0.000 C
ATOM     57  C2  SGN C   4     151.028  35.585  77.4500  0.00  0.00     0.000 C
ATOM     58  C3  SGN C   4     150.661  36.011  76.0310  0.00  0.00     0.000 C
ATOM     59  C4  SGN C   4     150.726  34.822  75.0790  0.00  0.00     0.000 C
ATOM     60  C5  SGN C   4     149.836  33.707  75.6240  0.00  0.00     0.000 C
ATOM     61  O5  SGN C   4     150.333  33.325  76.9210  0.00  0.00     0.000 O
ATOM     62   O  SGN C   4     151.537  37.045  75.6030  0.00  0.00     0.000 O
ATOM     64  HD  SGN C   4     151.505  37.131  76.4650  0.00  0.00     0.000 HD
BRANCH 57 66
ATOM     64   N  SGN C   4     151.006  36.788  78.2970  0.00  0.00     0.000 N
ATOM     66  HD  SGN C   4     150.898  36.958  79.1390  0.00  0.00     0.000 HD
ATOM     66   S  SGN C   4     151.955  36.898  79.5750  0.00  0.00     0.000 S
ATOM     67   O  SGN C   4     151.666  38.130  80.2150  0.00  0.00     0.000 OA
ATOM     68   O  SGN C   4     151.818  35.684  80.3020  0.00  0.00     0.000 OA
ATOM     69   O  SGN C   4     153.393  36.956  78.9660  0.00  0.00     0.000 OA
ENDBRANCH 57 66
BRANCH 60 70
ATOM     70   C  SGN C   4     149.809  32.468  74.7550  0.00  0.00     0.000 C
ATOM     71   O  SGN C   4     148.772  29.010  75.7910  0.00  0.00     0.000 OA
ATOM     72   O  SGN C   4     147.478  30.625  74.5390  0.00  0.00     0.000 OA
ATOM     73   O  SGN C   4     149.556  31.297  75.5550  0.00  0.00     0.000 O
ATOM     74   S  SGN C   4     148.789  30.093  74.8350  0.00  0.00     0.000 S
ATOM     75   O  SGN C   4     149.576  29.807  73.6520  0.00  0.00     0.000 OA
ENDBRANCH 60 70
BRANCH 56 76
ATOM     76  O4  IDS C   5     149.046  34.163  78.5390  0.00  0.00     0.000 O
BRANCH 76 80
ATOM     77  C1  IDS C   5     145.305  35.301  77.3700  0.00  0.00     0.000 C
ATOM     78  C2  IDS C   5     146.103  36.389  78.0880  0.00  0.00     0.000 C
ATOM     79  C3  IDS C   5     147.577  36.034  78.0820  0.00  0.00     0.000 C
ATOM     80  C4  IDS C   5     147.802  34.775  78.9140  0.00  0.00     0.000 C
ATOM     81  C5  IDS C   5     146.637  33.801  78.6900  0.00  0.00     0.000 C
ATOM     82  O5  IDS C   5     146.003  34.057  77.4330  0.00  0.00     0.000 O
BRANCH 78 83
ATOM     83   O  IDS C   5     145.933  37.696  77.4110  0.00  0.00     0.000 O
ATOM     84   S  IDS C   5     145.631  39.002  78.2750  0.00  0.00     0.000 S
ATOM     85   O  IDS C   5     144.558  38.648  79.1650  0.00  0.00     0.000 OA
ATOM     86   O  IDS C   5     146.866  39.295  78.9630  0.00  0.00     0.000 OA
ATOM     87   O  IDS C   5     145.268  40.024  77.3240  0.00  0.00     0.000 OA
ENDBRANCH 78 83
BRANCH 81 88
ATOM     88   C  IDS C   5     147.044  32.339  78.7070  0.00  0.00     0.000 C
ATOM     89   O  IDS C   5     147.150  31.735  77.6740  0.00  0.00     0.000 OA
ATOM     90   O  IDS C   5     147.260  31.790  79.7630  0.00  0.00     0.000 OA
ENDBRANCH 81 88
ENDBRANCH 76 80
ENDBRANCH 56 76
ENDBRANCH 55 59
ENDBRANCH 39 55
ENDBRANCH 38 42
ENDBRANCH 18 38
ENDBRANCH 17 21
ENDBRANCH 1 17
TORSDOF 18
ENDMDL
MODEL 49
REMARK VINA RESULT:      -7.4     25.011     33.665
ROOT
ATOM      1  C1  IDS C   1     149.240  33.877  72.7360  0.00  0.00     0.000 C
ATOM      2  C2  IDS C   1     148.545  33.187  73.9140  0.00  0.00     0.000 C
ATOM      3  C3  IDS C   1     149.559  32.482  74.8020  0.00  0.00     0.000 C
ATOM      4  C4  IDS C   1     150.342  31.447  74.0050  0.00  0.00     0.000 C
ATOM      5  C5  IDS C   1     150.653  31.985  72.6120  0.00  0.00     0.000 C
ATOM      6  O5  IDS C   1     150.577  33.410  72.6080  0.00  0.00     0.000 O
ATOM      7   O  IDS C   1     148.885  31.848  75.8990  0.00  0.00     0.000 O
ATOM      9  HD  IDS C   1     148.227  32.355  76.1440  0.00  0.00     0.000 HD
ENDROOT
BRANCH 2 9
ATOM      9   O  IDS C   1     147.827  34.174  74.7520  0.00  0.00     0.000 O
ATOM     10   S  IDS C   1     146.268  33.980  75.0290  0.00  0.00     0.000 S
ATOM     11   O  IDS C   1     145.877  35.083  75.8780  0.00  0.00     0.000 OA
ATOM     12   O  IDS C   1     145.634  34.018  73.7270  0.00  0.00     0.000 OA
ATOM     13   O  IDS C   1     146.139  32.696  75.6820  0.00  0.00     0.000 OA
ENDBRANCH 2 9
BRANCH 5 14
ATOM     14   C  IDS C   1     152.035  31.575  72.1350  0.00  0.00     0.000 C
ATOM     15   O  IDS C   1     152.860  32.425  71.9040  0.00  0.00     0.000 OA
ATOM     16   O  IDS C   1     152.299  30.393  71.9870  0.00  0.00     0.000 OA
ENDBRANCH 5 14
BRANCH 1 17
ATOM     17  O4  SGN C   2     148.919  35.105  72.3190  0.00  0.00     0.000 O
BRANCH 17 21
ATOM     18  C1  SGN C   2     149.599  39.184  71.6650  0.00  0.00     0.000 C
ATOM     19  C2  SGN C   2     150.829  38.325  71.9840  0.00  0.00     0.000 C
ATOM     20  C3  SGN C   2     150.496  36.842  71.7760  0.00  0.00     0.000 C
ATOM     21  C4  SGN C   2     149.253  36.467  72.5750  0.00  0.00     0.000 C
ATOM     22  C5  SGN C   2     148.103  37.383  72.1680  0.00  0.00     0.000 C
ATOM     23  O5  SGN C   2     148.471  38.762  72.4020  0.00  0.00     0.000 O
ATOM     24   O  SGN C   2     151.603  36.041  72.1530  0.00  0.00     0.000 O
ATOM     26  HD  SGN C   2     150.933  36.289  71.6630  0.00  0.00     0.000 HD
BRANCH 19 28
ATOM     26   N  SGN C   2     151.916  39.124  71.4000  0.00  0.00     0.000 N
ATOM     28  HD  SGN C   2     151.280  39.699  71.5240  0.00  0.00     0.000 HD
ATOM     28   O  SGN C   2     154.362  39.538  71.1390  0.00  0.00     0.000 OA
ATOM     29   S  SGN C   2     153.238  39.512  72.2290  0.00  0.00     0.000 S
ATOM     30   O  SGN C   2     153.059  40.822  72.7260  0.00  0.00     0.000 OA
ATOM     31   O  SGN C   2     153.508  38.448  73.1330  0.00  0.00     0.000 OA
ENDBRANCH 19 28
BRANCH 22 32
ATOM     32   C  SGN C   2     146.835  37.133  72.9460  0.00  0.00     0.000 C
ATOM     33   S  SGN C   2     145.095  38.468  74.3000  0.00  0.00     0.000 S
ATOM     34   O  SGN C   2     145.968  38.581  75.4410  0.00  0.00     0.000 OA
ATOM     35   O  SGN C   2     144.318  39.663  74.0430  0.00  0.00     0.000 OA
ATOM     36   O  SGN C   2     144.311  37.256  74.2750  0.00  0.00     0.000 OA
ATOM     37   O  SGN C   2     146.088  38.350  73.0550  0.00  0.00     0.000 O
ENDBRANCH 22 32
BRANCH 18 38
ATOM     38  O4  IDS C   3     149.095  39.564  70.4890  0.00  0.00     0.000 O
BRANCH 38 42
ATOM     39  C1  IDS C   3     145.931  40.856  69.8180  0.00  0.00     0.000 C
ATOM     40  C2  IDS C   3     146.681  40.015  68.7730  0.00  0.00     0.000 C
ATOM     41  C3  IDS C   3     148.090  40.557  68.5350  0.00  0.00     0.000 C
ATOM     42  C4  IDS C   3     148.812  40.814  69.8510  0.00  0.00     0.000 C
ATOM     43  C5  IDS C   3     147.935  41.680  70.7630  0.00  0.00     0.000 C
ATOM     44  O5  IDS C   3     146.700  41.007  71.0000  0.00  0.00     0.000 O
ATOM     45   O  IDS C   3     148.010  41.770  67.7840  0.00  0.00     0.000 O
ATOM     47  HD  IDS C   3     147.598  42.525  67.8840  0.00  0.00     0.000 HD
BRANCH 40 47
ATOM     47   O  IDS C   3     146.816  38.612  69.2330  0.00  0.00     0.000 O
ATOM     48   S  IDS C   3     145.796  37.500  68.7050  0.00  0.00     0.000 S
ATOM     49   O  IDS C   3     144.569  37.702  69.4460  0.00  0.00     0.000 OA
ATOM     50   O  IDS C   3     146.423  36.233  69.0090  0.00  0.00     0.000 OA
ATOM     51   O  IDS C   3     145.639  37.730  67.2940  0.00  0.00     0.000 OA
ENDBRANCH 40 47
BRANCH 43 52
ATOM     52   C  IDS C   3     148.600  42.001  72.0830  0.00  0.00     0.000 C
ATOM     53   O  IDS C   3     149.741  42.402  72.1010  0.00  0.00     0.000 OA
ATOM     54   O  IDS C   3     147.989  41.855  73.1110  0.00  0.00     0.000 OA
ENDBRANCH 43 52
BRANCH 39 55
ATOM     55  O4  SGN C   4     145.188  41.920  69.5150  0.00  0.00     0.000 O
BRANCH 55 59
ATOM     56  C1  SGN C   4     142.273  43.135  72.2590  0.00  0.00     0.000 C
ATOM     57  C2  SGN C   4     141.951  41.886  71.4220  0.00  0.00     0.000 C
ATOM     58  C3  SGN C   4     143.215  41.329  70.7710  0.00  0.00     0.000 C
ATOM     59  C4  SGN C   4     143.964  42.428  70.0260  0.00  0.00     0.000 C
ATOM     60  C5  SGN C   4     144.239  43.578  70.9920  0.00  0.00     0.000 C
ATOM     61  O5  SGN C   4     142.975  44.081  71.4680  0.00  0.00     0.000 O
ATOM     62   O  SGN C   4     142.869  40.270  69.8890  0.00  0.00     0.000 O
ATOM     64  HD  SGN C   4     142.247  40.262  70.4920  0.00  0.00     0.000 HD
BRANCH 57 66
ATOM     64   N  SGN C   4     140.827  41.858  72.3710  0.00  0.00     0.000 N
ATOM     66  HD  SGN C   4     139.963  41.879  72.3180  0.00  0.00     0.000 HD
ATOM     66   S  SGN C   4     139.661  40.779  72.2180  0.00  0.00     0.000 S
ATOM     67   O  SGN C   4     138.704  41.041  73.2300  0.00  0.00     0.000 OA
ATOM     68   O  SGN C   4     139.259  40.792  70.8540  0.00  0.00     0.000 OA
ATOM     69   O  SGN C   4     140.373  39.420  72.5180  0.00  0.00     0.000 OA
ENDBRANCH 57 66
BRANCH 60 70
ATOM     70   C  SGN C   4     144.991  44.733  70.3680  0.00  0.00     0.000 C
ATOM     71   O  SGN C   4     148.696  45.339  70.4850  0.00  0.00     0.000 OA
ATOM     72   O  SGN C   4     147.408  44.427  68.6520  0.00  0.00     0.000 OA
ATOM     73   O  SGN C   4     146.365  44.734  70.8020  0.00  0.00     0.000 O
ATOM     74   S  SGN C   4     147.436  45.334  69.7780  0.00  0.00     0.000 S
ATOM     75   O  SGN C   4     146.945  46.660  69.4620  0.00  0.00     0.000 OA
ENDBRANCH 60 70
BRANCH 56 76
ATOM     76  O4  IDS C   5     142.576  43.378  73.5480  0.00  0.00     0.000 O
BRANCH 76 80
ATOM     77  C1  IDS C   5     144.102  44.558  77.1450  0.00  0.00     0.000 C
ATOM     78  C2  IDS C   5     145.149  44.334  76.0540  0.00  0.00     0.000 C
ATOM     79  C3  IDS C   5     144.483  44.337  74.6920  0.00  0.00     0.000 C
ATOM     80  C4  IDS C   5     143.544  43.139  74.5800  0.00  0.00     0.000 C
ATOM     81  C5  IDS C   5     142.845  42.912  75.9290  0.00  0.00     0.000 C
ATOM     82  O5  IDS C   5     142.820  44.123  76.6910  0.00  0.00     0.000 O
BRANCH 78 83
ATOM     83   O  IDS C   5     146.170  45.408  76.0790  0.00  0.00     0.000 O
ATOM     84   S  IDS C   5     147.624  45.134  75.4830  0.00  0.00     0.000 S
ATOM     85   O  IDS C   5     148.057  43.887  76.0540  0.00  0.00     0.000 OA
ATOM     86   O  IDS C   5     147.440  45.069  74.0520  0.00  0.00     0.000 OA
ATOM     87   O  IDS C   5     148.431  46.258  75.8890  0.00  0.00     0.000 OA
ENDBRANCH 78 83
BRANCH 81 88
ATOM     88   C  IDS C   5     141.415  42.419  75.8060  0.00  0.00     0.000 C
ATOM     89   O  IDS C   5     140.502  43.169  76.0260  0.00  0.00     0.000 OA
ATOM     90   O  IDS C   5     141.203  41.272  75.4850  0.00  0.00     0.000 OA
ENDBRANCH 81 88
ENDBRANCH 76 80
ENDBRANCH 56 76
ENDBRANCH 55 59
ENDBRANCH 39 55
ENDBRANCH 38 42
ENDBRANCH 18 38
ENDBRANCH 17 21
ENDBRANCH 1 17
TORSDOF 18
ENDMDL
MODEL 50
REMARK VINA RESULT:      -7.4     27.107     29.833
ROOT
ATOM      1  C1  IDS C   1     146.217  20.423  84.4840  0.00  0.00     0.000 C
ATOM      2  C2  IDS C   1     147.461  21.310  84.5970  0.00  0.00     0.000 C
ATOM      3  C3  IDS C   1     147.284  22.351  85.6920  0.00  0.00     0.000 C
ATOM      4  C4  IDS C   1     146.069  23.224  85.4130  0.00  0.00     0.000 C
ATOM      5  C5  IDS C   1     144.934  22.375  84.8480  0.00  0.00     0.000 C
ATOM      6  O5  IDS C   1     145.129  21.003  85.1920  0.00  0.00     0.000 O
ATOM      7   O  IDS C   1     148.462  23.165  85.7810  0.00  0.00     0.000 O
ATOM      9  HD  IDS C   1     149.152  22.664  85.6320  0.00  0.00     0.000 HD
ENDROOT
BRANCH 2 9
ATOM      9   O  IDS C   1     148.654  20.503  84.9360  0.00  0.00     0.000 O
ATOM     10   S  IDS C   1     149.807  20.313  83.8500  0.00  0.00     0.000 S
ATOM     11   O  IDS C   1     150.820  19.501  84.4850  0.00  0.00     0.000 OA
ATOM     12   O  IDS C   1     149.177  19.653  82.7250  0.00  0.00     0.000 OA
ATOM     13   O  IDS C   1     150.273  21.645  83.5330  0.00  0.00     0.000 OA
ENDBRANCH 2 9
BRANCH 5 14
ATOM     14   C  IDS C   1     143.576  22.814  85.3700  0.00  0.00     0.000 C
ATOM     15   O  IDS C   1     142.962  22.086  86.1110  0.00  0.00     0.000 OA
ATOM     16   O  IDS C   1     143.118  23.893  85.0350  0.00  0.00     0.000 OA
ENDBRANCH 5 14
BRANCH 1 17
ATOM     17  O4  SGN C   2     146.280  19.097  84.3280  0.00  0.00     0.000 O
BRANCH 17 21
ATOM     18  C1  SGN C   2     147.180  15.326  85.9070  0.00  0.00     0.000 C
ATOM     19  C2  SGN C   2     145.976  15.405  84.9600  0.00  0.00     0.000 C
ATOM     20  C3  SGN C   2     146.034  16.708  84.1540  0.00  0.00     0.000 C
ATOM     21  C4  SGN C   2     146.162  17.901  85.0940  0.00  0.00     0.000 C
ATOM     22  C5  SGN C   2     147.392  17.710  85.9770  0.00  0.00     0.000 C
ATOM     23  O5  SGN C   2     147.272  16.476  86.7210  0.00  0.00     0.000 O
ATOM     24   O  SGN C   2     144.878  16.824  83.3410  0.00  0.00     0.000 O
ATOM     26  HD  SGN C   2     145.721  16.873  83.5340  0.00  0.00     0.000 HD
BRANCH 19 28
ATOM     26   N  SGN C   2     145.928  14.076  84.3340  0.00  0.00     0.000 N
ATOM     28  HD  SGN C   2     146.562  14.005  84.9200  0.00  0.00     0.000 HD
ATOM     28   O  SGN C   2     144.588  12.266  83.2610  0.00  0.00     0.000 OA
ATOM     29   S  SGN C   2     144.735  13.036  84.6170  0.00  0.00     0.000 S
ATOM     30   O  SGN C   2     145.185  12.130  85.6030  0.00  0.00     0.000 OA
ATOM     31   O  SGN C   2     143.551  13.789  84.8420  0.00  0.00     0.000 OA
ENDBRANCH 19 28
BRANCH 22 32
ATOM     32   C  SGN C   2     147.579  18.813  86.9890  0.00  0.00     0.000 C
ATOM     33   S  SGN C   2     146.396  19.747  89.0800  0.00  0.00     0.000 S
ATOM     34   O  SGN C   2     145.387  20.414  88.2950  0.00  0.00     0.000 OA
ATOM     35   O  SGN C   2     145.886  19.156  90.2990  0.00  0.00     0.000 OA
ATOM     36   O  SGN C   2     147.597  20.523  89.2760  0.00  0.00     0.000 OA
ATOM     37   O  SGN C   2     146.840  18.507  88.1780  0.00  0.00     0.000 O
ENDBRANCH 22 32
BRANCH 18 38
ATOM     38  O4  IDS C   3     148.451  15.001  85.6600  0.00  0.00     0.000 O
BRANCH 38 42
ATOM     39  C1  IDS C   3     151.884  14.420  85.7310  0.00  0.00     0.000 C
ATOM     40  C2  IDS C   3     151.311  15.817  86.0180  0.00  0.00     0.000 C
ATOM     41  C3  IDS C   3     150.362  16.265  84.9070  0.00  0.00     0.000 C
ATOM     42  C4  IDS C   3     149.359  15.171  84.5660  0.00  0.00     0.000 C
ATOM     43  C5  IDS C   3     150.098  13.856  84.2900  0.00  0.00     0.000 C
ATOM     44  O5  IDS C   3     150.851  13.492  85.4460  0.00  0.00     0.000 O
ATOM     45   O  IDS C   3     151.121  16.603  83.7450  0.00  0.00     0.000 O
ATOM     47  HD  IDS C   3     151.706  16.192  83.2550  0.00  0.00     0.000 HD
BRANCH 40 47
ATOM     47   O  IDS C   3     150.543  15.814  87.2860  0.00  0.00     0.000 O
ATOM     48   S  IDS C   3     150.805  16.952  88.3790  0.00  0.00     0.000 S
ATOM     49   O  IDS C   3     152.039  16.588  89.0410  0.00  0.00     0.000 OA
ATOM     50   O  IDS C   3     149.664  16.898  89.2660  0.00  0.00     0.000 OA
ATOM     51   O  IDS C   3     150.904  18.193  87.6580  0.00  0.00     0.000 OA
ENDBRANCH 40 47
BRANCH 43 52
ATOM     52   C  IDS C   3     149.164  12.727  83.9160  0.00  0.00     0.000 C
ATOM     53   O  IDS C   3     148.384  12.294  84.7330  0.00  0.00     0.000 OA
ATOM     54   O  IDS C   3     149.202  12.264  82.8040  0.00  0.00     0.000 OA
ENDBRANCH 43 52
BRANCH 39 55
ATOM     55  O4  SGN C   4     153.007  14.209  85.0450  0.00  0.00     0.000 O
BRANCH 55 59
ATOM     56  C1  SGN C   4     156.410  13.941  87.4660  0.00  0.00     0.000 C
ATOM     57  C2  SGN C   4     156.229  15.249  86.6750  0.00  0.00     0.000 C
ATOM     58  C3  SGN C   4     154.797  15.379  86.1640  0.00  0.00     0.000 C
ATOM     59  C4  SGN C   4     154.374  14.116  85.4230  0.00  0.00     0.000 C
ATOM     60  C5  SGN C   4     154.579  12.915  86.3440  0.00  0.00     0.000 C
ATOM     61  O5  SGN C   4     155.977  12.839  86.6840  0.00  0.00     0.000 O
ATOM     62   O  SGN C   4     154.696  16.515  85.3160  0.00  0.00     0.000 O
ATOM     64  HD  SGN C   4     155.337  16.710  85.8640  0.00  0.00     0.000 HD
BRANCH 57 66
ATOM     64   N  SGN C   4     157.654  15.567  86.8600  0.00  0.00     0.000 N
ATOM     66  HD  SGN C   4     158.202  16.174  86.5740  0.00  0.00     0.000 HD
ATOM     66   S  SGN C   4     158.106  17.021  87.3390  0.00  0.00     0.000 S
ATOM     67   O  SGN C   4     159.523  17.038  87.3640  0.00  0.00     0.000 OA
ATOM     68   O  SGN C   4     157.410  17.960  86.5290  0.00  0.00     0.000 OA
ATOM     69   O  SGN C   4     157.560  17.116  88.7990  0.00  0.00     0.000 OA
ENDBRANCH 57 66
BRANCH 60 70
ATOM     70   C  SGN C   4     154.182  11.593  85.7220  0.00  0.00     0.000 C
ATOM     71   O  SGN C   4     152.079   8.904  87.2860  0.00  0.00     0.000 OA
ATOM     72   O  SGN C   4     151.393  10.546  85.6490  0.00  0.00     0.000 OA
ATOM     73   O  SGN C   4     153.552  10.743  86.7000  0.00  0.00     0.000 O
ATOM     74   S  SGN C   4     152.461   9.711  86.1510  0.00  0.00     0.000 S
ATOM     75   O  SGN C   4     153.146   8.964  85.1150  0.00  0.00     0.000 OA
ENDBRANCH 60 70
BRANCH 56 76
ATOM     76  O4  IDS C   5     156.327  13.580  88.7590  0.00  0.00     0.000 O
BRANCH 76 80
ATOM     77  C1  IDS C   5     153.132  11.425  90.1040  0.00  0.00     0.000 C
ATOM     78  C2  IDS C   5     153.008  12.936  90.3020  0.00  0.00     0.000 C
ATOM     79  C3  IDS C   5     153.994  13.656  89.4040  0.00  0.00     0.000 C
ATOM     80  C4  IDS C   5     155.418  13.324  89.8400  0.00  0.00     0.000 C
ATOM     81  C5  IDS C   5     155.490  11.850  90.2640  0.00  0.00     0.000 C
ATOM     82  O5  IDS C   5     154.443  11.097  89.6440  0.00  0.00     0.000 O
BRANCH 78 83
ATOM     83   O  IDS C   5     151.641  13.398  89.9630  0.00  0.00     0.000 O
ATOM     84   S  IDS C   5     150.605  13.731  91.1290  0.00  0.00     0.000 S
ATOM     85   O  IDS C   5     150.648  12.610  92.0290  0.00  0.00     0.000 OA
ATOM     86   O  IDS C   5     151.085  14.956  91.7240  0.00  0.00     0.000 OA
ATOM     87   O  IDS C   5     149.326  13.892  90.4800  0.00  0.00     0.000 OA
ENDBRANCH 78 83
BRANCH 81 88
ATOM     88   C  IDS C   5     156.805  11.174  89.9200  0.00  0.00     0.000 C
ATOM     89   O  IDS C   5     157.783  11.395  90.5830  0.00  0.00     0.000 OA
ATOM     90   O  IDS C   5     156.860  10.415  88.9800  0.00  0.00     0.000 OA
ENDBRANCH 81 88
ENDBRANCH 76 80
ENDBRANCH 56 76
ENDBRANCH 55 59
ENDBRANCH 39 55
ENDBRANCH 38 42
ENDBRANCH 18 38
ENDBRANCH 17 21
ENDBRANCH 1 17
TORSDOF 18
ENDMDL
MODEL 51
REMARK VINA RESULT:      -7.4     27.293     32.010
ROOT
ATOM      1  C1  IDS C   1     145.195   6.747  86.6630  0.00  0.00     0.000 C
ATOM      2  C2  IDS C   1     144.222   5.699  87.2090  0.00  0.00     0.000 C
ATOM      3  C3  IDS C   1     144.888   4.851  88.2830  0.00  0.00     0.000 C
ATOM      4  C4  IDS C   1     146.120   4.151  87.7270  0.00  0.00     0.000 C
ATOM      5  C5  IDS C   1     146.873   5.086  86.7850  0.00  0.00     0.000 C
ATOM      6  O5  IDS C   1     146.526   6.443  87.0600  0.00  0.00     0.000 O
ATOM      7   O  IDS C   1     143.956   3.881  88.7820  0.00  0.00     0.000 O
ATOM      9  HD  IDS C   1     143.170   4.244  88.8040  0.00  0.00     0.000 HD
ENDROOT
BRANCH 2 9
ATOM      9   O  IDS C   1     143.039   6.346  87.8210  0.00  0.00     0.000 O
ATOM     10   S  IDS C   1     141.584   6.007  87.2630  0.00  0.00     0.000 S
ATOM     11   O  IDS C   1     140.662   6.777  88.0680  0.00  0.00     0.000 OA
ATOM     12   O  IDS C   1     141.596   6.415  85.8730  0.00  0.00     0.000 OA
ATOM     13   O  IDS C   1     141.419   4.580  87.4300  0.00  0.00     0.000 OA
ENDBRANCH 2 9
BRANCH 5 14
ATOM     14   C  IDS C   1     148.380   4.938  86.9150  0.00  0.00     0.000 C
ATOM     15   O  IDS C   1     149.041   5.886  87.2630  0.00  0.00     0.000 OA
ATOM     16   O  IDS C   1     148.907   3.868  86.6660  0.00  0.00     0.000 OA
ENDBRANCH 5 14
BRANCH 1 17
ATOM     17  O4  SGN C   2     144.842   8.014  86.4270  0.00  0.00     0.000 O
BRANCH 17 21
ATOM     18  C1  SGN C   2     144.150  11.988  87.5470  0.00  0.00     0.000 C
ATOM     19  C2  SGN C   2     144.830  11.089  88.5880  0.00  0.00     0.000 C
ATOM     20  C3  SGN C   2     145.388   9.835  87.9050  0.00  0.00     0.000 C
ATOM     21  C4  SGN C   2     144.292   9.139  87.1070  0.00  0.00     0.000 C
ATOM     22  C5  SGN C   2     143.699  10.128  86.1080  0.00  0.00     0.000 C
ATOM     23  O5  SGN C   2     143.176  11.279  86.8100  0.00  0.00     0.000 O
ATOM     24   O  SGN C   2     145.940   8.962  88.8770  0.00  0.00     0.000 O
ATOM     26  HD  SGN C   2     145.901   9.389  88.1240  0.00  0.00     0.000 HD
BRANCH 19 28
ATOM     26   N  SGN C   2     145.430  12.086  89.4850  0.00  0.00     0.000 N
ATOM     28  HD  SGN C   2     144.707  12.471  89.2050  0.00  0.00     0.000 HD
ATOM     28   O  SGN C   2     146.771  12.588  91.5280  0.00  0.00     0.000 OA
ATOM     29   S  SGN C   2     145.430  11.912  91.0840  0.00  0.00     0.000 S
ATOM     30   O  SGN C   2     144.352  12.668  91.5940  0.00  0.00     0.000 OA
ATOM     31   O  SGN C   2     145.509  10.521  91.3670  0.00  0.00     0.000 OA
ENDBRANCH 19 28
BRANCH 22 32
ATOM     32   C  SGN C   2     142.560   9.554  85.3020  0.00  0.00     0.000 C
ATOM     33   S  SGN C   2     141.253  10.082  83.1440  0.00  0.00     0.000 S
ATOM     34   O  SGN C   2     140.494  11.131  83.7790  0.00  0.00     0.000 OA
ATOM     35   O  SGN C   2     141.637  10.386  81.7810  0.00  0.00     0.000 OA
ATOM     36   O  SGN C   2     140.682   8.765  83.3010  0.00  0.00     0.000 OA
ATOM     37   O  SGN C   2     142.626  10.044  83.9570  0.00  0.00     0.000 O
ENDBRANCH 22 32
BRANCH 18 38
ATOM     38  O4  IDS C   3     144.680  12.829  86.6570  0.00  0.00     0.000 O
BRANCH 38 42
ATOM     39  C1  IDS C   3     145.921  15.486  84.7780  0.00  0.00     0.000 C
ATOM     40  C2  IDS C   3     144.750  14.633  84.2660  0.00  0.00     0.000 C
ATOM     41  C3  IDS C   3     145.093  13.145  84.3020  0.00  0.00     0.000 C
ATOM     42  C4  IDS C   3     145.690  12.749  85.6450  0.00  0.00     0.000 C
ATOM     43  C5  IDS C   3     146.854  13.686  85.9920  0.00  0.00     0.000 C
ATOM     44  O5  IDS C   3     146.374  15.028  86.0420  0.00  0.00     0.000 O
ATOM     45   O  IDS C   3     146.019  12.847  83.2550  0.00  0.00     0.000 O
ATOM     47  HD  IDS C   3     146.796  13.151  83.0210  0.00  0.00     0.000 HD
BRANCH 40 47
ATOM     47   O  IDS C   3     143.550  14.834  85.1140  0.00  0.00     0.000 O
ATOM     48   S  IDS C   3     142.337  15.727  84.5770  0.00  0.00     0.000 S
ATOM     49   O  IDS C   3     142.761  17.103  84.7250  0.00  0.00     0.000 OA
ATOM     50   O  IDS C   3     141.217  15.399  85.4310  0.00  0.00     0.000 OA
ATOM     51   O  IDS C   3     142.132  15.352  83.2040  0.00  0.00     0.000 OA
ENDBRANCH 40 47
BRANCH 43 52
ATOM     52   C  IDS C   3     147.517  13.335  87.3050  0.00  0.00     0.000 C
ATOM     53   O  IDS C   3     148.045  12.255  87.4440  0.00  0.00     0.000 OA
ATOM     54   O  IDS C   3     147.516  14.133  88.2070  0.00  0.00     0.000 OA
ENDBRANCH 43 52
BRANCH 39 55
ATOM     55  O4  SGN C   4     146.890  15.958  83.9940  0.00  0.00     0.000 O
BRANCH 55 59
ATOM     56  C1  SGN C   4     148.544  19.717  84.7920  0.00  0.00     0.000 C
ATOM     57  C2  SGN C   4     147.099  19.700  84.2630  0.00  0.00     0.000 C
ATOM     58  C3  SGN C   4     146.493  18.305  84.3910  0.00  0.00     0.000 C
ATOM     59  C4  SGN C   4     147.416  17.260  83.7750  0.00  0.00     0.000 C
ATOM     60  C5  SGN C   4     148.794  17.380  84.4220  0.00  0.00     0.000 C
ATOM     61  O5  SGN C   4     149.304  18.702  84.1570  0.00  0.00     0.000 O
ATOM     62   O  SGN C   4     145.218  18.281  83.7630  0.00  0.00     0.000 O
ATOM     64  HD  SGN C   4     145.318  19.102  84.0190  0.00  0.00     0.000 HD
BRANCH 57 66
ATOM     64   N  SGN C   4     147.273  21.142  84.0270  0.00  0.00     0.000 N
ATOM     66  HD  SGN C   4     146.872  21.752  83.5610  0.00  0.00     0.000 HD
ATOM     66   S  SGN C   4     146.063  22.155  84.2650  0.00  0.00     0.000 S
ATOM     67   O  SGN C   4     146.513  23.448  83.8980  0.00  0.00     0.000 OA
ATOM     68   O  SGN C   4     144.923  21.601  83.6190  0.00  0.00     0.000 OA
ATOM     69   O  SGN C   4     145.835  22.104  85.8100  0.00  0.00     0.000 OA
ENDBRANCH 57 66
BRANCH 60 70
ATOM     70   C  SGN C   4     149.804  16.382  83.8970  0.00  0.00     0.000 C
ATOM     71   O  SGN C   4     150.689  13.061  85.4130  0.00  0.00     0.000 OA
ATOM     72   O  SGN C   4     149.247  13.479  83.5170  0.00  0.00     0.000 OA
ATOM     73   O  SGN C   4     150.017  15.328  84.8560  0.00  0.00     0.000 O
ATOM     74   S  SGN C   4     150.411  13.895  84.2660  0.00  0.00     0.000 S
ATOM     75   O  SGN C   4     151.573  14.143  83.4370  0.00  0.00     0.000 OA
ENDBRANCH 60 70
BRANCH 56 76
ATOM     76  O4  IDS C   5     149.134  19.992  85.9690  0.00  0.00     0.000 O
BRANCH 76 80
ATOM     77  C1  IDS C   5     151.998  20.936  88.7200  0.00  0.00     0.000 C
ATOM     78  C2  IDS C   5     152.409  19.853  87.7220  0.00  0.00     0.000 C
ATOM     79  C3  IDS C   5     151.492  19.890  86.5160  0.00  0.00     0.000 C
ATOM     80  C4  IDS C   5     150.076  19.509  86.9390  0.00  0.00     0.000 C
ATOM     81  C5  IDS C   5     149.779  20.110  88.3210  0.00  0.00     0.000 C
ATOM     82  O5  IDS C   5     150.614  21.247  88.5640  0.00  0.00     0.000 O
BRANCH 78 83
ATOM     83   O  IDS C   5     153.800  20.069  87.2590  0.00  0.00     0.000 O
ATOM     84   S  IDS C   5     154.890  18.922  87.4630  0.00  0.00     0.000 S
ATOM     85   O  IDS C   5     154.777  18.508  88.8360  0.00  0.00     0.000 OA
ATOM     86   O  IDS C   5     154.529  17.885  86.5250  0.00  0.00     0.000 OA
ATOM     87   O  IDS C   5     156.161  19.531  87.1550  0.00  0.00     0.000 OA
ENDBRANCH 78 83
BRANCH 81 88
ATOM     88   C  IDS C   5     148.339  20.554  88.5030  0.00  0.00     0.000 C
ATOM     89   O  IDS C   5     147.481  19.735  88.6970  0.00  0.00     0.000 OA
ATOM     90   O  IDS C   5     148.064  21.730  88.4520  0.00  0.00     0.000 OA
ENDBRANCH 81 88
ENDBRANCH 76 80
ENDBRANCH 56 76
ENDBRANCH 55 59
ENDBRANCH 39 55
ENDBRANCH 38 42
ENDBRANCH 18 38
ENDBRANCH 17 21
ENDBRANCH 1 17
TORSDOF 18
ENDMDL
MODEL 52
REMARK VINA RESULT:      -7.4     22.381     27.907
ROOT
ATOM      1  C1  IDS C   1     164.207  21.788  80.2040  0.00  0.00     0.000 C
ATOM      2  C2  IDS C   1     164.871  21.629  78.8340  0.00  0.00     0.000 C
ATOM      3  C3  IDS C   1     165.272  22.983  78.2660  0.00  0.00     0.000 C
ATOM      4  C4  IDS C   1     164.057  23.890  78.1330  0.00  0.00     0.000 C
ATOM      5  C5  IDS C   1     163.131  23.704  79.3310  0.00  0.00     0.000 C
ATOM      6  O5  IDS C   1     163.854  23.147  80.4280  0.00  0.00     0.000 O
ATOM      7   O  IDS C   1     165.895  22.807  76.9860  0.00  0.00     0.000 O
ATOM      9  HD  IDS C   1     166.367  22.081  77.0110  0.00  0.00     0.000 HD
ENDROOT
BRANCH 2 9
ATOM      9   O  IDS C   1     166.098  20.806  78.9350  0.00  0.00     0.000 O
ATOM     10   S  IDS C   1     166.301  19.576  77.9420  0.00  0.00     0.000 S
ATOM     11   O  IDS C   1     167.581  18.997  78.2840  0.00  0.00     0.000 OA
ATOM     12   O  IDS C   1     165.191  18.681  78.1980  0.00  0.00     0.000 OA
ATOM     13   O  IDS C   1     166.277  20.137  76.6090  0.00  0.00     0.000 OA
ENDBRANCH 2 9
BRANCH 5 14
ATOM     14   C  IDS C   1     162.506  25.014  79.7810  0.00  0.00     0.000 C
ATOM     15   O  IDS C   1     161.393  25.298  79.4120  0.00  0.00     0.000 OA
ATOM     16   O  IDS C   1     163.134  25.766  80.5070  0.00  0.00     0.000 OA
ENDBRANCH 5 14
BRANCH 1 17
ATOM     17  O4  SGN C   2     164.475  20.989  81.2400  0.00  0.00     0.000 O
BRANCH 17 21
ATOM     18  C1  SGN C   2     166.342  19.826  84.8020  0.00  0.00     0.000 C
ATOM     19  C2  SGN C   2     166.297  21.331  84.5100  0.00  0.00     0.000 C
ATOM     20  C3  SGN C   2     165.243  21.620  83.4340  0.00  0.00     0.000 C
ATOM     21  C4  SGN C   2     165.500  20.757  82.2030  0.00  0.00     0.000 C
ATOM     22  C5  SGN C   2     165.517  19.289  82.6200  0.00  0.00     0.000 C
ATOM     23  O5  SGN C   2     166.539  19.077  83.6210  0.00  0.00     0.000 O
ATOM     24   O  SGN C   2     165.260  22.997  83.1000  0.00  0.00     0.000 O
ATOM     26  HD  SGN C   2     164.904  22.229  83.2820  0.00  0.00     0.000 HD
BRANCH 19 28
ATOM     26   N  SGN C   2     166.560  21.895  85.8410  0.00  0.00     0.000 N
ATOM     28  HD  SGN C   2     167.043  21.176  85.8230  0.00  0.00     0.000 HD
ATOM     28   O  SGN C   2     166.811  23.903  87.3000  0.00  0.00     0.000 OA
ATOM     29   S  SGN C   2     167.460  23.211  86.0540  0.00  0.00     0.000 S
ATOM     30   O  SGN C   2     168.761  22.785  86.4000  0.00  0.00     0.000 OA
ATOM     31   O  SGN C   2     167.273  24.049  84.9210  0.00  0.00     0.000 OA
ENDBRANCH 19 28
BRANCH 22 32
ATOM     32   C  SGN C   2     165.823  18.348  81.4800  0.00  0.00     0.000 C
ATOM     33   S  SGN C   2     167.292  16.283  81.0130  0.00  0.00     0.000 S
ATOM     34   O  SGN C   2     168.490  17.076  80.8970  0.00  0.00     0.000 OA
ATOM     35   O  SGN C   2     167.496  15.017  81.6860  0.00  0.00     0.000 OA
ATOM     36   O  SGN C   2     166.542  16.166  79.7850  0.00  0.00     0.000 OA
ATOM     37   O  SGN C   2     166.357  17.123  81.9970  0.00  0.00     0.000 O
ENDBRANCH 22 32
BRANCH 18 38
ATOM     38  O4  IDS C   3     165.527  19.066  85.5370  0.00  0.00     0.000 O
BRANCH 38 42
ATOM     39  C1  IDS C   3     163.027  18.185  87.7950  0.00  0.00     0.000 C
ATOM     40  C2  IDS C   3     163.957  19.379  88.0680  0.00  0.00     0.000 C
ATOM     41  C3  IDS C   3     165.425  18.975  87.9440  0.00  0.00     0.000 C
ATOM     42  C4  IDS C   3     165.675  18.193  86.6620  0.00  0.00     0.000 C
ATOM     43  C5  IDS C   3     164.678  17.032  86.5590  0.00  0.00     0.000 C
ATOM     44  O5  IDS C   3     163.351  17.555  86.5680  0.00  0.00     0.000 O
ATOM     45   O  IDS C   3     165.795  18.181  89.0730  0.00  0.00     0.000 O
ATOM     47  HD  IDS C   3     165.494  17.455  89.4350  0.00  0.00     0.000 HD
BRANCH 40 47
ATOM     47   O  IDS C   3     163.709  20.465  87.0900  0.00  0.00     0.000 O
ATOM     48   S  IDS C   3     163.387  21.943  87.6080  0.00  0.00     0.000 S
ATOM     49   O  IDS C   3     162.006  21.920  88.0410  0.00  0.00     0.000 OA
ATOM     50   O  IDS C   3     163.592  22.801  86.4620  0.00  0.00     0.000 OA
ATOM     51   O  IDS C   3     164.304  22.207  88.6840  0.00  0.00     0.000 OA
ENDBRANCH 40 47
BRANCH 43 52
ATOM     52   C  IDS C   3     164.885  16.191  85.3190  0.00  0.00     0.000 C
ATOM     53   O  IDS C   3     166.006  15.937  84.9430  0.00  0.00     0.000 OA
ATOM     54   O  IDS C   3     163.930  15.777  84.7120  0.00  0.00     0.000 OA
ENDBRANCH 43 52
BRANCH 39 55
ATOM     55  O4  SGN C   4     162.606  17.346  88.7420  0.00  0.00     0.000 O
BRANCH 55 59
ATOM     56  C1  SGN C   4     160.171  14.076  87.8010  0.00  0.00     0.000 C
ATOM     57  C2  SGN C   4     159.568  15.472  87.5680  0.00  0.00     0.000 C
ATOM     58  C3  SGN C   4     160.659  16.539  87.5650  0.00  0.00     0.000 C
ATOM     59  C4  SGN C   4     161.534  16.416  88.8080  0.00  0.00     0.000 C
ATOM     60  C5  SGN C   4     162.082  14.993  88.8830  0.00  0.00     0.000 C
ATOM     61  O5  SGN C   4     160.968  14.083  88.9750  0.00  0.00     0.000 O
ATOM     62   O  SGN C   4     160.064  17.828  87.4970  0.00  0.00     0.000 O
ATOM     64  HD  SGN C   4     159.498  17.306  87.1000  0.00  0.00     0.000 HD
BRANCH 57 66
ATOM     64   N  SGN C   4     158.728  14.897  86.5050  0.00  0.00     0.000 N
ATOM     66  HD  SGN C   4     157.978  14.465  86.4650  0.00  0.00     0.000 HD
ATOM     66   S  SGN C   4     157.184  15.287  86.3910  0.00  0.00     0.000 S
ATOM     67   O  SGN C   4     156.634  14.535  85.3220  0.00  0.00     0.000 OA
ATOM     68   O  SGN C   4     156.626  15.162  87.6930  0.00  0.00     0.000 OA
ATOM     69   O  SGN C   4     157.212  16.799  86.0010  0.00  0.00     0.000 OA
ENDBRANCH 57 66
BRANCH 60 70
ATOM     70   C  SGN C   4     162.980  14.747  90.0770  0.00  0.00     0.000 C
ATOM     71   O  SGN C   4     166.650  15.501  90.3340  0.00  0.00     0.000 OA
ATOM     72   O  SGN C   4     164.813  16.786  91.2430  0.00  0.00     0.000 OA
ATOM     73   O  SGN C   4     164.359  14.970  89.7260  0.00  0.00     0.000 O
ATOM     74   S  SGN C   4     165.320  15.477  90.8990  0.00  0.00     0.000 S
ATOM     75   O  SGN C   4     165.161  14.499  91.9570  0.00  0.00     0.000 OA
ENDBRANCH 60 70
BRANCH 56 76
ATOM     76  O4  IDS C   5     160.609  13.074  87.0180  0.00  0.00     0.000 O
BRANCH 76 80
ATOM     77  C1  IDS C   5     162.856  10.141  85.2820  0.00  0.00     0.000 C
ATOM     78  C2  IDS C   5     163.625  11.421  85.6070  0.00  0.00     0.000 C
ATOM     79  C3  IDS C   5     162.849  12.246  86.6150  0.00  0.00     0.000 C
ATOM     80  C4  IDS C   5     161.545  12.727  85.9860  0.00  0.00     0.000 C
ATOM     81  C5  IDS C   5     160.972  11.618  85.0920  0.00  0.00     0.000 C
ATOM     82  O5  IDS C   5     161.459  10.338  85.5040  0.00  0.00     0.000 O
BRANCH 78 83
ATOM     83   O  IDS C   5     164.952  11.103  86.1850  0.00  0.00     0.000 O
ATOM     84   S  IDS C   5     166.138  12.164  86.0800  0.00  0.00     0.000 S
ATOM     85   O  IDS C   5     166.172  12.585  84.7050  0.00  0.00     0.000 OA
ATOM     86   O  IDS C   5     165.777  13.226  86.9900  0.00  0.00     0.000 OA
ATOM     87   O  IDS C   5     167.329  11.461  86.4910  0.00  0.00     0.000 OA
ENDBRANCH 78 83
BRANCH 81 88
ATOM     88   C  IDS C   5     159.456  11.552  85.0890  0.00  0.00     0.000 C
ATOM     89   O  IDS C   5     158.895  10.655  85.6600  0.00  0.00     0.000 OA
ATOM     90   O  IDS C   5     158.820  12.404  84.5120  0.00  0.00     0.000 OA
ENDBRANCH 81 88
ENDBRANCH 76 80
ENDBRANCH 56 76
ENDBRANCH 55 59
ENDBRANCH 39 55
ENDBRANCH 38 42
ENDBRANCH 18 38
ENDBRANCH 17 21
ENDBRANCH 1 17
TORSDOF 18
ENDMDL
MODEL 53
REMARK VINA RESULT:      -7.4     29.885     38.701
ROOT
ATOM      1  C1  IDS C   1     132.933  44.532  61.7100  0.00  0.00     0.000 C
ATOM      2  C2  IDS C   1     132.449  45.357  60.5150  0.00  0.00     0.000 C
ATOM      3  C3  IDS C   1     131.046  44.938  60.1010  0.00  0.00     0.000 C
ATOM      4  C4  IDS C   1     131.012  43.460  59.7370  0.00  0.00     0.000 C
ATOM      5  C5  IDS C   1     131.896  42.665  60.6940  0.00  0.00     0.000 C
ATOM      6  O5  IDS C   1     132.095  43.399  61.9020  0.00  0.00     0.000 O
ATOM      7   O  IDS C   1     130.613  45.727  58.9840  0.00  0.00     0.000 O
ATOM      9  HD  IDS C   1     130.919  46.531  59.0840  0.00  0.00     0.000 HD
ENDROOT
BRANCH 2 9
ATOM      9   O  IDS C   1     132.402  46.798  60.8540  0.00  0.00     0.000 O
ATOM     10   S  IDS C   1     133.170  47.845  59.9280  0.00  0.00     0.000 S
ATOM     11   O  IDS C   1     132.921  49.145  60.5110  0.00  0.00     0.000 OA
ATOM     12   O  IDS C   1     134.566  47.461  59.9810  0.00  0.00     0.000 OA
ATOM     13   O  IDS C   1     132.595  47.702  58.6090  0.00  0.00     0.000 OA
ENDBRANCH 2 9
BRANCH 5 14
ATOM     14   C  IDS C   1     131.293  41.316  61.0440  0.00  0.00     0.000 C
ATOM     15   O  IDS C   1     130.116  41.124  60.8550  0.00  0.00     0.000 OA
ATOM     16   O  IDS C   1     131.999  40.441  61.5150  0.00  0.00     0.000 OA
ENDBRANCH 5 14
BRANCH 1 17
ATOM     17  O4  SGN C   2     133.580  45.067  62.7500  0.00  0.00     0.000 O
BRANCH 17 21
ATOM     18  C1  SGN C   2     134.011  46.196  66.7580  0.00  0.00     0.000 C
ATOM     19  C2  SGN C   2     132.852  45.245  66.4330  0.00  0.00     0.000 C
ATOM     20  C3  SGN C   2     133.077  44.603  65.0590  0.00  0.00     0.000 C
ATOM     21  C4  SGN C   2     133.307  45.681  64.0060  0.00  0.00     0.000 C
ATOM     22  C5  SGN C   2     134.482  46.555  64.4380  0.00  0.00     0.000 C
ATOM     23  O5  SGN C   2     134.204  47.144  65.7290  0.00  0.00     0.000 O
ATOM     24   O  SGN C   2     131.965  43.791  64.7180  0.00  0.00     0.000 O
ATOM     26  HD  SGN C   2     132.803  44.002  64.7880  0.00  0.00     0.000 HD
BRANCH 19 28
ATOM     26   N  SGN C   2     132.573  44.663  67.7530  0.00  0.00     0.000 N
ATOM     28  HD  SGN C   2     132.875  45.453  67.9360  0.00  0.00     0.000 HD
ATOM     28   O  SGN C   2     131.178  43.160  69.1730  0.00  0.00     0.000 OA
ATOM     29   S  SGN C   2     131.075  44.456  68.3010  0.00  0.00     0.000 S
ATOM     30   O  SGN C   2     130.778  45.548  69.1470  0.00  0.00     0.000 OA
ATOM     31   O  SGN C   2     130.240  44.186  67.1830  0.00  0.00     0.000 OA
ENDBRANCH 19 28
BRANCH 22 32
ATOM     32   C  SGN C   2     134.759  47.695  63.4890  0.00  0.00     0.000 C
ATOM     33   S  SGN C   2     136.133  49.875  63.4280  0.00  0.00     0.000 S
ATOM     34   O  SGN C   2     135.184  50.577  64.2560  0.00  0.00     0.000 OA
ATOM     35   O  SGN C   2     137.513  50.206  63.7170  0.00  0.00     0.000 OA
ATOM     36   O  SGN C   2     135.818  49.903  62.0190  0.00  0.00     0.000 OA
ATOM     37   O  SGN C   2     135.979  48.347  63.8630  0.00  0.00     0.000 O
ENDBRANCH 22 32
BRANCH 18 38
ATOM     38  O4  IDS C   3     135.245  45.933  67.1930  0.00  0.00     0.000 O
BRANCH 38 42
ATOM     39  C1  IDS C   3     138.154  45.072  68.9040  0.00  0.00     0.000 C
ATOM     40  C2  IDS C   3     137.957  46.489  68.3400  0.00  0.00     0.000 C
ATOM     41  C3  IDS C   3     137.578  46.446  66.8600  0.00  0.00     0.000 C
ATOM     42  C4  IDS C   3     136.458  45.447  66.6060  0.00  0.00     0.000 C
ATOM     43  C5  IDS C   3     136.826  44.089  67.2150  0.00  0.00     0.000 C
ATOM     44  O5  IDS C   3     137.037  44.247  68.6170  0.00  0.00     0.000 O
ATOM     45   O  IDS C   3     138.726  46.090  66.0880  0.00  0.00     0.000 O
ATOM     47  HD  IDS C   3     139.287  45.430  66.0940  0.00  0.00     0.000 HD
BRANCH 40 47
ATOM     47   O  IDS C   3     136.865  47.188  69.0580  0.00  0.00     0.000 O
ATOM     48   S  IDS C   3     137.217  48.259  70.1920  0.00  0.00     0.000 S
ATOM     49   O  IDS C   3     137.593  47.492  71.3600  0.00  0.00     0.000 OA
ATOM     50   O  IDS C   3     135.999  49.013  70.3950  0.00  0.00     0.000 OA
ATOM     51   O  IDS C   3     138.297  49.056  69.6770  0.00  0.00     0.000 OA
ENDBRANCH 40 47
BRANCH 43 52
ATOM     52   C  IDS C   3     135.768  43.034  66.9770  0.00  0.00     0.000 C
ATOM     53   O  IDS C   3     134.980  42.762  67.8540  0.00  0.00     0.000 OA
ATOM     54   O  IDS C   3     135.715  42.470  65.9140  0.00  0.00     0.000 OA
ENDBRANCH 43 52
BRANCH 39 55
ATOM     55  O4  SGN C   4     139.321  44.429  68.8920  0.00  0.00     0.000 O
BRANCH 55 59
ATOM     56  C1  SGN C   4     142.576  42.575  70.7560  0.00  0.00     0.000 C
ATOM     57  C2  SGN C   4     141.216  41.868  70.8850  0.00  0.00     0.000 C
ATOM     58  C3  SGN C   4     140.224  42.411  69.8590  0.00  0.00     0.000 C
ATOM     59  C4  SGN C   4     140.167  43.933  69.9200  0.00  0.00     0.000 C
ATOM     60  C5  SGN C   4     141.580  44.485  69.7440  0.00  0.00     0.000 C
ATOM     61  O5  SGN C   4     142.400  43.981  70.8180  0.00  0.00     0.000 O
ATOM     62   O  SGN C   4     138.940  41.850  70.0960  0.00  0.00     0.000 O
ATOM     64  HD  SGN C   4     139.494  41.252  70.3880  0.00  0.00     0.000 HD
BRANCH 57 66
ATOM     64   N  SGN C   4     141.860  41.055  71.9290  0.00  0.00     0.000 N
ATOM     66  HD  SGN C   4     141.595  40.549  72.5800  0.00  0.00     0.000 HD
ATOM     66   S  SGN C   4     141.486  39.514  72.1040  0.00  0.00     0.000 S
ATOM     67   O  SGN C   4     142.214  39.023  73.2170  0.00  0.00     0.000 OA
ATOM     68   O  SGN C   4     140.066  39.427  72.1040  0.00  0.00     0.000 OA
ATOM     69   O  SGN C   4     142.027  38.851  70.7970  0.00  0.00     0.000 OA
ENDBRANCH 57 66
BRANCH 60 70
ATOM     70   C  SGN C   4     141.654  45.996  69.7770  0.00  0.00     0.000 C
ATOM     71   O  SGN C   4     140.634  48.243  72.6090  0.00  0.00     0.000 OA
ATOM     72   O  SGN C   4     142.874  47.566  71.9980  0.00  0.00     0.000 OA
ATOM     73   O  SGN C   4     140.982  46.509  70.9440  0.00  0.00     0.000 O
ATOM     74   S  SGN C   4     141.539  47.883  71.5420  0.00  0.00     0.000 S
ATOM     75   O  SGN C   4     141.515  48.809  70.4270  0.00  0.00     0.000 OA
ENDBRANCH 60 70
BRANCH 56 76
ATOM     76  O4  IDS C   5     143.725  42.338  70.0960  0.00  0.00     0.000 O
BRANCH 76 80
ATOM     77  C1  IDS C   5     146.643  40.477  67.9330  0.00  0.00     0.000 C
ATOM     78  C2  IDS C   5     146.053  39.631  69.0610  0.00  0.00     0.000 C
ATOM     79  C3  IDS C   5     144.723  40.213  69.4990  0.00  0.00     0.000 C
ATOM     80  C4  IDS C   5     144.948  41.588  70.1230  0.00  0.00     0.000 C
ATOM     81  C5  IDS C   5     146.047  42.326  69.3440  0.00  0.00     0.000 C
ATOM     82  O5  IDS C   5     146.149  41.814  68.0120  0.00  0.00     0.000 O
BRANCH 78 83
ATOM     83   O  IDS C   5     145.827  38.238  68.6080  0.00  0.00     0.000 O
ATOM     84   S  IDS C   5     146.644  37.044  69.2810  0.00  0.00     0.000 S
ATOM     85   O  IDS C   5     148.022  37.456  69.2770  0.00  0.00     0.000 OA
ATOM     86   O  IDS C   5     146.094  36.911  70.6100  0.00  0.00     0.000 OA
ATOM     87   O  IDS C   5     146.393  35.887  68.4570  0.00  0.00     0.000 OA
ENDBRANCH 78 83
BRANCH 81 88
ATOM     88   C  IDS C   5     145.829  43.824  69.2430  0.00  0.00     0.000 C
ATOM     89   O  IDS C   5     145.395  44.299  68.2270  0.00  0.00     0.000 OA
ATOM     90   O  IDS C   5     146.092  44.533  70.1870  0.00  0.00     0.000 OA
ENDBRANCH 81 88
ENDBRANCH 76 80
ENDBRANCH 56 76
ENDBRANCH 55 59
ENDBRANCH 39 55
ENDBRANCH 38 42
ENDBRANCH 18 38
ENDBRANCH 17 21
ENDBRANCH 1 17
TORSDOF 18
ENDMDL
MODEL 54
REMARK VINA RESULT:      -7.4     24.926     31.487
ROOT
ATOM      1  C1  IDS C   1     153.295  36.760  73.7470  0.00  0.00     0.000 C
ATOM      2  C2  IDS C   1     154.809  36.542  73.8170  0.00  0.00     0.000 C
ATOM      3  C3  IDS C   1     155.509  37.782  74.3520  0.00  0.00     0.000 C
ATOM      4  C4  IDS C   1     155.216  38.987  73.4680  0.00  0.00     0.000 C
ATOM      5  C5  IDS C   1     153.762  38.957  73.0080  0.00  0.00     0.000 C
ATOM      6  O5  IDS C   1     152.986  38.141  73.8850  0.00  0.00     0.000 O
ATOM      7   O  IDS C   1     156.924  37.552  74.4120  0.00  0.00     0.000 O
ATOM      9  HD  IDS C   1     157.056  36.728  74.6420  0.00  0.00     0.000 HD
ENDROOT
BRANCH 2 9
ATOM      9   O  IDS C   1     155.138  35.418  74.7230  0.00  0.00     0.000 O
ATOM     10   S  IDS C   1     156.007  34.199  74.1760  0.00  0.00     0.000 S
ATOM     11   O  IDS C   1     156.162  33.291  75.2910  0.00  0.00     0.000 OA
ATOM     12   O  IDS C   1     155.239  33.630  73.0880  0.00  0.00     0.000 OA
ATOM     13   O  IDS C   1     157.262  34.772  73.7410  0.00  0.00     0.000 OA
ENDBRANCH 2 9
BRANCH 5 14
ATOM     14   C  IDS C   1     153.145  40.344  72.9680  0.00  0.00     0.000 C
ATOM     15   O  IDS C   1     153.190  40.986  71.9470  0.00  0.00     0.000 OA
ATOM     16   O  IDS C   1     152.611  40.798  73.9670  0.00  0.00     0.000 OA
ENDBRANCH 5 14
BRANCH 1 17
ATOM     17  O4  SGN C   2     152.408  35.837  74.1290  0.00  0.00     0.000 O
BRANCH 17 21
ATOM     18  C1  SGN C   2     150.107  33.752  76.9380  0.00  0.00     0.000 C
ATOM     19  C2  SGN C   2     150.794  35.033  77.4270  0.00  0.00     0.000 C
ATOM     20  C3  SGN C   2     151.224  35.884  76.2260  0.00  0.00     0.000 C
ATOM     21  C4  SGN C   2     152.072  35.052  75.2700  0.00  0.00     0.000 C
ATOM     22  C5  SGN C   2     151.283  33.815  74.8530  0.00  0.00     0.000 C
ATOM     23  O5  SGN C   2     150.921  33.047  76.0240  0.00  0.00     0.000 O
ATOM     24   O  SGN C   2     151.936  37.025  76.6730  0.00  0.00     0.000 O
ATOM     26  HD  SGN C   2     151.369  36.582  76.1920  0.00  0.00     0.000 HD
BRANCH 19 28
ATOM     26   N  SGN C   2     150.652  35.381  78.8480  0.00  0.00     0.000 N
ATOM     28  HD  SGN C   2     151.474  35.117  78.7820  0.00  0.00     0.000 HD
ATOM     28   O  SGN C   2     149.615  36.819  80.6020  0.00  0.00     0.000 OA
ATOM     29   S  SGN C   2     150.556  36.905  79.3530  0.00  0.00     0.000 S
ATOM     30   O  SGN C   2     151.844  37.292  79.7840  0.00  0.00     0.000 OA
ATOM     31   O  SGN C   2     149.898  37.655  78.3400  0.00  0.00     0.000 OA
ENDBRANCH 19 28
BRANCH 22 32
ATOM     32   C  SGN C   2     152.058  32.888  73.9470  0.00  0.00     0.000 C
ATOM     33   S  SGN C   2     151.650  31.422  71.8670  0.00  0.00     0.000 S
ATOM     34   O  SGN C   2     150.997  30.393  72.6360  0.00  0.00     0.000 OA
ATOM     35   O  SGN C   2     151.043  31.654  70.5730  0.00  0.00     0.000 OA
ATOM     36   O  SGN C   2     153.087  31.295  71.8130  0.00  0.00     0.000 OA
ATOM     37   O  SGN C   2     151.378  32.762  72.6930  0.00  0.00     0.000 O
ENDBRANCH 22 32
BRANCH 18 38
ATOM     38  O4  IDS C   3     148.867  33.559  76.4830  0.00  0.00     0.000 O
BRANCH 38 42
ATOM     39  C1  IDS C   3     145.623  32.594  75.6640  0.00  0.00     0.000 C
ATOM     40  C2  IDS C   3     146.838  31.957  74.9700  0.00  0.00     0.000 C
ATOM     41  C3  IDS C   3     147.772  33.025  74.4020  0.00  0.00     0.000 C
ATOM     42  C4  IDS C   3     148.063  34.107  75.4320  0.00  0.00     0.000 C
ATOM     43  C5  IDS C   3     146.747  34.644  76.0070  0.00  0.00     0.000 C
ATOM     44  O5  IDS C   3     146.028  33.570  76.6090  0.00  0.00     0.000 O
ATOM     45   O  IDS C   3     147.174  33.610  73.2440  0.00  0.00     0.000 O
ATOM     47  HD  IDS C   3     146.419  34.000  73.0760  0.00  0.00     0.000 HD
BRANCH 40 47
ATOM     47   O  IDS C   3     147.621  31.146  75.9320  0.00  0.00     0.000 O
ATOM     48   S  IDS C   3     147.024  29.769  76.4830  0.00  0.00     0.000 S
ATOM     49   O  IDS C   3     146.039  30.132  77.4790  0.00  0.00     0.000 OA
ATOM     50   O  IDS C   3     148.153  29.066  77.0520  0.00  0.00     0.000 OA
ATOM     51   O  IDS C   3     146.449  29.093  75.3500  0.00  0.00     0.000 OA
ENDBRANCH 40 47
BRANCH 43 52
ATOM     52   C  IDS C   3     146.957  35.746  77.0210  0.00  0.00     0.000 C
ATOM     53   O  IDS C   3     147.314  36.843  76.6550  0.00  0.00     0.000 OA
ATOM     54   O  IDS C   3     146.767  35.527  78.1900  0.00  0.00     0.000 OA
ENDBRANCH 43 52
BRANCH 39 55
ATOM     55  O4  SGN C   4     144.483  32.886  75.0370  0.00  0.00     0.000 O
BRANCH 55 59
ATOM     56  C1  SGN C   4     140.886  31.869  76.9160  0.00  0.00     0.000 C
ATOM     57  C2  SGN C   4     141.677  30.716  76.2760  0.00  0.00     0.000 C
ATOM     58  C3  SGN C   4     143.114  31.140  75.9870  0.00  0.00     0.000 C
ATOM     59  C4  SGN C   4     143.142  32.449  75.2070  0.00  0.00     0.000 C
ATOM     60  C5  SGN C   4     142.347  33.499  75.9810  0.00  0.00     0.000 C
ATOM     61  O5  SGN C   4     140.989  33.033  76.1110  0.00  0.00     0.000 O
ATOM     62   O  SGN C   4     143.778  30.112  75.2640  0.00  0.00     0.000 O
ATOM     64  HD  SGN C   4     143.178  29.696  75.7300  0.00  0.00     0.000 HD
BRANCH 57 66
ATOM     64   N  SGN C   4     140.450  29.919  76.4410  0.00  0.00     0.000 N
ATOM     66  HD  SGN C   4     140.134  29.182  76.1140  0.00  0.00     0.000 HD
ATOM     66   S  SGN C   4     140.533  28.371  76.8170  0.00  0.00     0.000 S
ATOM     67   O  SGN C   4     139.207  27.869  76.8440  0.00  0.00     0.000 OA
ATOM     68   O  SGN C   4     141.485  27.780  75.9410  0.00  0.00     0.000 OA
ATOM     69   O  SGN C   4     141.118  28.371  78.2650  0.00  0.00     0.000 OA
ENDBRANCH 57 66
BRANCH 60 70
ATOM     70   C  SGN C   4     142.308  34.854  75.3090  0.00  0.00     0.000 C
ATOM     71   O  SGN C   4     144.220  37.926  76.3160  0.00  0.00     0.000 OA
ATOM     72   O  SGN C   4     144.729  36.398  74.5120  0.00  0.00     0.000 OA
ATOM     73   O  SGN C   4     143.011  35.831  76.1020  0.00  0.00     0.000 O
ATOM     74   S  SGN C   4     143.702  37.033  75.3060  0.00  0.00     0.000 S
ATOM     75   O  SGN C   4     142.636  37.613  74.5130  0.00  0.00     0.000 OA
ENDBRANCH 60 70
BRANCH 56 76
ATOM     76  O4  IDS C   5     140.610  32.266  78.1720  0.00  0.00     0.000 O
BRANCH 76 80
ATOM     77  C1  IDS C   5     139.954  33.685  81.9420  0.00  0.00     0.000 C
ATOM     78  C2  IDS C   5     138.904  34.105  80.9140  0.00  0.00     0.000 C
ATOM     79  C3  IDS C   5     138.980  33.200  79.7010  0.00  0.00     0.000 C
ATOM     80  C4  IDS C   5     140.317  33.406  78.9940  0.00  0.00     0.000 C
ATOM     81  C5  IDS C   5     141.421  33.609  80.0420  0.00  0.00     0.000 C
ATOM     82  O5  IDS C   5     141.040  33.025  81.2920  0.00  0.00     0.000 O
BRANCH 78 83
ATOM     83   O  IDS C   5     137.541  34.006  81.4880  0.00  0.00     0.000 O
ATOM     84   S  IDS C   5     136.614  35.302  81.5580  0.00  0.00     0.000 S
ATOM     85   O  IDS C   5     137.427  36.340  82.1320  0.00  0.00     0.000 OA
ATOM     86   O  IDS C   5     136.233  35.570  80.1910  0.00  0.00     0.000 OA
ATOM     87   O  IDS C   5     135.491  34.934  82.3850  0.00  0.00     0.000 OA
ENDBRANCH 78 83
BRANCH 81 88
ATOM     88   C  IDS C   5     142.760  33.014  79.6490  0.00  0.00     0.000 C
ATOM     89   O  IDS C   5     143.512  33.641  78.9520  0.00  0.00     0.000 OA
ATOM     90   O  IDS C   5     143.064  31.910  80.0410  0.00  0.00     0.000 OA
ENDBRANCH 81 88
ENDBRANCH 76 80
ENDBRANCH 56 76
ENDBRANCH 55 59
ENDBRANCH 39 55
ENDBRANCH 38 42
ENDBRANCH 18 38
ENDBRANCH 17 21
ENDBRANCH 1 17
TORSDOF 18
ENDMDL
MODEL 55
REMARK VINA RESULT:      -7.4     31.518     38.200
ROOT
ATOM      1  C1  IDS C   1     140.534  47.111  51.3570  0.00  0.00     0.000 C
ATOM      2  C2  IDS C   1     139.361  47.500  52.2620  0.00  0.00     0.000 C
ATOM      3  C3  IDS C   1     139.831  48.388  53.4040  0.00  0.00     0.000 C
ATOM      4  C4  IDS C   1     140.893  47.679  54.2340  0.00  0.00     0.000 C
ATOM      5  C5  IDS C   1     141.828  46.889  53.3230  0.00  0.00     0.000 C
ATOM      6  O5  IDS C   1     141.770  47.406  51.9940  0.00  0.00     0.000 O
ATOM      7   O  IDS C   1     138.716  48.742  54.2350  0.00  0.00     0.000 O
ATOM      9  HD  IDS C   1     138.023  48.852  53.7270  0.00  0.00     0.000 HD
ENDROOT
BRANCH 2 9
ATOM      9   O  IDS C   1     138.337  48.253  51.5030  0.00  0.00     0.000 O
ATOM     10   S  IDS C   1     136.868  47.649  51.3580  0.00  0.00     0.000 S
ATOM     11   O  IDS C   1     136.117  48.615  50.5870  0.00  0.00     0.000 OA
ATOM     12   O  IDS C   1     137.033  46.385  50.6710  0.00  0.00     0.000 OA
ATOM     13   O  IDS C   1     136.368  47.497  52.7070  0.00  0.00     0.000 OA
ENDBRANCH 2 9
BRANCH 5 14
ATOM     14   C  IDS C   1     143.270  46.942  53.7980  0.00  0.00     0.000 C
ATOM     15   O  IDS C   1     144.156  47.078  52.9900  0.00  0.00     0.000 OA
ATOM     16   O  IDS C   1     143.520  46.845  54.9880  0.00  0.00     0.000 OA
ENDBRANCH 5 14
BRANCH 1 17
ATOM     17  O4  SGN C   2     140.454  47.110  50.0230  0.00  0.00     0.000 O
BRANCH 17 21
ATOM     18  C1  SGN C   2     141.666  48.294  46.1950  0.00  0.00     0.000 C
ATOM     19  C2  SGN C   2     142.570  48.712  47.3610  0.00  0.00     0.000 C
ATOM     20  C3  SGN C   2     142.242  47.869  48.6000  0.00  0.00     0.000 C
ATOM     21  C4  SGN C   2     140.752  47.950  48.9110  0.00  0.00     0.000 C
ATOM     22  C5  SGN C   2     139.962  47.507  47.6830  0.00  0.00     0.000 C
ATOM     23  O5  SGN C   2     140.301  48.347  46.5550  0.00  0.00     0.000 O
ATOM     24   O  SGN C   2     143.015  48.312  49.7030  0.00  0.00     0.000 O
ATOM     26  HD  SGN C   2     142.641  47.735  49.1770  0.00  0.00     0.000 HD
BRANCH 19 28
ATOM     26   N  SGN C   2     143.826  49.016  46.6620  0.00  0.00     0.000 N
ATOM     28  HD  SGN C   2     143.213  49.246  46.0950  0.00  0.00     0.000 HD
ATOM     28   O  SGN C   2     146.206  49.754  46.7690  0.00  0.00     0.000 OA
ATOM     29   S  SGN C   2     144.756  50.262  47.0710  0.00  0.00     0.000 S
ATOM     30   O  SGN C   2     144.457  51.324  46.1890  0.00  0.00     0.000 OA
ATOM     31   O  SGN C   2     144.626  50.456  48.4740  0.00  0.00     0.000 OA
ENDBRANCH 19 28
BRANCH 22 32
ATOM     32   C  SGN C   2     138.468  47.605  47.8650  0.00  0.00     0.000 C
ATOM     33   S  SGN C   2     136.316  47.129  46.5270  0.00  0.00     0.000 S
ATOM     34   O  SGN C   2     136.464  48.324  45.7340  0.00  0.00     0.000 OA
ATOM     35   O  SGN C   2     135.825  45.991  45.7790  0.00  0.00     0.000 OA
ATOM     36   O  SGN C   2     135.626  47.335  47.7790  0.00  0.00     0.000 OA
ATOM     37   O  SGN C   2     137.811  46.739  46.9320  0.00  0.00     0.000 O
ENDBRANCH 22 32
BRANCH 18 38
ATOM     38  O4  IDS C   3     141.744  47.241  45.3780  0.00  0.00     0.000 O
BRANCH 38 42
ATOM     39  C1  IDS C   3     143.033  44.470  43.7070  0.00  0.00     0.000 C
ATOM     40  C2  IDS C   3     143.899  45.714  43.9630  0.00  0.00     0.000 C
ATOM     41  C3  IDS C   3     143.202  46.983  43.4740  0.00  0.00     0.000 C
ATOM     42  C4  IDS C   3     141.760  47.042  43.9600  0.00  0.00     0.000 C
ATOM     43  C5  IDS C   3     141.039  45.735  43.6070  0.00  0.00     0.000 C
ATOM     44  O5  IDS C   3     141.723  44.644  44.2210  0.00  0.00     0.000 O
ATOM     45   O  IDS C   3     143.231  47.018  42.0460  0.00  0.00     0.000 O
ATOM     47  HD  IDS C   3     142.976  46.483  41.4150  0.00  0.00     0.000 HD
BRANCH 40 47
ATOM     47   O  IDS C   3     144.157  45.879  45.4130  0.00  0.00     0.000 O
ATOM     48   S  IDS C   3     145.662  45.962  45.9490  0.00  0.00     0.000 S
ATOM     49   O  IDS C   3     146.162  44.604  45.9400  0.00  0.00     0.000 OA
ATOM     50   O  IDS C   3     145.560  46.505  47.2860  0.00  0.00     0.000 OA
ATOM     51   O  IDS C   3     146.370  46.823  45.0400  0.00  0.00     0.000 OA
ENDBRANCH 40 47
BRANCH 43 52
ATOM     52   C  IDS C   3     139.589  45.732  44.0360  0.00  0.00     0.000 C
ATOM     53   O  IDS C   3     138.899  46.705  43.8370  0.00  0.00     0.000 OA
ATOM     54   O  IDS C   3     139.128  44.758  44.5750  0.00  0.00     0.000 OA
ENDBRANCH 43 52
BRANCH 39 55
ATOM     55  O4  SGN C   4     143.084  43.752  42.5850  0.00  0.00     0.000 O
BRANCH 55 59
ATOM     56  C1  SGN C   4     143.575  39.609  42.2700  0.00  0.00     0.000 C
ATOM     57  C2  SGN C   4     144.546  40.348  43.2070  0.00  0.00     0.000 C
ATOM     58  C3  SGN C   4     144.025  41.744  43.5360  0.00  0.00     0.000 C
ATOM     59  C4  SGN C   4     143.665  42.497  42.2610  0.00  0.00     0.000 C
ATOM     60  C5  SGN C   4     142.674  41.657  41.4580  0.00  0.00     0.000 C
ATOM     61  O5  SGN C   4     143.306  40.405  41.1270  0.00  0.00     0.000 O
ATOM     62   O  SGN C   4     145.007  42.456  44.2780  0.00  0.00     0.000 O
ATOM     64  HD  SGN C   4     145.151  41.624  44.4710  0.00  0.00     0.000 HD
BRANCH 57 66
ATOM     64   N  SGN C   4     145.782  40.083  43.9620  0.00  0.00     0.000 N
ATOM     66  HD  SGN C   4     145.985  39.737  44.7290  0.00  0.00     0.000 HD
ATOM     66   S  SGN C   4     146.100  38.619  44.5110  0.00  0.00     0.000 S
ATOM     67   O  SGN C   4     147.314  38.692  45.2400  0.00  0.00     0.000 OA
ATOM     68   O  SGN C   4     144.923  38.153  45.1580  0.00  0.00     0.000 OA
ATOM     69   O  SGN C   4     146.324  37.777  43.2140  0.00  0.00     0.000 OA
ENDBRANCH 57 66
BRANCH 60 70
ATOM     70   C  SGN C   4     142.229  42.306  40.1650  0.00  0.00     0.000 C
ATOM     71   O  SGN C   4     140.309  40.687  37.3720  0.00  0.00     0.000 OA
ATOM     72   O  SGN C   4     139.455  42.163  39.0870  0.00  0.00     0.000 OA
ATOM     73   O  SGN C   4     141.704  41.317  39.2580  0.00  0.00     0.000 O
ATOM     74   S  SGN C   4     140.573  41.811  38.2420  0.00  0.00     0.000 S
ATOM     75   O  SGN C   4     141.159  42.946  37.5570  0.00  0.00     0.000 OA
ENDBRANCH 60 70
BRANCH 56 76
ATOM     76  O4  IDS C   5     142.541  38.763  42.4300  0.00  0.00     0.000 O
BRANCH 76 80
ATOM     77  C1  IDS C   5     139.575  36.170  43.4960  0.00  0.00     0.000 C
ATOM     78  C2  IDS C   5     140.835  36.083  44.3590  0.00  0.00     0.000 C
ATOM     79  C3  IDS C   5     141.667  37.338  44.1820  0.00  0.00     0.000 C
ATOM     80  C4  IDS C   5     142.183  37.410  42.7480  0.00  0.00     0.000 C
ATOM     81  C5  IDS C   5     141.096  36.903  41.7890  0.00  0.00     0.000 C
ATOM     82  O5  IDS C   5     139.802  37.034  42.3830  0.00  0.00     0.000 O
BRANCH 78 83
ATOM     83   O  IDS C   5     140.480  35.954  45.7920  0.00  0.00     0.000 O
ATOM     84   S  IDS C   5     140.977  34.684  46.6200  0.00  0.00     0.000 S
ATOM     85   O  IDS C   5     140.648  33.536  45.8190  0.00  0.00     0.000 OA
ATOM     86   O  IDS C   5     142.400  34.873  46.7840  0.00  0.00     0.000 OA
ATOM     87   O  IDS C   5     140.262  34.730  47.8720  0.00  0.00     0.000 OA
ENDBRANCH 78 83
BRANCH 81 88
ATOM     88   C  IDS C   5     141.064  37.628  40.4560  0.00  0.00     0.000 C
ATOM     89   O  IDS C   5     141.888  37.378  39.6180  0.00  0.00     0.000 OA
ATOM     90   O  IDS C   5     140.206  38.454  40.2450  0.00  0.00     0.000 OA
ENDBRANCH 81 88
ENDBRANCH 76 80
ENDBRANCH 56 76
ENDBRANCH 55 59
ENDBRANCH 39 55
ENDBRANCH 38 42
ENDBRANCH 18 38
ENDBRANCH 17 21
ENDBRANCH 1 17
TORSDOF 18
ENDMDL
MODEL 56
REMARK VINA RESULT:      -7.3     27.423     31.585
ROOT
ATOM      1  C1  IDS C   1     140.661  24.030  86.2260  0.00  0.00     0.000 C
ATOM      2  C2  IDS C   1     140.374  25.209  87.1600  0.00  0.00     0.000 C
ATOM      3  C3  IDS C   1     138.879  25.354  87.4040  0.00  0.00     0.000 C
ATOM      4  C4  IDS C   1     138.138  25.561  86.0910  0.00  0.00     0.000 C
ATOM      5  C5  IDS C   1     138.746  24.682  85.0020  0.00  0.00     0.000 C
ATOM      6  O5  IDS C   1     139.465  23.598  85.5910  0.00  0.00     0.000 O
ATOM      7   O  IDS C   1     138.636  26.461  88.2840  0.00  0.00     0.000 O
ATOM      9  HD  IDS C   1     139.274  26.489  88.8680  0.00  0.00     0.000 HD
ENDROOT
BRANCH 2 9
ATOM      9   O  IDS C   1     141.024  25.011  88.4750  0.00  0.00     0.000 O
ATOM     10   S  IDS C   1     142.080  26.085  88.9970  0.00  0.00     0.000 S
ATOM     11   O  IDS C   1     142.514  25.616  90.2950  0.00  0.00     0.000 OA
ATOM     12   O  IDS C   1     143.146  26.093  88.0160  0.00  0.00     0.000 OA
ATOM     13   O  IDS C   1     141.366  27.341  89.0640  0.00  0.00     0.000 OA
ENDBRANCH 2 9
BRANCH 5 14
ATOM     14   C  IDS C   1     137.691  24.111  84.0700  0.00  0.00     0.000 C
ATOM     15   O  IDS C   1     137.860  24.166  82.8770  0.00  0.00     0.000 OA
ATOM     16   O  IDS C   1     136.683  23.605  84.5350  0.00  0.00     0.000 OA
ENDBRANCH 5 14
BRANCH 1 17
ATOM     17  O4  SGN C   2     141.657  23.163  86.4330  0.00  0.00     0.000 O
BRANCH 17 21
ATOM     18  C1  SGN C   2     143.293  19.701  88.1240  0.00  0.00     0.000 C
ATOM     19  C2  SGN C   2     141.792  19.928  88.3410  0.00  0.00     0.000 C
ATOM     20  C3  SGN C   2     141.273  20.965  87.3380  0.00  0.00     0.000 C
ATOM     21  C4  SGN C   2     142.110  22.236  87.4160  0.00  0.00     0.000 C
ATOM     22  C5  SGN C   2     143.575  21.883  87.1800  0.00  0.00     0.000 C
ATOM     23  O5  SGN C   2     144.010  20.917  88.1640  0.00  0.00     0.000 O
ATOM     24   O  SGN C   2     139.906  21.240  87.5930  0.00  0.00     0.000 O
ATOM     26  HD  SGN C   2     140.607  21.082  87.1090  0.00  0.00     0.000 HD
BRANCH 19 28
ATOM     26   N  SGN C   2     141.347  18.583  88.7330  0.00  0.00     0.000 N
ATOM     28  HD  SGN C   2     142.132  18.653  89.0910  0.00  0.00     0.000 HD
ATOM     28   O  SGN C   2     139.482  17.045  89.3500  0.00  0.00     0.000 OA
ATOM     29   S  SGN C   2     140.205  18.345  89.8400  0.00  0.00     0.000 S
ATOM     30   O  SGN C   2     140.852  18.068  91.0650  0.00  0.00     0.000 OA
ATOM     31   O  SGN C   2     139.291  19.431  89.7570  0.00  0.00     0.000 OA
ENDBRANCH 19 28
BRANCH 22 32
ATOM     32   C  SGN C   2     144.502  23.069  87.2950  0.00  0.00     0.000 C
ATOM     33   S  SGN C   2     146.383  24.196  85.9410  0.00  0.00     0.000 S
ATOM     34   O  SGN C   2     147.349  23.195  86.3190  0.00  0.00     0.000 OA
ATOM     35   O  SGN C   2     146.512  24.639  84.5680  0.00  0.00     0.000 OA
ATOM     36   O  SGN C   2     146.260  25.281  86.8860  0.00  0.00     0.000 OA
ATOM     37   O  SGN C   2     144.983  23.432  85.9950  0.00  0.00     0.000 O
ENDBRANCH 22 32
BRANCH 18 38
ATOM     38  O4  IDS C   3     143.931  18.980  87.1990  0.00  0.00     0.000 O
BRANCH 38 42
ATOM     39  C1  IDS C   3     145.870  16.786  85.3130  0.00  0.00     0.000 C
ATOM     40  C2  IDS C   3     146.046  18.308  85.1860  0.00  0.00     0.000 C
ATOM     41  C3  IDS C   3     144.709  18.998  84.9160  0.00  0.00     0.000 C
ATOM     42  C4  IDS C   3     143.634  18.512  85.8790  0.00  0.00     0.000 C
ATOM     43  C5  IDS C   3     143.581  16.979  85.8660  0.00  0.00     0.000 C
ATOM     44  O5  IDS C   3     144.855  16.465  86.2490  0.00  0.00     0.000 O
ATOM     45   O  IDS C   3     144.305  18.738  83.5710  0.00  0.00     0.000 O
ATOM     47  HD  IDS C   3     144.178  18.024  83.0970  0.00  0.00     0.000 HD
BRANCH 40 47
ATOM     47   O  IDS C   3     146.594  18.875  86.4410  0.00  0.00     0.000 O
ATOM     48   S  IDS C   3     148.134  19.301  86.5160  0.00  0.00     0.000 S
ATOM     49   O  IDS C   3     148.880  18.070  86.6600  0.00  0.00     0.000 OA
ATOM     50   O  IDS C   3     148.237  20.151  87.6820  0.00  0.00     0.000 OA
ATOM     51   O  IDS C   3     148.426  19.989  85.2860  0.00  0.00     0.000 OA
ENDBRANCH 40 47
BRANCH 43 52
ATOM     52   C  IDS C   3     142.513  16.423  86.7810  0.00  0.00     0.000 C
ATOM     53   O  IDS C   3     141.345  16.560  86.4980  0.00  0.00     0.000 OA
ATOM     54   O  IDS C   3     142.832  15.844  87.7890  0.00  0.00     0.000 OA
ENDBRANCH 43 52
BRANCH 39 55
ATOM     55  O4  SGN C   4     145.942  15.946  84.2810  0.00  0.00     0.000 O
BRANCH 55 59
ATOM     56  C1  SGN C   4     149.368  13.593  83.7990  0.00  0.00     0.000 C
ATOM     57  C2  SGN C   4     149.522  15.097  83.5150  0.00  0.00     0.000 C
ATOM     58  C3  SGN C   4     148.348  15.880  84.0970  0.00  0.00     0.000 C
ATOM     59  C4  SGN C   4     147.023  15.273  83.6490  0.00  0.00     0.000 C
ATOM     60  C5  SGN C   4     147.008  13.794  84.0280  0.00  0.00     0.000 C
ATOM     61  O5  SGN C   4     148.100  13.142  83.3500  0.00  0.00     0.000 O
ATOM     62   O  SGN C   4     148.437  17.240  83.6940  0.00  0.00     0.000 O
ATOM     64  HD  SGN C   4     149.258  16.963  83.7060  0.00  0.00     0.000 HD
BRANCH 57 66
ATOM     64   N  SGN C   4     150.827  15.561  84.0130  0.00  0.00     0.000 N
ATOM     66  HD  SGN C   4     151.643  15.273  83.9900  0.00  0.00     0.000 HD
ATOM     66   S  SGN C   4     152.068  15.711  83.0210  0.00  0.00     0.000 S
ATOM     67   O  SGN C   4     153.185  16.111  83.7950  0.00  0.00     0.000 OA
ATOM     68   O  SGN C   4     152.138  14.512  82.2590  0.00  0.00     0.000 OA
ATOM     69   O  SGN C   4     151.646  16.880  82.0740  0.00  0.00     0.000 OA
ENDBRANCH 57 66
BRANCH 60 70
ATOM     70   C  SGN C   4     145.732  13.078  83.6430  0.00  0.00     0.000 C
ATOM     71   O  SGN C   4     142.623  12.732  85.7220  0.00  0.00     0.000 OA
ATOM     72   O  SGN C   4     143.008  14.261  83.8880  0.00  0.00     0.000 OA
ATOM     73   O  SGN C   4     144.846  12.980  84.7750  0.00  0.00     0.000 O
ATOM     74   S  SGN C   4     143.279  12.959  84.4550  0.00  0.00     0.000 S
ATOM     75   O  SGN C   4     143.108  11.872  83.5120  0.00  0.00     0.000 OA
ENDBRANCH 60 70
BRANCH 56 76
ATOM     76  O4  IDS C   5     149.784  12.748  84.7600  0.00  0.00     0.000 O
BRANCH 76 80
ATOM     77  C1  IDS C   5     152.251  14.463  87.5220  0.00  0.00     0.000 C
ATOM     78  C2  IDS C   5     152.933  13.448  86.6060  0.00  0.00     0.000 C
ATOM     79  C3  IDS C   5     152.080  13.210  85.3760  0.00  0.00     0.000 C
ATOM     80  C4  IDS C   5     150.769  12.544  85.7840  0.00  0.00     0.000 C
ATOM     81  C5  IDS C   5     150.290  13.139  87.1160  0.00  0.00     0.000 C
ATOM     82  O5  IDS C   5     150.839  14.446  87.3090  0.00  0.00     0.000 O
BRANCH 78 83
ATOM     83   O  IDS C   5     154.259  13.945  86.1680  0.00  0.00     0.000 O
ATOM     84   S  IDS C   5     155.583  13.188  86.6350  0.00  0.00     0.000 S
ATOM     85   O  IDS C   5     155.454  13.006  88.0560  0.00  0.00     0.000 OA
ATOM     86   O  IDS C   5     155.586  11.944  85.9010  0.00  0.00     0.000 OA
ATOM     87   O  IDS C   5     156.677  14.053  86.2680  0.00  0.00     0.000 OA
ENDBRANCH 78 83
BRANCH 81 88
ATOM     88   C  IDS C   5     148.781  13.256  87.2300  0.00  0.00     0.000 C
ATOM     89   O  IDS C   5     148.105  12.263  87.2760  0.00  0.00     0.000 OA
ATOM     90   O  IDS C   5     148.266  14.350  87.2750  0.00  0.00     0.000 OA
ENDBRANCH 81 88
ENDBRANCH 76 80
ENDBRANCH 56 76
ENDBRANCH 55 59
ENDBRANCH 39 55
ENDBRANCH 38 42
ENDBRANCH 18 38
ENDBRANCH 17 21
ENDBRANCH 1 17
TORSDOF 18
ENDMDL
MODEL 57
REMARK VINA RESULT:      -7.3     20.663     27.851
ROOT
ATOM      1  C1  IDS C   1     169.324  34.562  54.7970  0.00  0.00     0.000 C
ATOM      2  C2  IDS C   1     170.540  34.867  55.6760  0.00  0.00     0.000 C
ATOM      3  C3  IDS C   1     171.687  33.917  55.3610  0.00  0.00     0.000 C
ATOM      4  C4  IDS C   1     171.262  32.471  55.5770  0.00  0.00     0.000 C
ATOM      5  C5  IDS C   1     169.828  32.271  55.0960  0.00  0.00     0.000 C
ATOM      6  O5  IDS C   1     169.473  33.295  54.1670  0.00  0.00     0.000 O
ATOM      7   O  IDS C   1     172.814  34.225  56.1930  0.00  0.00     0.000 O
ATOM      9  HD  IDS C   1     172.850  35.084  56.2960  0.00  0.00     0.000 HD
ENDROOT
BRANCH 2 9
ATOM      9   O  IDS C   1     171.026  36.246  55.4430  0.00  0.00     0.000 O
ATOM     10   S  IDS C   1     171.119  37.261  56.6690  0.00  0.00     0.000 S
ATOM     11   O  IDS C   1     171.634  38.497  56.1220  0.00  0.00     0.000 OA
ATOM     12   O  IDS C   1     169.767  37.387  57.1740  0.00  0.00     0.000 OA
ATOM     13   O  IDS C   1     172.021  36.650  57.6210  0.00  0.00     0.000 OA
ENDBRANCH 2 9
BRANCH 5 14
ATOM     14   C  IDS C   1     169.632  30.922  54.4230  0.00  0.00     0.000 C
ATOM     15   O  IDS C   1     168.580  30.674  53.8870  0.00  0.00     0.000 OA
ATOM     16   O  IDS C   1     170.536  30.104  54.4330  0.00  0.00     0.000 OA
ENDBRANCH 5 14
BRANCH 1 17
ATOM     17  O4  SGN C   2     168.590  35.514  54.2140  0.00  0.00     0.000 O
BRANCH 17 21
ATOM     18  C1  SGN C   2     167.206  37.679  50.9090  0.00  0.00     0.000 C
ATOM     19  C2  SGN C   2     168.054  36.436  50.6100  0.00  0.00     0.000 C
ATOM     20  C3  SGN C   2     168.118  35.540  51.8530  0.00  0.00     0.000 C
ATOM     21  C4  SGN C   2     168.600  36.344  53.0550  0.00  0.00     0.000 C
ATOM     22  C5  SGN C   2     167.679  37.544  53.2530  0.00  0.00     0.000 C
ATOM     23  O5  SGN C   2     167.673  38.357  52.0570  0.00  0.00     0.000 O
ATOM     24   O  SGN C   2     168.972  34.435  51.6070  0.00  0.00     0.000 O
ATOM     26  HD  SGN C   2     168.269  34.844  51.9040  0.00  0.00     0.000 HD
BRANCH 19 28
ATOM     26   N  SGN C   2     167.695  36.168  49.2110  0.00  0.00     0.000 N
ATOM     28  HD  SGN C   2     167.639  37.029  49.2760  0.00  0.00     0.000 HD
ATOM     28   O  SGN C   2     167.980  34.775  47.1610  0.00  0.00     0.000 OA
ATOM     29   S  SGN C   2     168.783  35.722  48.1140  0.00  0.00     0.000 S
ATOM     30   O  SGN C   2     169.158  36.877  47.3930  0.00  0.00     0.000 OA
ATOM     31   O  SGN C   2     169.779  34.956  48.7810  0.00  0.00     0.000 OA
ENDBRANCH 19 28
BRANCH 22 32
ATOM     32   C  SGN C   2     168.102  38.443  54.3880  0.00  0.00     0.000 C
ATOM     33   S  SGN C   2     167.796  40.888  55.1430  0.00  0.00     0.000 S
ATOM     34   O  SGN C   2     168.752  41.377  54.1810  0.00  0.00     0.000 OA
ATOM     35   O  SGN C   2     166.649  41.755  55.3130  0.00  0.00     0.000 OA
ATOM     36   O  SGN C   2     168.383  40.459  56.3910  0.00  0.00     0.000 OA
ATOM     37   O  SGN C   2     167.211  39.561  54.4770  0.00  0.00     0.000 O
ENDBRANCH 22 32
BRANCH 18 38
ATOM     38  O4  IDS C   3     165.881  37.826  50.9620  0.00  0.00     0.000 O
BRANCH 38 42
ATOM     39  C1  IDS C   3     162.430  37.976  50.5200  0.00  0.00     0.000 C
ATOM     40  C2  IDS C   3     163.272  39.258  50.6210  0.00  0.00     0.000 C
ATOM     41  C3  IDS C   3     164.154  39.244  51.8690  0.00  0.00     0.000 C
ATOM     42  C4  IDS C   3     164.900  37.923  52.0010  0.00  0.00     0.000 C
ATOM     43  C5  IDS C   3     163.911  36.755  51.8980  0.00  0.00     0.000 C
ATOM     44  O5  IDS C   3     163.241  36.820  50.6400  0.00  0.00     0.000 O
ATOM     45   O  IDS C   3     163.341  39.456  53.0250  0.00  0.00     0.000 O
ATOM     47  HD  IDS C   3     162.641  39.071  53.3600  0.00  0.00     0.000 HD
BRANCH 40 47
ATOM     47   O  IDS C   3     164.166  39.387  49.4460  0.00  0.00     0.000 O
ATOM     48   S  IDS C   3     163.984  40.615  48.4380  0.00  0.00     0.000 S
ATOM     49   O  IDS C   3     162.835  40.291  47.6200  0.00  0.00     0.000 OA
ATOM     50   O  IDS C   3     165.210  40.665  47.6730  0.00  0.00     0.000 OA
ATOM     51   O  IDS C   3     163.776  41.782  49.2530  0.00  0.00     0.000 OA
ENDBRANCH 40 47
BRANCH 43 52
ATOM     52   C  IDS C   3     164.580  35.407  52.0480  0.00  0.00     0.000 C
ATOM     53   O  IDS C   3     164.761  34.711  51.0750  0.00  0.00     0.000 OA
ATOM     54   O  IDS C   3     164.930  35.032  53.1380  0.00  0.00     0.000 OA
ENDBRANCH 43 52
BRANCH 39 55
ATOM     55  O4  SGN C   4     161.216  37.846  51.0570  0.00  0.00     0.000 O
BRANCH 55 59
ATOM     56  C1  SGN C   4     157.345  36.266  50.9140  0.00  0.00     0.000 C
ATOM     57  C2  SGN C   4     158.292  35.670  51.9690  0.00  0.00     0.000 C
ATOM     58  C3  SGN C   4     159.502  36.575  52.1840  0.00  0.00     0.000 C
ATOM     59  C4  SGN C   4     160.158  36.920  50.8520  0.00  0.00     0.000 C
ATOM     60  C5  SGN C   4     159.105  37.530  49.9290  0.00  0.00     0.000 C
ATOM     61  O5  SGN C   4     158.063  36.555  49.7250  0.00  0.00     0.000 O
ATOM     62   O  SGN C   4     160.429  35.933  53.0490  0.00  0.00     0.000 O
ATOM     64  HD  SGN C   4     159.659  35.611  53.2800  0.00  0.00     0.000 HD
BRANCH 57 66
ATOM     64   N  SGN C   4     158.301  34.416  52.7390  0.00  0.00     0.000 N
ATOM     66  HD  SGN C   4     158.119  34.180  53.5520  0.00  0.00     0.000 HD
ATOM     66   S  SGN C   4     156.999  33.939  53.5300  0.00  0.00     0.000 S
ATOM     67   O  SGN C   4     157.332  32.745  54.2160  0.00  0.00     0.000 OA
ATOM     68   O  SGN C   4     156.526  35.060  54.2660  0.00  0.00     0.000 OA
ATOM     69   O  SGN C   4     155.974  33.617  52.3960  0.00  0.00     0.000 OA
ENDBRANCH 57 66
BRANCH 60 70
ATOM     70   C  SGN C   4     159.640  37.926  48.5700  0.00  0.00     0.000 C
ATOM     71   O  SGN C   4     159.931  35.734  45.5350  0.00  0.00     0.000 OA
ATOM     72   O  SGN C   4     158.234  37.393  45.9970  0.00  0.00     0.000 OA
ATOM     73   O  SGN C   4     159.788  36.766  47.7280  0.00  0.00     0.000 O
ATOM     74   S  SGN C   4     159.616  36.999  46.1560  0.00  0.00     0.000 S
ATOM     75   O  SGN C   4     160.557  38.052  45.8320  0.00  0.00     0.000 OA
ENDBRANCH 60 70
BRANCH 56 76
ATOM     76  O4  IDS C   5     156.259  37.060  50.9360  0.00  0.00     0.000 O
BRANCH 76 80
ATOM     77  C1  IDS C   5     156.767  41.077  51.4490  0.00  0.00     0.000 C
ATOM     78  C2  IDS C   5     156.392  40.317  52.7220  0.00  0.00     0.000 C
ATOM     79  C3  IDS C   5     156.657  38.837  52.5330  0.00  0.00     0.000 C
ATOM     80  C4  IDS C   5     155.721  38.283  51.4620  0.00  0.00     0.000 C
ATOM     81  C5  IDS C   5     155.558  39.322  50.3430  0.00  0.00     0.000 C
ATOM     82  O5  IDS C   5     156.677  40.213  50.3170  0.00  0.00     0.000 O
BRANCH 78 83
ATOM     83   O  IDS C   5     157.195  40.794  53.8720  0.00  0.00     0.000 O
ATOM     84   S  IDS C   5     156.526  41.741  54.9680  0.00  0.00     0.000 S
ATOM     85   O  IDS C   5     155.858  42.783  54.2350  0.00  0.00     0.000 OA
ATOM     86   O  IDS C   5     155.618  40.889  55.7000  0.00  0.00     0.000 OA
ATOM     87   O  IDS C   5     157.614  42.224  55.7830  0.00  0.00     0.000 OA
ENDBRANCH 78 83
BRANCH 81 88
ATOM     88   C  IDS C   5     155.421  38.719  48.9570  0.00  0.00     0.000 C
ATOM     89   O  IDS C   5     154.427  38.108  48.6660  0.00  0.00     0.000 OA
ATOM     90   O  IDS C   5     156.314  38.857  48.1530  0.00  0.00     0.000 OA
ENDBRANCH 81 88
ENDBRANCH 76 80
ENDBRANCH 56 76
ENDBRANCH 55 59
ENDBRANCH 39 55
ENDBRANCH 38 42
ENDBRANCH 18 38
ENDBRANCH 17 21
ENDBRANCH 1 17
TORSDOF 18
ENDMDL
MODEL 58
REMARK VINA RESULT:      -7.3     28.160     32.745
ROOT
ATOM      1  C1  IDS C   1     145.891  19.800  84.5740  0.00  0.00     0.000 C
ATOM      2  C2  IDS C   1     147.339  20.117  84.1900  0.00  0.00     0.000 C
ATOM      3  C3  IDS C   1     147.826  21.369  84.9040  0.00  0.00     0.000 C
ATOM      4  C4  IDS C   1     146.943  22.561  84.5610  0.00  0.00     0.000 C
ATOM      5  C5  IDS C   1     145.482  22.127  84.4930  0.00  0.00     0.000 C
ATOM      6  O5  IDS C   1     145.295  20.915  85.2240  0.00  0.00     0.000 O
ATOM      7   O  IDS C   1     149.184  21.642  84.5330  0.00  0.00     0.000 O
ATOM      9  HD  IDS C   1     149.599  20.888  84.4430  0.00  0.00     0.000 HD
ENDROOT
BRANCH 2 9
ATOM      9   O  IDS C   1     148.241  19.006  84.5720  0.00  0.00     0.000 O
ATOM     10   S  IDS C   1     149.125  18.294  83.4520  0.00  0.00     0.000 S
ATOM     11   O  IDS C   1     149.892  17.279  84.1380  0.00  0.00     0.000 OA
ATOM     12   O  IDS C   1     148.180  17.741  82.5030  0.00  0.00     0.000 OA
ATOM     13   O  IDS C   1     149.953  19.334  82.8820  0.00  0.00     0.000 OA
ENDBRANCH 2 9
BRANCH 5 14
ATOM     14   C  IDS C   1     144.545  23.180  85.0610  0.00  0.00     0.000 C
ATOM     15   O  IDS C   1     144.251  24.138  84.3880  0.00  0.00     0.000 OA
ATOM     16   O  IDS C   1     144.101  23.051  86.1890  0.00  0.00     0.000 OA
ENDBRANCH 5 14
BRANCH 1 17
ATOM     17  O4  SGN C   2     145.464  18.563  84.8450  0.00  0.00     0.000 O
BRANCH 17 21
ATOM     18  C1  SGN C   2     143.707  15.673  87.3120  0.00  0.00     0.000 C
ATOM     19  C2  SGN C   2     143.671  17.121  87.8170  0.00  0.00     0.000 C
ATOM     20  C3  SGN C   2     143.951  18.083  86.6560  0.00  0.00     0.000 C
ATOM     21  C4  SGN C   2     145.253  17.702  85.9610  0.00  0.00     0.000 C
ATOM     22  C5  SGN C   2     145.166  16.249  85.5030  0.00  0.00     0.000 C
ATOM     23  O5  SGN C   2     144.917  15.391  86.6410  0.00  0.00     0.000 O
ATOM     24   O  SGN C   2     144.003  19.416  87.1360  0.00  0.00     0.000 O
ATOM     26  HD  SGN C   2     143.792  18.776  86.5920  0.00  0.00     0.000 HD
BRANCH 19 28
ATOM     26   N  SGN C   2     142.407  17.308  88.5440  0.00  0.00     0.000 N
ATOM     28  HD  SGN C   2     142.307  16.544  88.1500  0.00  0.00     0.000 HD
ATOM     28   O  SGN C   2     141.200  18.206  90.5330  0.00  0.00     0.000 OA
ATOM     29   S  SGN C   2     142.308  17.171  90.1430  0.00  0.00     0.000 S
ATOM     30   O  SGN C   2     141.834  15.872  90.4300  0.00  0.00     0.000 OA
ATOM     31   O  SGN C   2     143.547  17.605  90.6910  0.00  0.00     0.000 OA
ENDBRANCH 19 28
BRANCH 22 32
ATOM     32   C  SGN C   2     146.432  15.750  84.8500  0.00  0.00     0.000 C
ATOM     33   S  SGN C   2     148.328  14.072  85.3290  0.00  0.00     0.000 S
ATOM     34   O  SGN C   2     148.966  14.957  86.2710  0.00  0.00     0.000 OA
ATOM     35   O  SGN C   2     148.367  12.679  85.7220  0.00  0.00     0.000 OA
ATOM     36   O  SGN C   2     148.719  14.293  83.9560  0.00  0.00     0.000 OA
ATOM     37   O  SGN C   2     146.785  14.473  85.3960  0.00  0.00     0.000 O
ENDBRANCH 22 32
BRANCH 18 38
ATOM     38  O4  IDS C   3     142.792  14.971  86.6400  0.00  0.00     0.000 O
BRANCH 38 42
ATOM     39  C1  IDS C   3     140.789  12.609  85.0480  0.00  0.00     0.000 C
ATOM     40  C2  IDS C   3     142.221  12.889  84.5640  0.00  0.00     0.000 C
ATOM     41  C3  IDS C   3     142.443  14.382  84.3280  0.00  0.00     0.000 C
ATOM     42  C4  IDS C   3     141.947  15.206  85.5080  0.00  0.00     0.000 C
ATOM     43  C5  IDS C   3     140.503  14.816  85.8440  0.00  0.00     0.000 C
ATOM     44  O5  IDS C   3     140.456  13.425  86.1580  0.00  0.00     0.000 O
ATOM     45   O  IDS C   3     141.757  14.781  83.1400  0.00  0.00     0.000 O
ATOM     47  HD  IDS C   3     140.940  14.728  82.8580  0.00  0.00     0.000 HD
BRANCH 40 47
ATOM     47   O  IDS C   3     143.208  12.446  85.5770  0.00  0.00     0.000 O
ATOM     48   S  IDS C   3     144.465  11.564  85.1310  0.00  0.00     0.000 S
ATOM     49   O  IDS C   3     143.959  10.223  84.9330  0.00  0.00     0.000 OA
ATOM     50   O  IDS C   3     145.398  11.646  86.2340  0.00  0.00     0.000 OA
ATOM     51   O  IDS C   3     144.968  12.156  83.9200  0.00  0.00     0.000 OA
ENDBRANCH 40 47
BRANCH 43 52
ATOM     52   C  IDS C   3     139.932  15.616  86.9930  0.00  0.00     0.000 C
ATOM     53   O  IDS C   3     139.437  15.046  87.9380  0.00  0.00     0.000 OA
ATOM     54   O  IDS C   3     139.973  16.820  86.9620  0.00  0.00     0.000 OA
ENDBRANCH 43 52
BRANCH 39 55
ATOM     55  O4  SGN C   4     139.767  12.366  84.2270  0.00  0.00     0.000 O
BRANCH 55 59
ATOM     56  C1  SGN C   4     138.164  10.745  80.7190  0.00  0.00     0.000 C
ATOM     57  C2  SGN C   4     139.207   9.890  81.4570  0.00  0.00     0.000 C
ATOM     58  C3  SGN C   4     139.409  10.393  82.8840  0.00  0.00     0.000 C
ATOM     59  C4  SGN C   4     139.685  11.892  82.8910  0.00  0.00     0.000 C
ATOM     60  C5  SGN C   4     138.552  12.604  82.1540  0.00  0.00     0.000 C
ATOM     61  O5  SGN C   4     138.518  12.117  80.7980  0.00  0.00     0.000 O
ATOM     62   O  SGN C   4     140.479   9.683  83.4920  0.00  0.00     0.000 O
ATOM     64  HD  SGN C   4     140.155   9.129  82.9110  0.00  0.00     0.000 HD
BRANCH 57 66
ATOM     64   N  SGN C   4     139.485   9.093  80.2510  0.00  0.00     0.000 N
ATOM     66  HD  SGN C   4     140.026   8.452  80.0350  0.00  0.00     0.000 HD
ATOM     66   S  SGN C   4     139.454   7.498  80.3070  0.00  0.00     0.000 S
ATOM     67   O  SGN C   4     139.817   7.021  79.0230  0.00  0.00     0.000 OA
ATOM     68   O  SGN C   4     140.218   7.107  81.4400  0.00  0.00     0.000 OA
ATOM     69   O  SGN C   4     137.951   7.166  80.5780  0.00  0.00     0.000 OA
ENDBRANCH 57 66
BRANCH 60 70
ATOM     70   C  SGN C   4     138.708  14.108  82.1010  0.00  0.00     0.000 C
ATOM     71   O  SGN C   4     136.579  16.530  80.1750  0.00  0.00     0.000 OA
ATOM     72   O  SGN C   4     136.482  16.039  82.5410  0.00  0.00     0.000 OA
ATOM     73   O  SGN C   4     137.841  14.670  81.0980  0.00  0.00     0.000 O
ATOM     74   S  SGN C   4     137.311  16.156  81.3630  0.00  0.00     0.000 S
ATOM     75   O  SGN C   4     138.509  16.943  81.5760  0.00  0.00     0.000 OA
ENDBRANCH 60 70
BRANCH 56 76
ATOM     76  O4  IDS C   5     136.835  10.679  80.5160  0.00  0.00     0.000 O
BRANCH 76 80
ATOM     77  C1  IDS C   5     134.318  13.044  82.6910  0.00  0.00     0.000 C
ATOM     78  C2  IDS C   5     134.494  11.629  83.2420  0.00  0.00     0.000 C
ATOM     79  C3  IDS C   5     135.740  10.998  82.6520  0.00  0.00     0.000 C
ATOM     80  C4  IDS C   5     135.554  10.808  81.1490  0.00  0.00     0.000 C
ATOM     81  C5  IDS C   5     134.790  12.011  80.5750  0.00  0.00     0.000 C
ATOM     82  O5  IDS C   5     134.952  13.157  81.4170  0.00  0.00     0.000 O
BRANCH 78 83
ATOM     83   O  IDS C   5     134.635  11.654  84.7160  0.00  0.00     0.000 O
ATOM     84   S  IDS C   5     133.568  10.895  85.6280  0.00  0.00     0.000 S
ATOM     85   O  IDS C   5     132.275  11.302  85.1460  0.00  0.00     0.000 OA
ATOM     86   O  IDS C   5     133.832   9.490  85.4290  0.00  0.00     0.000 OA
ATOM     87   O  IDS C   5     133.833  11.325  86.9790  0.00  0.00     0.000 OA
ENDBRANCH 78 83
BRANCH 81 88
ATOM     88   C  IDS C   5     135.226  12.406  79.1760  0.00  0.00     0.000 C
ATOM     89   O  IDS C   5     135.898  13.389  79.0130  0.00  0.00     0.000 OA
ATOM     90   O  IDS C   5     134.895  11.726  78.2320  0.00  0.00     0.000 OA
ENDBRANCH 81 88
ENDBRANCH 76 80
ENDBRANCH 56 76
ENDBRANCH 55 59
ENDBRANCH 39 55
ENDBRANCH 38 42
ENDBRANCH 18 38
ENDBRANCH 17 21
ENDBRANCH 1 17
TORSDOF 18
ENDMDL
MODEL 59
REMARK VINA RESULT:      -7.3     28.488     32.852
ROOT
ATOM      1  C1  IDS C   1     143.451  21.489  85.9360  0.00  0.00     0.000 C
ATOM      2  C2  IDS C   1     144.563  22.507  86.2040  0.00  0.00     0.000 C
ATOM      3  C3  IDS C   1     144.145  23.493  87.2850  0.00  0.00     0.000 C
ATOM      4  C4  IDS C   1     142.877  24.230  86.8780  0.00  0.00     0.000 C
ATOM      5  C5  IDS C   1     141.919  23.274  86.1740  0.00  0.00     0.000 C
ATOM      6  O5  IDS C   1     142.230  21.924  86.5190  0.00  0.00     0.000 O
ATOM      7   O  IDS C   1     145.203  24.432  87.5210  0.00  0.00     0.000 O
ATOM      9  HD  IDS C   1     145.959  24.015  87.4460  0.00  0.00     0.000 HD
ENDROOT
BRANCH 2 9
ATOM      9   O  IDS C   1     145.795  21.831  86.6680  0.00  0.00     0.000 O
ATOM     10   S  IDS C   1     147.142  21.993  85.8300  0.00  0.00     0.000 S
ATOM     11   O  IDS C   1     148.147  21.236  86.5430  0.00  0.00     0.000 OA
ATOM     12   O  IDS C   1     146.852  21.450  84.5180  0.00  0.00     0.000 OA
ATOM     13   O  IDS C   1     147.423  23.411  85.8030  0.00  0.00     0.000 OA
ENDBRANCH 2 9
BRANCH 5 14
ATOM     14   C  IDS C   1     140.469  23.543  86.5410  0.00  0.00     0.000 C
ATOM     15   O  IDS C   1     140.049  24.674  86.5130  0.00  0.00     0.000 OA
ATOM     16   O  IDS C   1     139.744  22.616  86.8610  0.00  0.00     0.000 OA
ENDBRANCH 5 14
BRANCH 1 17
ATOM     17  O4  SGN C   2     143.684  20.184  85.7700  0.00  0.00     0.000 O
BRANCH 17 21
ATOM     18  C1  SGN C   2     143.780  16.269  87.2500  0.00  0.00     0.000 C
ATOM     19  C2  SGN C   2     143.369  17.367  88.2390  0.00  0.00     0.000 C
ATOM     20  C3  SGN C   2     142.973  18.636  87.4720  0.00  0.00     0.000 C
ATOM     21  C4  SGN C   2     144.093  19.044  86.5220  0.00  0.00     0.000 C
ATOM     22  C5  SGN C   2     144.407  17.877  85.5910  0.00  0.00     0.000 C
ATOM     23  O5  SGN C   2     144.787  16.719  86.3690  0.00  0.00     0.000 O
ATOM     24   O  SGN C   2     142.677  19.679  88.3850  0.00  0.00     0.000 O
ATOM     26  HD  SGN C   2     142.569  19.186  87.6810  0.00  0.00     0.000 HD
BRANCH 19 28
ATOM     26   N  SGN C   2     142.745  16.580  89.3120  0.00  0.00     0.000 N
ATOM     28  HD  SGN C   2     143.421  16.096  89.0670  0.00  0.00     0.000 HD
ATOM     28   O  SGN C   2     141.486  16.521  91.4640  0.00  0.00     0.000 OA
ATOM     29   S  SGN C   2     142.847  17.005  90.8590  0.00  0.00     0.000 S
ATOM     30   O  SGN C   2     143.892  16.251  91.4390  0.00  0.00     0.000 OA
ATOM     31   O  SGN C   2     142.890  18.425  90.9150  0.00  0.00     0.000 OA
ENDBRANCH 19 28
BRANCH 22 32
ATOM     32   C  SGN C   2     145.546  18.158  84.6420  0.00  0.00     0.000 C
ATOM     33   S  SGN C   2     147.958  17.355  84.2180  0.00  0.00     0.000 S
ATOM     34   O  SGN C   2     148.478  18.112  85.3290  0.00  0.00     0.000 OA
ATOM     35   O  SGN C   2     148.576  16.055  84.0620  0.00  0.00     0.000 OA
ATOM     36   O  SGN C   2     147.872  18.102  82.9860  0.00  0.00     0.000 OA
ATOM     37   O  SGN C   2     146.447  17.044  84.6280  0.00  0.00     0.000 O
ENDBRANCH 22 32
BRANCH 18 38
ATOM     38  O4  IDS C   3     143.029  15.462  86.4990  0.00  0.00     0.000 O
BRANCH 38 42
ATOM     39  C1  IDS C   3     141.178  12.940  84.9680  0.00  0.00     0.000 C
ATOM     40  C2  IDS C   3     142.534  13.383  84.3980  0.00  0.00     0.000 C
ATOM     41  C3  IDS C   3     142.581  14.898  84.1970  0.00  0.00     0.000 C
ATOM     42  C4  IDS C   3     142.086  15.633  85.4350  0.00  0.00     0.000 C
ATOM     43  C5  IDS C   3     140.718  15.082  85.8540  0.00  0.00     0.000 C
ATOM     44  O5  IDS C   3     140.840  13.686  86.1250  0.00  0.00     0.000 O
ATOM     45   O  IDS C   3     141.774  15.251  83.0720  0.00  0.00     0.000 O
ATOM     47  HD  IDS C   3     140.949  15.118  82.8440  0.00  0.00     0.000 HD
BRANCH 40 47
ATOM     47   O  IDS C   3     143.632  13.024  85.3270  0.00  0.00     0.000 O
ATOM     48   S  IDS C   3     144.852  12.129  84.8090  0.00  0.00     0.000 S
ATOM     49   O  IDS C   3     144.354  10.771  84.7570  0.00  0.00     0.000 OA
ATOM     50   O  IDS C   3     145.894  12.298  85.7980  0.00  0.00     0.000 OA
ATOM     51   O  IDS C   3     145.211  12.641  83.5140  0.00  0.00     0.000 OA
ENDBRANCH 40 47
BRANCH 43 52
ATOM     52   C  IDS C   3     140.148  15.786  87.0660  0.00  0.00     0.000 C
ATOM     53   O  IDS C   3     139.653  16.883  86.9480  0.00  0.00     0.000 OA
ATOM     54   O  IDS C   3     140.191  15.250  88.1440  0.00  0.00     0.000 OA
ENDBRANCH 43 52
BRANCH 39 55
ATOM     55  O4  SGN C   4     140.131  12.608  84.2120  0.00  0.00     0.000 O
BRANCH 55 59
ATOM     56  C1  SGN C   4     138.385  10.725  80.9090  0.00  0.00     0.000 C
ATOM     57  C2  SGN C   4     139.305   9.860  81.7870  0.00  0.00     0.000 C
ATOM     58  C3  SGN C   4     139.550  10.527  83.1370  0.00  0.00     0.000 C
ATOM     59  C4  SGN C   4     140.009  11.969  82.9490  0.00  0.00     0.000 C
ATOM     60  C5  SGN C   4     138.982  12.703  82.0900  0.00  0.00     0.000 C
ATOM     61  O5  SGN C   4     138.905  12.041  80.8120  0.00  0.00     0.000 O
ATOM     62   O  SGN C   4     140.516   9.784  83.8680  0.00  0.00     0.000 O
ATOM     64  HD  SGN C   4     140.133   9.199  83.3570  0.00  0.00     0.000 HD
BRANCH 57 66
ATOM     64   N  SGN C   4     138.536   8.638  81.5030  0.00  0.00     0.000 N
ATOM     66  HD  SGN C   4     138.442   8.099  80.8310  0.00  0.00     0.000 HD
ATOM     66   S  SGN C   4     139.269   7.321  80.9780  0.00  0.00     0.000 S
ATOM     67   O  SGN C   4     138.269   6.344  80.7400  0.00  0.00     0.000 OA
ATOM     68   O  SGN C   4     140.126   7.717  79.9150  0.00  0.00     0.000 OA
ATOM     69   O  SGN C   4     140.148   6.877  82.1910  0.00  0.00     0.000 OA
ENDBRANCH 57 66
BRANCH 60 70
ATOM     70   C  SGN C   4     139.323  14.156  81.8380  0.00  0.00     0.000 C
ATOM     71   O  SGN C   4     137.101  16.761  80.2950  0.00  0.00     0.000 OA
ATOM     72   O  SGN C   4     137.594  16.446  82.6420  0.00  0.00     0.000 OA
ATOM     73   O  SGN C   4     138.299  14.785  81.0450  0.00  0.00     0.000 O
ATOM     74   S  SGN C   4     138.074  16.350  81.2810  0.00  0.00     0.000 S
ATOM     75   O  SGN C   4     139.380  16.946  81.0870  0.00  0.00     0.000 OA
ENDBRANCH 60 70
BRANCH 56 76
ATOM     76  O4  IDS C   5     137.061  10.793  80.6770  0.00  0.00     0.000 O
BRANCH 76 80
ATOM     77  C1  IDS C   5     134.152  10.312  77.8560  0.00  0.00     0.000 C
ATOM     78  C2  IDS C   5     135.143  11.436  77.5590  0.00  0.00     0.000 C
ATOM     79  C3  IDS C   5     136.395  11.252  78.3950  0.00  0.00     0.000 C
ATOM     80  C4  IDS C   5     136.051  11.419  79.8720  0.00  0.00     0.000 C
ATOM     81  C5  IDS C   5     134.678  10.790  80.1490  0.00  0.00     0.000 C
ATOM     82  O5  IDS C   5     134.374   9.794  79.1680  0.00  0.00     0.000 O
BRANCH 78 83
ATOM     83   O  IDS C   5     135.530  11.429  76.1290  0.00  0.00     0.000 O
ATOM     84   S  IDS C   5     135.168  12.678  75.2030  0.00  0.00     0.000 S
ATOM     85   O  IDS C   5     133.778  12.958  75.4430  0.00  0.00     0.000 OA
ATOM     86   O  IDS C   5     136.045  13.739  75.6400  0.00  0.00     0.000 OA
ATOM     87   O  IDS C   5     135.439  12.253  73.8520  0.00  0.00     0.000 OA
ENDBRANCH 78 83
BRANCH 81 88
ATOM     88   C  IDS C   5     134.565  10.136  81.5140  0.00  0.00     0.000 C
ATOM     89   O  IDS C   5     134.639   8.941  81.6140  0.00  0.00     0.000 OA
ATOM     90   O  IDS C   5     134.400  10.824  82.4960  0.00  0.00     0.000 OA
ENDBRANCH 81 88
ENDBRANCH 76 80
ENDBRANCH 56 76
ENDBRANCH 55 59
ENDBRANCH 39 55
ENDBRANCH 38 42
ENDBRANCH 18 38
ENDBRANCH 17 21
ENDBRANCH 1 17
TORSDOF 18
ENDMDL
MODEL 60
REMARK VINA RESULT:      -7.3     26.578     29.844
ROOT
ATOM      1  C1  IDS C   1     146.018  20.673  84.7060  0.00  0.00     0.000 C
ATOM      2  C2  IDS C   1     147.380  21.374  84.6900  0.00  0.00     0.000 C
ATOM      3  C3  IDS C   1     147.463  22.417  85.7950  0.00  0.00     0.000 C
ATOM      4  C4  IDS C   1     146.362  23.456  85.6360  0.00  0.00     0.000 C
ATOM      5  C5  IDS C   1     145.067  22.783  85.1910  0.00  0.00     0.000 C
ATOM      6  O5  IDS C   1     145.099  21.394  85.5170  0.00  0.00     0.000 O
ATOM      7   O  IDS C   1     148.748  23.056  85.7630  0.00  0.00     0.000 O
ATOM      9  HD  IDS C   1     149.341  22.463  85.5470  0.00  0.00     0.000 HD
ENDROOT
BRANCH 2 9
ATOM      9   O  IDS C   1     148.475  20.402  84.9110  0.00  0.00     0.000 O
ATOM     10   S  IDS C   1     149.625  20.256  83.8160  0.00  0.00     0.000 S
ATOM     11   O  IDS C   1     150.534  19.254  84.3270  0.00  0.00     0.000 OA
ATOM     12   O  IDS C   1     148.956  19.843  82.6000  0.00  0.00     0.000 OA
ATOM     13   O  IDS C   1     150.235  21.563  83.7080  0.00  0.00     0.000 OA
ENDBRANCH 2 9
BRANCH 5 14
ATOM     14   C  IDS C   1     143.845  23.403  85.8450  0.00  0.00     0.000 C
ATOM     15   O  IDS C   1     142.779  22.843  85.7630  0.00  0.00     0.000 OA
ATOM     16   O  IDS C   1     143.949  24.461  86.4440  0.00  0.00     0.000 OA
ENDBRANCH 5 14
BRANCH 1 17
ATOM     17  O4  SGN C   2     145.877  19.354  84.5490  0.00  0.00     0.000 O
BRANCH 17 21
ATOM     18  C1  SGN C   2     146.514  15.567  86.2150  0.00  0.00     0.000 C
ATOM     19  C2  SGN C   2     145.354  15.693  85.2200  0.00  0.00     0.000 C
ATOM     20  C3  SGN C   2     145.511  16.978  84.3990  0.00  0.00     0.000 C
ATOM     21  C4  SGN C   2     145.666  18.178  85.3260  0.00  0.00     0.000 C
ATOM     22  C5  SGN C   2     146.849  17.937  86.2590  0.00  0.00     0.000 C
ATOM     23  O5  SGN C   2     146.635  16.724  87.0160  0.00  0.00     0.000 O
ATOM     24   O  SGN C   2     144.396  17.141  83.5390  0.00  0.00     0.000 O
ATOM     26  HD  SGN C   2     145.232  17.150  83.7640  0.00  0.00     0.000 HD
BRANCH 19 28
ATOM     26   N  SGN C   2     145.133  14.288  84.8490  0.00  0.00     0.000 N
ATOM     28  HD  SGN C   2     145.380  14.246  85.6790  0.00  0.00     0.000 HD
ATOM     28   O  SGN C   2     143.869  12.604  83.5130  0.00  0.00     0.000 OA
ATOM     29   S  SGN C   2     143.662  13.677  84.6340  0.00  0.00     0.000 S
ATOM     30   O  SGN C   2     143.295  13.018  85.8280  0.00  0.00     0.000 OA
ATOM     31   O  SGN C   2     142.835  14.715  84.1220  0.00  0.00     0.000 OA
ENDBRANCH 19 28
BRANCH 22 32
ATOM     32   C  SGN C   2     147.055  19.046  87.2630  0.00  0.00     0.000 C
ATOM     33   S  SGN C   2     148.730  19.703  89.1080  0.00  0.00     0.000 S
ATOM     34   O  SGN C   2     148.192  18.739  90.0350  0.00  0.00     0.000 OA
ATOM     35   O  SGN C   2     150.172  19.823  89.1650  0.00  0.00     0.000 OA
ATOM     36   O  SGN C   2     148.047  20.975  89.1180  0.00  0.00     0.000 OA
ATOM     37   O  SGN C   2     148.428  19.077  87.6700  0.00  0.00     0.000 O
ENDBRANCH 22 32
BRANCH 18 38
ATOM     38  O4  IDS C   3     147.775  15.172  86.0230  0.00  0.00     0.000 O
BRANCH 38 42
ATOM     39  C1  IDS C   3     150.890  13.620  85.8900  0.00  0.00     0.000 C
ATOM     40  C2  IDS C   3     150.725  15.013  86.5180  0.00  0.00     0.000 C
ATOM     41  C3  IDS C   3     150.005  15.967  85.5660  0.00  0.00     0.000 C
ATOM     42  C4  IDS C   3     148.752  15.326  84.9870  0.00  0.00     0.000 C
ATOM     43  C5  IDS C   3     149.098  13.958  84.3870  0.00  0.00     0.000 C
ATOM     44  O5  IDS C   3     149.651  13.128  85.4070  0.00  0.00     0.000 O
ATOM     45   O  IDS C   3     150.891  16.337  84.5070  0.00  0.00     0.000 O
ATOM     47  HD  IDS C   3     151.360  15.903  83.9220  0.00  0.00     0.000 HD
BRANCH 40 47
ATOM     47   O  IDS C   3     149.920  14.933  87.7600  0.00  0.00     0.000 O
ATOM     48   S  IDS C   3     150.541  15.437  89.1450  0.00  0.00     0.000 S
ATOM     49   O  IDS C   3     151.447  14.394  89.5780  0.00  0.00     0.000 OA
ATOM     50   O  IDS C   3     149.411  15.592  90.0350  0.00  0.00     0.000 OA
ATOM     51   O  IDS C   3     151.213  16.677  88.8620  0.00  0.00     0.000 OA
ENDBRANCH 40 47
BRANCH 43 52
ATOM     52   C  IDS C   3     147.902  13.271  83.7670  0.00  0.00     0.000 C
ATOM     53   O  IDS C   3     147.386  13.736  82.7760  0.00  0.00     0.000 OA
ATOM     54   O  IDS C   3     147.468  12.262  84.2630  0.00  0.00     0.000 OA
ENDBRANCH 43 52
BRANCH 39 55
ATOM     55  O4  SGN C   4     151.941  13.261  85.1540  0.00  0.00     0.000 O
BRANCH 55 59
ATOM     56  C1  SGN C   4     155.620  13.657  87.1070  0.00  0.00     0.000 C
ATOM     57  C2  SGN C   4     155.504  14.312  85.7200  0.00  0.00     0.000 C
ATOM     58  C3  SGN C   4     154.041  14.441  85.3020  0.00  0.00     0.000 C
ATOM     59  C4  SGN C   4     153.323  13.104  85.4450  0.00  0.00     0.000 C
ATOM     60  C5  SGN C   4     153.500  12.601  86.8760  0.00  0.00     0.000 C
ATOM     61  O5  SGN C   4     154.909  12.430  87.1240  0.00  0.00     0.000 O
ATOM     62   O  SGN C   4     153.968  14.909  83.9630  0.00  0.00     0.000 O
ATOM     64  HD  SGN C   4     154.713  15.232  84.2650  0.00  0.00     0.000 HD
BRANCH 57 66
ATOM     64   N  SGN C   4     156.823  14.814  86.1360  0.00  0.00     0.000 N
ATOM     66  HD  SGN C   4     157.630  14.785  85.8240  0.00  0.00     0.000 HD
ATOM     66   S  SGN C   4     157.701  15.706  85.1470  0.00  0.00     0.000 S
ATOM     67   O  SGN C   4     158.930  15.981  85.7990  0.00  0.00     0.000 OA
ATOM     68   O  SGN C   4     157.711  15.044  83.8880  0.00  0.00     0.000 OA
ATOM     69   O  SGN C   4     156.879  17.028  85.0110  0.00  0.00     0.000 OA
ENDBRANCH 57 66
BRANCH 60 70
ATOM     70   C  SGN C   4     152.818  11.277  87.1470  0.00  0.00     0.000 C
ATOM     71   O  SGN C   4     152.924   8.203  84.9910  0.00  0.00     0.000 OA
ATOM     72   O  SGN C   4     154.184   8.632  87.0100  0.00  0.00     0.000 OA
ATOM     73   O  SGN C   4     152.918  10.414  85.9980  0.00  0.00     0.000 O
ATOM     74   S  SGN C   4     152.950   8.842  86.2870  0.00  0.00     0.000 S
ATOM     75   O  SGN C   4     151.765   8.586  87.0810  0.00  0.00     0.000 OA
ENDBRANCH 60 70
BRANCH 56 76
ATOM     76  O4  IDS C   5     155.700  14.099  88.3760  0.00  0.00     0.000 O
BRANCH 76 80
ATOM     77  C1  IDS C   5     153.998  16.693  91.0270  0.00  0.00     0.000 C
ATOM     78  C2  IDS C   5     154.707  17.363  89.8510  0.00  0.00     0.000 C
ATOM     79  C3  IDS C   5     154.908  16.359  88.7320  0.00  0.00     0.000 C
ATOM     80  C4  IDS C   5     155.869  15.267  89.1930  0.00  0.00     0.000 C
ATOM     81  C5  IDS C   5     155.593  14.935  90.6660  0.00  0.00     0.000 C
ATOM     82  O5  IDS C   5     154.252  15.288  91.0190  0.00  0.00     0.000 O
BRANCH 78 83
ATOM     83   O  IDS C   5     153.903  18.492  89.3280  0.00  0.00     0.000 O
ATOM     84   S  IDS C   5     154.633  19.811  88.8070  0.00  0.00     0.000 S
ATOM     85   O  IDS C   5     155.574  20.174  89.8330  0.00  0.00     0.000 OA
ATOM     86   O  IDS C   5     155.265  19.428  87.5660  0.00  0.00     0.000 OA
ATOM     87   O  IDS C   5     153.588  20.788  88.6210  0.00  0.00     0.000 OA
ENDBRANCH 78 83
BRANCH 81 88
ATOM     88   C  IDS C   5     155.787  13.471  91.0150  0.00  0.00     0.000 C
ATOM     89   O  IDS C   5     154.832  12.751  91.1310  0.00  0.00     0.000 OA
ATOM     90   O  IDS C   5     156.905  13.036  91.1720  0.00  0.00     0.000 OA
ENDBRANCH 81 88
ENDBRANCH 76 80
ENDBRANCH 56 76
ENDBRANCH 55 59
ENDBRANCH 39 55
ENDBRANCH 38 42
ENDBRANCH 18 38
ENDBRANCH 17 21
ENDBRANCH 1 17
TORSDOF 18
ENDMDL
MODEL 61
REMARK VINA RESULT:      -7.3     26.306     33.676
ROOT
ATOM      1  C1  IDS C   1     138.539  41.509  68.2640  0.00  0.00     0.000 C
ATOM      2  C2  IDS C   1     138.783  42.994  67.9810  0.00  0.00     0.000 C
ATOM      3  C3  IDS C   1     137.794  43.517  66.9500  0.00  0.00     0.000 C
ATOM      4  C4  IDS C   1     137.908  42.733  65.6500  0.00  0.00     0.000 C
ATOM      5  C5  IDS C   1     138.130  41.253  65.9490  0.00  0.00     0.000 C
ATOM      6  O5  IDS C   1     137.688  40.949  67.2730  0.00  0.00     0.000 O
ATOM      7   O  IDS C   1     138.040  44.909  66.7050  0.00  0.00     0.000 O
ATOM      9  HD  IDS C   1     138.274  45.280  67.4520  0.00  0.00     0.000 HD
ENDROOT
BRANCH 2 9
ATOM      9   O  IDS C   1     138.614  43.800  69.2120  0.00  0.00     0.000 O
ATOM     10   S  IDS C   1     139.813  44.721  69.7160  0.00  0.00     0.000 S
ATOM     11   O  IDS C   1     139.333  45.377  70.9120  0.00  0.00     0.000 OA
ATOM     12   O  IDS C   1     140.917  43.819  69.9720  0.00  0.00     0.000 OA
ATOM     13   O  IDS C   1     140.080  45.647  68.6380  0.00  0.00     0.000 OA
ENDBRANCH 2 9
BRANCH 5 14
ATOM     14   C  IDS C   1     137.388  40.354  64.9750  0.00  0.00     0.000 C
ATOM     15   O  IDS C   1     136.965  40.817  63.9440  0.00  0.00     0.000 OA
ATOM     16   O  IDS C   1     137.225  39.176  65.2430  0.00  0.00     0.000 OA
ENDBRANCH 5 14
BRANCH 1 17
ATOM     17  O4  SGN C   2     138.561  40.990  69.4950  0.00  0.00     0.000 O
BRANCH 17 21
ATOM     18  C1  SGN C   2     137.014  38.754  72.6790  0.00  0.00     0.000 C
ATOM     19  C2  SGN C   2     136.325  38.582  71.3200  0.00  0.00     0.000 C
ATOM     20  C3  SGN C   2     137.236  39.107  70.2040  0.00  0.00     0.000 C
ATOM     21  C4  SGN C   2     137.663  40.540  70.5060  0.00  0.00     0.000 C
ATOM     22  C5  SGN C   2     138.337  40.581  71.8740  0.00  0.00     0.000 C
ATOM     23  O5  SGN C   2     137.425  40.089  72.8840  0.00  0.00     0.000 O
ATOM     24   O  SGN C   2     136.566  39.030  68.9570  0.00  0.00     0.000 O
ATOM     26  HD  SGN C   2     137.233  38.958  69.5060  0.00  0.00     0.000 HD
BRANCH 19 28
ATOM     26   N  SGN C   2     135.603  37.317  71.5170  0.00  0.00     0.000 N
ATOM     28  HD  SGN C   2     135.576  37.693  72.2960  0.00  0.00     0.000 HD
ATOM     28   O  SGN C   2     134.118  35.538  70.5940  0.00  0.00     0.000 OA
ATOM     29   S  SGN C   2     134.129  37.068  70.9250  0.00  0.00     0.000 S
ATOM     30   O  SGN C   2     133.205  37.312  71.9650  0.00  0.00     0.000 OA
ATOM     31   O  SGN C   2     134.024  37.796  69.7080  0.00  0.00     0.000 OA
ENDBRANCH 19 28
BRANCH 22 32
ATOM     32   C  SGN C   2     138.748  41.970  72.2980  0.00  0.00     0.000 C
ATOM     33   S  SGN C   2     138.525  43.517  74.3460  0.00  0.00     0.000 S
ATOM     34   O  SGN C   2     137.153  43.837  74.0420  0.00  0.00     0.000 OA
ATOM     35   O  SGN C   2     138.784  43.360  75.7620  0.00  0.00     0.000 OA
ATOM     36   O  SGN C   2     139.489  44.358  73.6760  0.00  0.00     0.000 OA
ATOM     37   O  SGN C   2     138.736  42.061  73.7270  0.00  0.00     0.000 O
ENDBRANCH 22 32
BRANCH 18 38
ATOM     38  O4  IDS C   3     137.974  38.028  73.2560  0.00  0.00     0.000 O
BRANCH 38 42
ATOM     39  C1  IDS C   3     139.835  35.502  74.7680  0.00  0.00     0.000 C
ATOM     40  C2  IDS C   3     138.417  35.841  75.2550  0.00  0.00     0.000 C
ATOM     41  C3  IDS C   3     138.275  37.334  75.5460  0.00  0.00     0.000 C
ATOM     42  C4  IDS C   3     138.823  38.173  74.4000  0.00  0.00     0.000 C
ATOM     43  C5  IDS C   3     140.246  37.718  74.0570  0.00  0.00     0.000 C
ATOM     44  O5  IDS C   3     140.219  36.339  73.6910  0.00  0.00     0.000 O
ATOM     45   O  IDS C   3     138.973  37.650  76.7520  0.00  0.00     0.000 O
ATOM     47  HD  IDS C   3     139.784  37.542  77.0360  0.00  0.00     0.000 HD
BRANCH 40 47
ATOM     47   O  IDS C   3     137.414  35.491  74.2210  0.00  0.00     0.000 O
ATOM     48   S  IDS C   3     136.171  34.559  74.6000  0.00  0.00     0.000 S
ATOM     49   O  IDS C   3     136.690  33.209  74.6570  0.00  0.00     0.000 OA
ATOM     50   O  IDS C   3     135.218  34.741  73.5280  0.00  0.00     0.000 OA
ATOM     51   O  IDS C   3     135.687  35.025  75.8730  0.00  0.00     0.000 OA
ENDBRANCH 40 47
BRANCH 43 52
ATOM     52   C  IDS C   3     140.868  38.528  72.9420  0.00  0.00     0.000 C
ATOM     53   O  IDS C   3     140.881  38.091  71.8140  0.00  0.00     0.000 OA
ATOM     54   O  IDS C   3     141.347  39.607  73.1830  0.00  0.00     0.000 OA
ENDBRANCH 43 52
BRANCH 39 55
ATOM     55  O4  SGN C   4     140.837  35.172  75.5830  0.00  0.00     0.000 O
BRANCH 55 59
ATOM     56  C1  SGN C   4     143.320  32.117  77.0000  0.00  0.00     0.000 C
ATOM     57  C2  SGN C   4     142.438  31.779  75.7850  0.00  0.00     0.000 C
ATOM     58  C3  SGN C   4     141.899  33.051  75.1370  0.00  0.00     0.000 C
ATOM     59  C4  SGN C   4     141.241  33.948  76.1800  0.00  0.00     0.000 C
ATOM     60  C5  SGN C   4     142.245  34.219  77.2980  0.00  0.00     0.000 C
ATOM     61  O5  SGN C   4     142.611  32.959  77.8940  0.00  0.00     0.000 O
ATOM     62   O  SGN C   4     140.973  32.708  74.1150  0.00  0.00     0.000 O
ATOM     64  HD  SGN C   4     141.515  32.035  74.1500  0.00  0.00     0.000 HD
BRANCH 57 66
ATOM     64   N  SGN C   4     142.036  30.377  75.5930  0.00  0.00     0.000 N
ATOM     66  HD  SGN C   4     141.969  29.831  74.9240  0.00  0.00     0.000 HD
ATOM     66   S  SGN C   4     143.005  29.348  74.8530  0.00  0.00     0.000 S
ATOM     67   O  SGN C   4     142.323  28.108  74.7670  0.00  0.00     0.000 OA
ATOM     68   O  SGN C   4     143.456  29.982  73.6630  0.00  0.00     0.000 OA
ATOM     69   O  SGN C   4     144.214  29.207  75.8330  0.00  0.00     0.000 OA
ENDBRANCH 57 66
BRANCH 60 70
ATOM     70   C  SGN C   4     141.710  35.112  78.3960  0.00  0.00     0.000 C
ATOM     71   O  SGN C   4     139.899  34.028  81.5030  0.00  0.00     0.000 OA
ATOM     72   O  SGN C   4     142.218  34.682  81.3010  0.00  0.00     0.000 OA
ATOM     73   O  SGN C   4     140.898  34.353  79.3130  0.00  0.00     0.000 O
ATOM     74   S  SGN C   4     140.865  34.864  80.8280  0.00  0.00     0.000 S
ATOM     75   O  SGN C   4     140.465  36.254  80.7420  0.00  0.00     0.000 OA
ENDBRANCH 60 70
BRANCH 56 76
ATOM     76  O4  IDS C   5     144.634  32.317  77.2080  0.00  0.00     0.000 O
BRANCH 76 80
ATOM     77  C1  IDS C   5     148.619  32.889  76.5360  0.00  0.00     0.000 C
ATOM     78  C2  IDS C   5     147.989  31.772  75.7040  0.00  0.00     0.000 C
ATOM     79  C3  IDS C   5     146.481  31.928  75.6910  0.00  0.00     0.000 C
ATOM     80  C4  IDS C   5     145.934  31.717  77.1000  0.00  0.00     0.000 C
ATOM     81  C5  IDS C   5     146.899  32.341  78.1190  0.00  0.00     0.000 C
ATOM     82  O5  IDS C   5     147.685  33.366  77.5040  0.00  0.00     0.000 O
BRANCH 78 83
ATOM     83   O  IDS C   5     148.477  31.821  74.3060  0.00  0.00     0.000 O
ATOM     84   S  IDS C   5     149.800  31.027  73.9000  0.00  0.00     0.000 S
ATOM     85   O  IDS C   5     150.787  31.372  74.8880  0.00  0.00     0.000 OA
ATOM     86   O  IDS C   5     149.429  29.632  73.9300  0.00  0.00     0.000 OA
ATOM     87   O  IDS C   5     150.138  31.484  72.5740  0.00  0.00     0.000 OA
ENDBRANCH 78 83
BRANCH 81 88
ATOM     88   C  IDS C   5     146.210  32.953  79.3250  0.00  0.00     0.000 C
ATOM     89   O  IDS C   5     145.704  32.242  80.1510  0.00  0.00     0.000 OA
ATOM     90   O  IDS C   5     146.175  34.156  79.4470  0.00  0.00     0.000 OA
ENDBRANCH 81 88
ENDBRANCH 76 80
ENDBRANCH 56 76
ENDBRANCH 55 59
ENDBRANCH 39 55
ENDBRANCH 38 42
ENDBRANCH 18 38
ENDBRANCH 17 21
ENDBRANCH 1 17
TORSDOF 18
ENDMDL
MODEL 62
REMARK VINA RESULT:      -7.2     31.855     36.269
ROOT
ATOM      1  C1  IDS C   1     128.750  36.366  69.4210  0.00  0.00     0.000 C
ATOM      2  C2  IDS C   1     128.820  37.880  69.2040  0.00  0.00     0.000 C
ATOM      3  C3  IDS C   1     127.426  38.466  69.0310  0.00  0.00     0.000 C
ATOM      4  C4  IDS C   1     126.715  37.822  67.8490  0.00  0.00     0.000 C
ATOM      5  C5  IDS C   1     127.028  36.329  67.8010  0.00  0.00     0.000 C
ATOM      6  O5  IDS C   1     127.459  35.876  69.0840  0.00  0.00     0.000 O
ATOM      7   O  IDS C   1     127.517  39.884  68.8340  0.00  0.00     0.000 O
ATOM      9  HD  IDS C   1     128.163  40.187  69.3260  0.00  0.00     0.000 HD
ENDROOT
BRANCH 2 9
ATOM      9   O  IDS C   1     129.445  38.551  70.3660  0.00  0.00     0.000 O
ATOM     10   S  IDS C   1     130.675  39.539  70.1330  0.00  0.00     0.000 S
ATOM     11   O  IDS C   1     131.041  40.033  71.4410  0.00  0.00     0.000 OA
ATOM     12   O  IDS C   1     131.713  38.732  69.5240  0.00  0.00     0.000 OA
ATOM     13   O  IDS C   1     130.184  40.580  69.2570  0.00  0.00     0.000 OA
ENDBRANCH 2 9
BRANCH 5 14
ATOM     14   C  IDS C   1     125.825  35.505  67.3780  0.00  0.00     0.000 C
ATOM     15   O  IDS C   1     125.901  34.801  66.4000  0.00  0.00     0.000 OA
ATOM     16   O  IDS C   1     124.793  35.562  68.0260  0.00  0.00     0.000 OA
ENDBRANCH 5 14
BRANCH 1 17
ATOM     17  O4  SGN C   2     129.490  35.727  70.3320  0.00  0.00     0.000 O
BRANCH 17 21
ATOM     18  C1  SGN C   2     130.274  33.886  74.0090  0.00  0.00     0.000 C
ATOM     19  C2  SGN C   2     128.801  34.005  73.6020  0.00  0.00     0.000 C
ATOM     20  C3  SGN C   2     128.699  34.294  72.0990  0.00  0.00     0.000 C
ATOM     21  C4  SGN C   2     129.542  35.512  71.7400  0.00  0.00     0.000 C
ATOM     22  C5  SGN C   2     130.981  35.272  72.1890  0.00  0.00     0.000 C
ATOM     23  O5  SGN C   2     131.013  35.022  73.6130  0.00  0.00     0.000 O
ATOM     24   O  SGN C   2     127.343  34.491  71.7360  0.00  0.00     0.000 O
ATOM     26  HD  SGN C   2     128.151  34.192  71.6520  0.00  0.00     0.000 HD
BRANCH 19 28
ATOM     26   N  SGN C   2     128.171  33.018  74.4890  0.00  0.00     0.000 N
ATOM     28  HD  SGN C   2     128.802  33.358  74.9740  0.00  0.00     0.000 HD
ATOM     28   O  SGN C   2     126.115  31.813  75.2270  0.00  0.00     0.000 OA
ATOM     29   S  SGN C   2     126.722  33.254  75.1450  0.00  0.00     0.000 S
ATOM     30   O  SGN C   2     126.923  33.734  76.4580  0.00  0.00     0.000 OA
ATOM     31   O  SGN C   2     125.952  34.019  74.2270  0.00  0.00     0.000 OA
ENDBRANCH 19 28
BRANCH 22 32
ATOM     32   C  SGN C   2     131.892  36.447  71.9310  0.00  0.00     0.000 C
ATOM     33   S  SGN C   2     133.709  37.797  73.1640  0.00  0.00     0.000 S
ATOM     34   O  SGN C   2     132.739  38.511  73.9550  0.00  0.00     0.000 OA
ATOM     35   O  SGN C   2     134.907  37.442  73.8960  0.00  0.00     0.000 OA
ATOM     36   O  SGN C   2     133.977  38.396  71.8780  0.00  0.00     0.000 OA
ATOM     37   O  SGN C   2     133.001  36.404  72.8370  0.00  0.00     0.000 O
ENDBRANCH 22 32
BRANCH 18 38
ATOM     38  O4  IDS C   3     131.131  32.873  73.8570  0.00  0.00     0.000 O
BRANCH 38 42
ATOM     39  C1  IDS C   3     133.313  30.172  74.1300  0.00  0.00     0.000 C
ATOM     40  C2  IDS C   3     133.781  31.513  73.5410  0.00  0.00     0.000 C
ATOM     41  C3  IDS C   3     132.851  31.980  72.4220  0.00  0.00     0.000 C
ATOM     42  C4  IDS C   3     131.391  31.893  72.8470  0.00  0.00     0.000 C
ATOM     43  C5  IDS C   3     131.091  30.490  73.3890  0.00  0.00     0.000 C
ATOM     44  O5  IDS C   3     131.945  30.227  74.5010  0.00  0.00     0.000 O
ATOM     45   O  IDS C   3     133.064  31.174  71.2610  0.00  0.00     0.000 O
ATOM     47  HD  IDS C   3     133.047  30.325  71.0950  0.00  0.00     0.000 HD
BRANCH 40 47
ATOM     47   O  IDS C   3     133.787  32.566  74.5840  0.00  0.00     0.000 O
ATOM     48   S  IDS C   3     135.081  32.770  75.5010  0.00  0.00     0.000 S
ATOM     49   O  IDS C   3     135.048  31.701  76.4770  0.00  0.00     0.000 OA
ATOM     50   O  IDS C   3     134.918  34.074  76.1040  0.00  0.00     0.000 OA
ATOM     51   O  IDS C   3     136.218  32.689  74.6240  0.00  0.00     0.000 OA
ENDBRANCH 40 47
BRANCH 43 52
ATOM     52   C  IDS C   3     129.647  30.320  73.8060  0.00  0.00     0.000 C
ATOM     53   O  IDS C   3     129.373  30.144  74.9710  0.00  0.00     0.000 OA
ATOM     54   O  IDS C   3     128.776  30.361  72.9740  0.00  0.00     0.000 OA
ENDBRANCH 43 52
BRANCH 39 55
ATOM     55  O4  SGN C   4     133.702  28.985  73.6660  0.00  0.00     0.000 O
BRANCH 55 59
ATOM     56  C1  SGN C   4     135.186  26.126  76.3350  0.00  0.00     0.000 C
ATOM     57  C2  SGN C   4     136.084  27.346  76.0650  0.00  0.00     0.000 C
ATOM     58  C3  SGN C   4     135.286  28.471  75.4130  0.00  0.00     0.000 C
ATOM     59  C4  SGN C   4     134.521  27.954  74.2000  0.00  0.00     0.000 C
ATOM     60  C5  SGN C   4     133.655  26.773  74.6320  0.00  0.00     0.000 C
ATOM     61  O5  SGN C   4     134.521  25.740  75.1430  0.00  0.00     0.000 O
ATOM     62   O  SGN C   4     136.165  29.524  75.0400  0.00  0.00     0.000 O
ATOM     64  HD  SGN C   4     136.551  29.149  75.7180  0.00  0.00     0.000 HD
BRANCH 57 66
ATOM     64   N  SGN C   4     137.026  26.573  76.8910  0.00  0.00     0.000 N
ATOM     66  HD  SGN C   4     137.885  26.469  76.9270  0.00  0.00     0.000 HD
ATOM     66   S  SGN C   4     138.239  27.299  77.6320  0.00  0.00     0.000 S
ATOM     67   O  SGN C   4     138.997  26.297  78.2880  0.00  0.00     0.000 OA
ATOM     68   O  SGN C   4     138.872  28.137  76.6720  0.00  0.00     0.000 OA
ATOM     69   O  SGN C   4     137.537  28.200  78.6970  0.00  0.00     0.000 OA
ENDBRANCH 57 66
BRANCH 60 70
ATOM     70   C  SGN C   4     132.834  26.174  73.5110  0.00  0.00     0.000 C
ATOM     71   O  SGN C   4     129.309  27.066  72.5710  0.00  0.00     0.000 OA
ATOM     72   O  SGN C   4     131.349  27.775  71.4830  0.00  0.00     0.000 OA
ATOM     73   O  SGN C   4     131.466  26.618  73.5930  0.00  0.00     0.000 O
ATOM     74   S  SGN C   4     130.667  26.730  72.2120  0.00  0.00     0.000 S
ATOM     75   O  SGN C   4     130.797  25.421  71.6030  0.00  0.00     0.000 OA
ENDBRANCH 60 70
BRANCH 56 76
ATOM     76  O4  IDS C   5     134.453  25.683  77.3730  0.00  0.00     0.000 O
BRANCH 76 80
ATOM     77  C1  IDS C   5     133.179  24.455  81.0510  0.00  0.00     0.000 C
ATOM     78  C2  IDS C   5     134.559  23.935  80.6510  0.00  0.00     0.000 C
ATOM     79  C3  IDS C   5     135.116  24.772  79.5160  0.00  0.00     0.000 C
ATOM     80  C4  IDS C   5     134.255  24.581  78.2710  0.00  0.00     0.000 C
ATOM     81  C5  IDS C   5     132.779  24.483  78.6830  0.00  0.00     0.000 C
ATOM     82  O5  IDS C   5     132.567  25.121  79.9460  0.00  0.00     0.000 O
BRANCH 78 83
ATOM     83   O  IDS C   5     135.499  24.011  81.7950  0.00  0.00     0.000 O
ATOM     84   S  IDS C   5     136.296  22.709  82.2540  0.00  0.00     0.000 S
ATOM     85   O  IDS C   5     135.316  21.661  82.3580  0.00  0.00     0.000 OA
ATOM     86   O  IDS C   5     137.270  22.474  81.2140  0.00  0.00     0.000 OA
ATOM     87   O  IDS C   5     136.903  23.048  83.5180  0.00  0.00     0.000 OA
ENDBRANCH 78 83
BRANCH 81 88
ATOM     88   C  IDS C   5     131.819  25.108  77.6880  0.00  0.00     0.000 C
ATOM     89   O  IDS C   5     131.294  26.159  77.9410  0.00  0.00     0.000 OA
ATOM     90   O  IDS C   5     131.589  24.544  76.6420  0.00  0.00     0.000 OA
ENDBRANCH 81 88
ENDBRANCH 76 80
ENDBRANCH 56 76
ENDBRANCH 55 59
ENDBRANCH 39 55
ENDBRANCH 38 42
ENDBRANCH 18 38
ENDBRANCH 17 21
ENDBRANCH 1 17
TORSDOF 18
ENDMDL
MODEL 63
REMARK VINA RESULT:      -7.2     26.738     30.092
ROOT
ATOM      1  C1  IDS C   1     145.837  20.559  84.5430  0.00  0.00     0.000 C
ATOM      2  C2  IDS C   1     147.158  21.331  84.6030  0.00  0.00     0.000 C
ATOM      3  C3  IDS C   1     147.104  22.413  85.6710  0.00  0.00     0.000 C
ATOM      4  C4  IDS C   1     145.967  23.386  85.3930  0.00  0.00     0.000 C
ATOM      5  C5  IDS C   1     144.746  22.630  84.8780  0.00  0.00     0.000 C
ATOM      6  O5  IDS C   1     144.823  21.256  85.2570  0.00  0.00     0.000 O
ATOM      7   O  IDS C   1     148.353  23.118  85.7100  0.00  0.00     0.000 O
ATOM      9  HD  IDS C   1     148.990  22.552  85.5610  0.00  0.00     0.000 HD
ENDROOT
BRANCH 2 9
ATOM      9   O  IDS C   1     148.281  20.427  84.9390  0.00  0.00     0.000 O
ATOM     10   S  IDS C   1     149.430  20.170  83.8630  0.00  0.00     0.000 S
ATOM     11   O  IDS C   1     150.369  19.269  84.4930  0.00  0.00     0.000 OA
ATOM     12   O  IDS C   1     148.766  19.582  82.7180  0.00  0.00     0.000 OA
ATOM     13   O  IDS C   1     150.002  21.468  83.5780  0.00  0.00     0.000 OA
ENDBRANCH 2 9
BRANCH 5 14
ATOM     14   C  IDS C   1     143.446  23.205  85.4170  0.00  0.00     0.000 C
ATOM     15   O  IDS C   1     142.832  22.597  86.2590  0.00  0.00     0.000 OA
ATOM     16   O  IDS C   1     143.035  24.272  84.9930  0.00  0.00     0.000 OA
ENDBRANCH 5 14
BRANCH 1 17
ATOM     17  O4  SGN C   2     145.775  19.230  84.4250  0.00  0.00     0.000 O
BRANCH 17 21
ATOM     18  C1  SGN C   2     146.473  15.500  86.1940  0.00  0.00     0.000 C
ATOM     19  C2  SGN C   2     145.321  15.576  85.1840  0.00  0.00     0.000 C
ATOM     20  C3  SGN C   2     145.461  16.844  84.3310  0.00  0.00     0.000 C
ATOM     21  C4  SGN C   2     145.580  18.070  85.2300  0.00  0.00     0.000 C
ATOM     22  C5  SGN C   2     146.757  17.877  86.1810  0.00  0.00     0.000 C
ATOM     23  O5  SGN C   2     146.560  16.679  86.9660  0.00  0.00     0.000 O
ATOM     24   O  SGN C   2     144.352  16.962  83.4570  0.00  0.00     0.000 O
ATOM     26  HD  SGN C   2     145.185  16.993  83.6900  0.00  0.00     0.000 HD
BRANCH 19 28
ATOM     26   N  SGN C   2     145.105  14.156  84.8760  0.00  0.00     0.000 N
ATOM     28  HD  SGN C   2     145.285  14.158  85.7230  0.00  0.00     0.000 HD
ATOM     28   O  SGN C   2     143.920  12.415  83.5400  0.00  0.00     0.000 OA
ATOM     29   S  SGN C   2     143.644  13.553  84.5790  0.00  0.00     0.000 S
ATOM     30   O  SGN C   2     143.174  12.968  85.7760  0.00  0.00     0.000 OA
ATOM     31   O  SGN C   2     142.879  14.570  83.9460  0.00  0.00     0.000 OA
ENDBRANCH 19 28
BRANCH 22 32
ATOM     32   C  SGN C   2     146.929  19.015  87.1580  0.00  0.00     0.000 C
ATOM     33   S  SGN C   2     145.720  20.011  89.2050  0.00  0.00     0.000 S
ATOM     34   O  SGN C   2     144.715  20.646  88.3890  0.00  0.00     0.000 OA
ATOM     35   O  SGN C   2     145.202  19.458  90.4380  0.00  0.00     0.000 OA
ATOM     36   O  SGN C   2     146.916  20.800  89.3860  0.00  0.00     0.000 OA
ATOM     37   O  SGN C   2     146.180  18.745  88.3490  0.00  0.00     0.000 O
ENDBRANCH 22 32
BRANCH 18 38
ATOM     38  O4  IDS C   3     147.743  15.128  86.0260  0.00  0.00     0.000 O
BRANCH 38 42
ATOM     39  C1  IDS C   3     150.849  13.557  85.9030  0.00  0.00     0.000 C
ATOM     40  C2  IDS C   3     150.685  14.937  86.5600  0.00  0.00     0.000 C
ATOM     41  C3  IDS C   3     149.985  15.917  85.6190  0.00  0.00     0.000 C
ATOM     42  C4  IDS C   3     148.736  15.298  85.0080  0.00  0.00     0.000 C
ATOM     43  C5  IDS C   3     149.082  13.941  84.3820  0.00  0.00     0.000 C
ATOM     44  O5  IDS C   3     149.615  13.084  85.3900  0.00  0.00     0.000 O
ATOM     45   O  IDS C   3     150.889  16.304  84.5820  0.00  0.00     0.000 O
ATOM     47  HD  IDS C   3     151.363  15.881  83.9940  0.00  0.00     0.000 HD
BRANCH 40 47
ATOM     47   O  IDS C   3     149.861  14.833  87.7880  0.00  0.00     0.000 O
ATOM     48   S  IDS C   3     150.487  15.240  89.2020  0.00  0.00     0.000 S
ATOM     49   O  IDS C   3     151.337  14.137  89.5930  0.00  0.00     0.000 OA
ATOM     50   O  IDS C   3     149.354  15.405  90.0860  0.00  0.00     0.000 OA
ATOM     51   O  IDS C   3     151.219  16.460  88.9870  0.00  0.00     0.000 OA
ENDBRANCH 40 47
BRANCH 43 52
ATOM     52   C  IDS C   3     147.890  13.277  83.7280  0.00  0.00     0.000 C
ATOM     53   O  IDS C   3     147.407  12.285  84.2220  0.00  0.00     0.000 OA
ATOM     54   O  IDS C   3     147.428  13.742  82.7170  0.00  0.00     0.000 OA
ENDBRANCH 43 52
BRANCH 39 55
ATOM     55  O4  SGN C   4     151.909  13.207  85.1740  0.00  0.00     0.000 O
BRANCH 55 59
ATOM     56  C1  SGN C   4     155.550  13.593  87.1990  0.00  0.00     0.000 C
ATOM     57  C2  SGN C   4     155.422  14.348  85.8640  0.00  0.00     0.000 C
ATOM     58  C3  SGN C   4     153.960  14.452  85.4390  0.00  0.00     0.000 C
ATOM     59  C4  SGN C   4     153.292  13.081  85.4690  0.00  0.00     0.000 C
ATOM     60  C5  SGN C   4     153.475  12.477  86.8600  0.00  0.00     0.000 C
ATOM     61  O5  SGN C   4     154.887  12.342  87.1130  0.00  0.00     0.000 O
ATOM     62   O  SGN C   4     153.882  15.018  84.1380  0.00  0.00     0.000 O
ATOM     64  HD  SGN C   4     154.610  15.346  84.4730  0.00  0.00     0.000 HD
BRANCH 57 66
ATOM     64   N  SGN C   4     156.686  14.916  86.3590  0.00  0.00     0.000 N
ATOM     66  HD  SGN C   4     157.510  14.935  86.0930  0.00  0.00     0.000 HD
ATOM     66   S  SGN C   4     157.569  15.865  85.4270  0.00  0.00     0.000 S
ATOM     67   O  SGN C   4     158.741  16.199  86.1500  0.00  0.00     0.000 OA
ATOM     68   O  SGN C   4     157.686  15.217  84.1660  0.00  0.00     0.000 OA
ATOM     69   O  SGN C   4     156.684  17.141  85.2540  0.00  0.00     0.000 OA
ENDBRANCH 57 66
BRANCH 60 70
ATOM     70   C  SGN C   4     152.843  11.111  87.0210  0.00  0.00     0.000 C
ATOM     71   O  SGN C   4     153.246   8.158  84.7360  0.00  0.00     0.000 OA
ATOM     72   O  SGN C   4     154.345   8.542  86.8560  0.00  0.00     0.000 OA
ATOM     73   O  SGN C   4     153.063  10.312  85.8420  0.00  0.00     0.000 O
ATOM     74   S  SGN C   4     153.154   8.731  86.0590  0.00  0.00     0.000 S
ATOM     75   O  SGN C   4     151.932   8.381  86.7550  0.00  0.00     0.000 OA
ENDBRANCH 60 70
BRANCH 56 76
ATOM     76  O4  IDS C   5     155.600  13.939  88.4980  0.00  0.00     0.000 O
BRANCH 76 80
ATOM     77  C1  IDS C   5     155.517  15.295  92.3470  0.00  0.00     0.000 C
ATOM     78  C2  IDS C   5     154.830  13.946  92.1350  0.00  0.00     0.000 C
ATOM     79  C3  IDS C   5     155.286  13.338  90.8230  0.00  0.00     0.000 C
ATOM     80  C4  IDS C   5     154.804  14.204  89.6630  0.00  0.00     0.000 C
ATOM     81  C5  IDS C   5     154.907  15.684  90.0570  0.00  0.00     0.000 C
ATOM     82  O5  IDS C   5     155.882  15.863  91.0890  0.00  0.00     0.000 O
BRANCH 78 83
ATOM     83   O  IDS C   5     155.170  13.008  93.2300  0.00  0.00     0.000 O
ATOM     84   S  IDS C   5     154.006  12.357  94.1060  0.00  0.00     0.000 S
ATOM     85   O  IDS C   5     153.151  13.446  94.4980  0.00  0.00     0.000 OA
ATOM     86   O  IDS C   5     153.356  11.411  93.2300  0.00  0.00     0.000 OA
ATOM     87   O  IDS C   5     154.665  11.721  95.2200  0.00  0.00     0.000 OA
ENDBRANCH 78 83
BRANCH 81 88
ATOM     88   C  IDS C   5     155.283  16.603  88.9090  0.00  0.00     0.000 C
ATOM     89   O  IDS C   5     154.438  16.977  88.1410  0.00  0.00     0.000 OA
ATOM     90   O  IDS C   5     156.433  16.953  88.7740  0.00  0.00     0.000 OA
ENDBRANCH 81 88
ENDBRANCH 76 80
ENDBRANCH 56 76
ENDBRANCH 55 59
ENDBRANCH 39 55
ENDBRANCH 38 42
ENDBRANCH 18 38
ENDBRANCH 17 21
ENDBRANCH 1 17
TORSDOF 18
ENDMDL
MODEL 64
REMARK VINA RESULT:      -7.2     28.141     32.538
ROOT
ATOM      1  C1  IDS C   1     145.959  19.860  84.6330  0.00  0.00     0.000 C
ATOM      2  C2  IDS C   1     147.409  20.161  84.2420  0.00  0.00     0.000 C
ATOM      3  C3  IDS C   1     147.917  21.400  84.9640  0.00  0.00     0.000 C
ATOM      4  C4  IDS C   1     147.049  22.607  84.6370  0.00  0.00     0.000 C
ATOM      5  C5  IDS C   1     145.581  22.194  84.5760  0.00  0.00     0.000 C
ATOM      6  O5  IDS C   1     145.383  20.978  85.2970  0.00  0.00     0.000 O
ATOM      7   O  IDS C   1     149.277  21.658  84.5860  0.00  0.00     0.000 O
ATOM      9  HD  IDS C   1     149.681  20.899  84.4870  0.00  0.00     0.000 HD
ENDROOT
BRANCH 2 9
ATOM      9   O  IDS C   1     148.298  19.035  84.6080  0.00  0.00     0.000 O
ATOM     10   S  IDS C   1     149.167  18.323  83.4760  0.00  0.00     0.000 S
ATOM     11   O  IDS C   1     149.924  17.291  84.1480  0.00  0.00     0.000 OA
ATOM     12   O  IDS C   1     148.210  17.793  82.5260  0.00  0.00     0.000 OA
ATOM     13   O  IDS C   1     150.005  19.358  82.9130  0.00  0.00     0.000 OA
ENDBRANCH 2 9
BRANCH 5 14
ATOM     14   C  IDS C   1     144.663  23.254  85.1590  0.00  0.00     0.000 C
ATOM     15   O  IDS C   1     143.467  23.100  85.1020  0.00  0.00     0.000 OA
ATOM     16   O  IDS C   1     145.139  24.251  85.6750  0.00  0.00     0.000 OA
ENDBRANCH 5 14
BRANCH 1 17
ATOM     17  O4  SGN C   2     145.517  18.627  84.8960  0.00  0.00     0.000 O
BRANCH 17 21
ATOM     18  C1  SGN C   2     143.746  15.729  87.3430  0.00  0.00     0.000 C
ATOM     19  C2  SGN C   2     143.720  17.173  87.8590  0.00  0.00     0.000 C
ATOM     20  C3  SGN C   2     144.004  18.143  86.7060  0.00  0.00     0.000 C
ATOM     21  C4  SGN C   2     145.302  17.758  86.0050  0.00  0.00     0.000 C
ATOM     22  C5  SGN C   2     145.205  16.310  85.5350  0.00  0.00     0.000 C
ATOM     23  O5  SGN C   2     144.953  15.445  86.6670  0.00  0.00     0.000 O
ATOM     24   O  SGN C   2     144.066  19.471  87.1960  0.00  0.00     0.000 O
ATOM     26  HD  SGN C   2     143.850  18.837  86.6470  0.00  0.00     0.000 HD
BRANCH 19 28
ATOM     26   N  SGN C   2     142.455  17.395  88.5740  0.00  0.00     0.000 N
ATOM     28  HD  SGN C   2     142.318  16.661  88.1360  0.00  0.00     0.000 HD
ATOM     28   O  SGN C   2     141.261  18.253  90.5890  0.00  0.00     0.000 OA
ATOM     29   S  SGN C   2     142.315  17.177  90.1610  0.00  0.00     0.000 S
ATOM     30   O  SGN C   2     141.760  15.894  90.3670  0.00  0.00     0.000 OA
ATOM     31   O  SGN C   2     143.565  17.505  90.7530  0.00  0.00     0.000 OA
ENDBRANCH 19 28
BRANCH 22 32
ATOM     32   C  SGN C   2     146.466  15.808  84.8760  0.00  0.00     0.000 C
ATOM     33   S  SGN C   2     148.342  14.100  85.3290  0.00  0.00     0.000 S
ATOM     34   O  SGN C   2     148.989  14.961  86.2880  0.00  0.00     0.000 OA
ATOM     35   O  SGN C   2     148.364  12.700  85.6980  0.00  0.00     0.000 OA
ATOM     36   O  SGN C   2     148.738  14.340  83.9610  0.00  0.00     0.000 OA
ATOM     37   O  SGN C   2     146.803  14.518  85.4000  0.00  0.00     0.000 O
ENDBRANCH 22 32
BRANCH 18 38
ATOM     38  O4  IDS C   3     142.825  15.039  86.6670  0.00  0.00     0.000 O
BRANCH 38 42
ATOM     39  C1  IDS C   3     140.844  12.686  85.0330  0.00  0.00     0.000 C
ATOM     40  C2  IDS C   3     142.282  12.971  84.5690  0.00  0.00     0.000 C
ATOM     41  C3  IDS C   3     142.505  14.466  84.3470  0.00  0.00     0.000 C
ATOM     42  C4  IDS C   3     141.994  15.281  85.5270  0.00  0.00     0.000 C
ATOM     43  C5  IDS C   3     140.546  14.887  85.8420  0.00  0.00     0.000 C
ATOM     44  O5  IDS C   3     140.497  13.494  86.1450  0.00  0.00     0.000 O
ATOM     45   O  IDS C   3     141.833  14.873  83.1530  0.00  0.00     0.000 O
ATOM     47  HD  IDS C   3     141.020  14.821  82.8610  0.00  0.00     0.000 HD
BRANCH 40 47
ATOM     47   O  IDS C   3     143.257  12.522  85.5910  0.00  0.00     0.000 O
ATOM     48   S  IDS C   3     144.497  11.609  85.1610  0.00  0.00     0.000 S
ATOM     49   O  IDS C   3     143.964  10.276  84.9790  0.00  0.00     0.000 OA
ATOM     50   O  IDS C   3     145.428  11.686  86.2650  0.00  0.00     0.000 OA
ATOM     51   O  IDS C   3     145.015  12.173  83.9430  0.00  0.00     0.000 OA
ENDBRANCH 40 47
BRANCH 43 52
ATOM     52   C  IDS C   3     139.960  15.678  86.9900  0.00  0.00     0.000 C
ATOM     53   O  IDS C   3     139.997  16.887  86.9710  0.00  0.00     0.000 OA
ATOM     54   O  IDS C   3     139.457  15.098  87.9190  0.00  0.00     0.000 OA
ENDBRANCH 43 52
BRANCH 39 55
ATOM     55  O4  SGN C   4     139.832  12.448  84.1990  0.00  0.00     0.000 O
BRANCH 55 59
ATOM     56  C1  SGN C   4     138.258  10.815  80.6830  0.00  0.00     0.000 C
ATOM     57  C2  SGN C   4     139.256   9.940  81.4610  0.00  0.00     0.000 C
ATOM     58  C3  SGN C   4     139.441  10.463  82.8830  0.00  0.00     0.000 C
ATOM     59  C4  SGN C   4     139.766  11.952  82.8690  0.00  0.00     0.000 C
ATOM     60  C5  SGN C   4     138.674  12.686  82.0930  0.00  0.00     0.000 C
ATOM     61  O5  SGN C   4     138.655  12.175  80.7460  0.00  0.00     0.000 O
ATOM     62   O  SGN C   4     140.473   9.730  83.5290  0.00  0.00     0.000 O
ATOM     64  HD  SGN C   4     140.144   9.176  82.9500  0.00  0.00     0.000 HD
BRANCH 57 66
ATOM     64   N  SGN C   4     139.509   9.113  80.2700  0.00  0.00     0.000 N
ATOM     66  HD  SGN C   4     140.037   8.458  80.0640  0.00  0.00     0.000 HD
ATOM     66   S  SGN C   4     139.449   7.521  80.3600  0.00  0.00     0.000 S
ATOM     67   O  SGN C   4     139.794   7.010  79.0830  0.00  0.00     0.000 OA
ATOM     68   O  SGN C   4     140.215   7.139  81.4950  0.00  0.00     0.000 OA
ATOM     69   O  SGN C   4     137.943   7.222  80.6480  0.00  0.00     0.000 OA
ENDBRANCH 57 66
BRANCH 60 70
ATOM     70   C  SGN C   4     138.881  14.183  82.0170  0.00  0.00     0.000 C
ATOM     71   O  SGN C   4     136.703  16.673  80.2380  0.00  0.00     0.000 OA
ATOM     72   O  SGN C   4     136.766  16.198  82.6080  0.00  0.00     0.000 OA
ATOM     73   O  SGN C   4     137.961  14.773  81.0770  0.00  0.00     0.000 O
ATOM     74   S  SGN C   4     137.508  16.278  81.3700  0.00  0.00     0.000 S
ATOM     75   O  SGN C   4     138.746  17.022  81.4860  0.00  0.00     0.000 OA
ENDBRANCH 60 70
BRANCH 56 76
ATOM     76  O4  IDS C   5     136.933  10.788  80.4500  0.00  0.00     0.000 O
BRANCH 76 80
ATOM     77  C1  IDS C   5     133.080  11.009  79.1210  0.00  0.00     0.000 C
ATOM     78  C2  IDS C   5     133.990  12.130  78.6180  0.00  0.00     0.000 C
ATOM     79  C3  IDS C   5     135.442  11.729  78.7900  0.00  0.00     0.000 C
ATOM     80  C4  IDS C   5     135.765  11.605  80.2760  0.00  0.00     0.000 C
ATOM     81  C5  IDS C   5     134.565  10.989  81.0080  0.00  0.00     0.000 C
ATOM     82  O5  IDS C   5     133.761  10.227  80.1020  0.00  0.00     0.000 O
BRANCH 78 83
ATOM     83   O  IDS C   5     133.745  12.399  77.1820  0.00  0.00     0.000 O
ATOM     84   S  IDS C   5     133.547  13.900  76.6790  0.00  0.00     0.000 S
ATOM     85   O  IDS C   5     132.584  14.492  77.5690  0.00  0.00     0.000 OA
ATOM     86   O  IDS C   5     134.854  14.506  76.7730  0.00  0.00     0.000 OA
ATOM     87   O  IDS C   5     133.078  13.798  75.3190  0.00  0.00     0.000 OA
ENDBRANCH 78 83
BRANCH 81 88
ATOM     88   C  IDS C   5     134.948  10.076  82.1580  0.00  0.00     0.000 C
ATOM     89   O  IDS C   5     134.862   8.884  82.0300  0.00  0.00     0.000 OA
ATOM     90   O  IDS C   5     135.339  10.555  83.1980  0.00  0.00     0.000 OA
ENDBRANCH 81 88
ENDBRANCH 76 80
ENDBRANCH 56 76
ENDBRANCH 55 59
ENDBRANCH 39 55
ENDBRANCH 38 42
ENDBRANCH 18 38
ENDBRANCH 17 21
ENDBRANCH 1 17
TORSDOF 18
ENDMDL
MODEL 65
REMARK VINA RESULT:      -7.2     28.065     33.998
ROOT
ATOM      1  C1  IDS C   1     145.100  32.468  75.7560  0.00  0.00     0.000 C
ATOM      2  C2  IDS C   1     144.660  31.001  75.7230  0.00  0.00     0.000 C
ATOM      3  C3  IDS C   1     145.402  30.191  76.7770  0.00  0.00     0.000 C
ATOM      4  C4  IDS C   1     146.906  30.269  76.5540  0.00  0.00     0.000 C
ATOM      5  C5  IDS C   1     147.299  31.680  76.1260  0.00  0.00     0.000 C
ATOM      6  O5  IDS C   1     146.291  32.611  76.5190  0.00  0.00     0.000 O
ATOM      7   O  IDS C   1     144.970  28.824  76.7300  0.00  0.00     0.000 O
ATOM      9  HD  IDS C   1     144.123  28.812  76.5500  0.00  0.00     0.000 HD
ENDROOT
BRANCH 2 9
ATOM      9   O  IDS C   1     143.212  30.879  76.0050  0.00  0.00     0.000 O
ATOM     10   S  IDS C   1     142.257  30.203  74.9210  0.00  0.00     0.000 S
ATOM     11   O  IDS C   1     140.930  30.223  75.4940  0.00  0.00     0.000 OA
ATOM     12   O  IDS C   1     142.372  31.025  73.7340  0.00  0.00     0.000 OA
ATOM     13   O  IDS C   1     142.765  28.862  74.7290  0.00  0.00     0.000 OA
ENDBRANCH 2 9
BRANCH 5 14
ATOM     14   C  IDS C   1     148.621  32.116  76.7330  0.00  0.00     0.000 C
ATOM     15   O  IDS C   1     148.715  33.214  77.2250  0.00  0.00     0.000 OA
ATOM     16   O  IDS C   1     149.574  31.356  76.7180  0.00  0.00     0.000 OA
ENDBRANCH 5 14
BRANCH 1 17
ATOM     17  O4  SGN C   2     144.241  33.487  75.6610  0.00  0.00     0.000 O
BRANCH 17 21
ATOM     18  C1  SGN C   2     142.370  36.967  77.0430  0.00  0.00     0.000 C
ATOM     19  C2  SGN C   2     143.591  36.483  77.8350  0.00  0.00     0.000 C
ATOM     20  C3  SGN C   2     144.397  35.489  76.9910  0.00  0.00     0.000 C
ATOM     21  C4  SGN C   2     143.493  34.365  76.4970  0.00  0.00     0.000 C
ATOM     22  C5  SGN C   2     142.324  34.969  75.7240  0.00  0.00     0.000 C
ATOM     23  O5  SGN C   2     141.595  35.883  76.5760  0.00  0.00     0.000 O
ATOM     24   O  SGN C   2     145.476  34.974  77.7520  0.00  0.00     0.000 O
ATOM     26  HD  SGN C   2     145.081  35.291  77.0500  0.00  0.00     0.000 HD
BRANCH 19 28
ATOM     26   N  SGN C   2     144.029  37.719  78.4980  0.00  0.00     0.000 N
ATOM     28  HD  SGN C   2     143.193  37.864  78.3230  0.00  0.00     0.000 HD
ATOM     28   O  SGN C   2     145.484  38.838  80.1870  0.00  0.00     0.000 OA
ATOM     29   S  SGN C   2     144.327  37.789  80.0760  0.00  0.00     0.000 S
ATOM     30   O  SGN C   2     143.177  38.316  80.7040  0.00  0.00     0.000 OA
ATOM     31   O  SGN C   2     144.827  36.519  80.4770  0.00  0.00     0.000 OA
ENDBRANCH 19 28
BRANCH 22 32
ATOM     32   C  SGN C   2     141.332  33.941  75.2380  0.00  0.00     0.000 C
ATOM     33   S  SGN C   2     139.072  33.861  74.0020  0.00  0.00     0.000 S
ATOM     34   O  SGN C   2     138.337  34.256  75.1780  0.00  0.00     0.000 OA
ATOM     35   O  SGN C   2     138.571  34.450  72.7780  0.00  0.00     0.000 OA
ATOM     36   O  SGN C   2     139.304  32.439  73.9030  0.00  0.00     0.000 OA
ATOM     37   O  SGN C   2     140.517  34.508  74.2060  0.00  0.00     0.000 O
ENDBRANCH 22 32
BRANCH 18 38
ATOM     38  O4  IDS C   3     142.280  37.874  76.0680  0.00  0.00     0.000 O
BRANCH 38 42
ATOM     39  C1  IDS C   3     143.132  40.500  73.9450  0.00  0.00     0.000 C
ATOM     40  C2  IDS C   3     143.506  40.534  75.4350  0.00  0.00     0.000 C
ATOM     41  C3  IDS C   3     142.286  40.273  76.3170  0.00  0.00     0.000 C
ATOM     42  C4  IDS C   3     141.507  39.057  75.8350  0.00  0.00     0.000 C
ATOM     43  C5  IDS C   3     141.201  39.196  74.3390  0.00  0.00     0.000 C
ATOM     44  O5  IDS C   3     142.428  39.313  73.6210  0.00  0.00     0.000 O
ATOM     45   O  IDS C   3     141.439  41.424  76.3060  0.00  0.00     0.000 O
ATOM     47  HD  IDS C   3     141.052  41.892  75.6890  0.00  0.00     0.000 HD
BRANCH 40 47
ATOM     47   O  IDS C   3     144.509  39.487  75.7430  0.00  0.00     0.000 O
ATOM     48   S  IDS C   3     145.929  39.901  76.3530  0.00  0.00     0.000 S
ATOM     49   O  IDS C   3     146.702  40.418  75.2440  0.00  0.00     0.000 OA
ATOM     50   O  IDS C   3     146.483  38.678  76.8900  0.00  0.00     0.000 OA
ATOM     51   O  IDS C   3     145.666  40.894  77.3600  0.00  0.00     0.000 OA
ENDBRANCH 40 47
BRANCH 43 52
ATOM     52   C  IDS C   3     140.402  38.033  73.7940  0.00  0.00     0.000 C
ATOM     53   O  IDS C   3     140.832  37.389  72.8640  0.00  0.00     0.000 OA
ATOM     54   O  IDS C   3     139.340  37.753  74.2900  0.00  0.00     0.000 OA
ENDBRANCH 43 52
BRANCH 39 55
ATOM     55  O4  SGN C   4     142.733  41.572  73.2590  0.00  0.00     0.000 O
BRANCH 55 59
ATOM     56  C1  SGN C   4     145.379  43.222  70.4700  0.00  0.00     0.000 C
ATOM     57  C2  SGN C   4     145.680  43.502  71.9520  0.00  0.00     0.000 C
ATOM     58  C3  SGN C   4     144.904  42.544  72.8520  0.00  0.00     0.000 C
ATOM     59  C4  SGN C   4     143.424  42.542  72.4850  0.00  0.00     0.000 C
ATOM     60  C5  SGN C   4     143.287  42.218  70.9990  0.00  0.00     0.000 C
ATOM     61  O5  SGN C   4     143.978  43.236  70.2490  0.00  0.00     0.000 O
ATOM     62   O  SGN C   4     145.083  42.918  74.2120  0.00  0.00     0.000 O
ATOM     64  HD  SGN C   4     145.805  43.187  73.8160  0.00  0.00     0.000 HD
BRANCH 57 66
ATOM     64   N  SGN C   4     146.524  44.659  71.6130  0.00  0.00     0.000 N
ATOM     66  HD  SGN C   4     146.962  45.263  72.0520  0.00  0.00     0.000 HD
ATOM     66   S  SGN C   4     147.994  44.796  72.2190  0.00  0.00     0.000 S
ATOM     67   O  SGN C   4     148.527  46.028  71.7650  0.00  0.00     0.000 OA
ATOM     68   O  SGN C   4     147.894  44.550  73.6160  0.00  0.00     0.000 OA
ATOM     69   O  SGN C   4     148.779  43.617  71.5580  0.00  0.00     0.000 OA
ENDBRANCH 57 66
BRANCH 60 70
ATOM     70   C  SGN C   4     141.855  42.176  70.5130  0.00  0.00     0.000 C
ATOM     71   O  SGN C   4     139.485  39.270  70.7210  0.00  0.00     0.000 OA
ATOM     72   O  SGN C   4     139.556  41.220  72.1500  0.00  0.00     0.000 OA
ATOM     73   O  SGN C   4     141.339  40.833  70.5760  0.00  0.00     0.000 O
ATOM     74   S  SGN C   4     139.766  40.684  70.8250  0.00  0.00     0.000 S
ATOM     75   O  SGN C   4     139.149  41.474  69.7780  0.00  0.00     0.000 OA
ENDBRANCH 60 70
BRANCH 56 76
ATOM     76  O4  IDS C   5     145.937  42.474  69.4990  0.00  0.00     0.000 O
BRANCH 76 80
ATOM     77  C1  IDS C   5     146.696  38.998  67.5010  0.00  0.00     0.000 C
ATOM     78  C2  IDS C   5     146.995  38.946  68.9990  0.00  0.00     0.000 C
ATOM     79  C3  IDS C   5     146.287  40.087  69.7040  0.00  0.00     0.000 C
ATOM     80  C4  IDS C   5     146.872  41.417  69.2370  0.00  0.00     0.000 C
ATOM     81  C5  IDS C   5     147.184  41.337  67.7360  0.00  0.00     0.000 C
ATOM     82  O5  IDS C   5     146.380  40.333  67.1090  0.00  0.00     0.000 O
BRANCH 78 83
ATOM     83   O  IDS C   5     146.524  37.669  69.5840  0.00  0.00     0.000 O
ATOM     84   S  IDS C   5     146.814  37.345  71.1190  0.00  0.00     0.000 S
ATOM     85   O  IDS C   5     148.212  37.614  71.3220  0.00  0.00     0.000 OA
ATOM     86   O  IDS C   5     145.951  38.233  71.8620  0.00  0.00     0.000 OA
ATOM     87   O  IDS C   5     146.468  35.956  71.2970  0.00  0.00     0.000 OA
ENDBRANCH 78 83
BRANCH 81 88
ATOM     88   C  IDS C   5     146.956  42.638  66.9900  0.00  0.00     0.000 C
ATOM     89   O  IDS C   5     147.760  43.528  67.0780  0.00  0.00     0.000 OA
ATOM     90   O  IDS C   5     145.966  42.772  66.3080  0.00  0.00     0.000 OA
ENDBRANCH 81 88
ENDBRANCH 76 80
ENDBRANCH 56 76
ENDBRANCH 55 59
ENDBRANCH 39 55
ENDBRANCH 38 42
ENDBRANCH 18 38
ENDBRANCH 17 21
ENDBRANCH 1 17
TORSDOF 18
ENDMDL
MODEL 66
REMARK VINA RESULT:      -7.1     40.915     44.628
ROOT
ATOM      1  C1  IDS C   1     122.823  33.589  63.4230  0.00  0.00     0.000 C
ATOM      2  C2  IDS C   1     122.643  34.061  61.9780  0.00  0.00     0.000 C
ATOM      3  C3  IDS C   1     121.307  33.594  61.4190  0.00  0.00     0.000 C
ATOM      4  C4  IDS C   1     121.207  32.075  61.4680  0.00  0.00     0.000 C
ATOM      5  C5  IDS C   1     121.824  31.551  62.7600  0.00  0.00     0.000 C
ATOM      6  O5  IDS C   1     121.865  32.588  63.7410  0.00  0.00     0.000 O
ATOM      7   O  IDS C   1     121.160  34.052  60.0670  0.00  0.00     0.000 O
ATOM      9  HD  IDS C   1     121.514  34.840  60.0070  0.00  0.00     0.000 HD
ENDROOT
BRANCH 2 9
ATOM      9   O  IDS C   1     122.667  35.539  61.9000  0.00  0.00     0.000 O
ATOM     10   S  IDS C   1     123.924  36.269  61.2440  0.00  0.00     0.000 S
ATOM     11   O  IDS C   1     123.638  37.685  61.3060  0.00  0.00     0.000 OA
ATOM     12   O  IDS C   1     125.063  35.888  62.0540  0.00  0.00     0.000 OA
ATOM     13   O  IDS C   1     124.006  35.773  59.8880  0.00  0.00     0.000 OA
ENDBRANCH 2 9
BRANCH 5 14
ATOM     14   C  IDS C   1     121.047  30.378  63.3320  0.00  0.00     0.000 C
ATOM     15   O  IDS C   1     120.192  30.579  64.1590  0.00  0.00     0.000 OA
ATOM     16   O  IDS C   1     121.294  29.245  62.9530  0.00  0.00     0.000 OA
ENDBRANCH 5 14
BRANCH 1 17
ATOM     17  O4  SGN C   2     123.316  34.371  64.3880  0.00  0.00     0.000 O
BRANCH 17 21
ATOM     18  C1  SGN C   2     123.010  37.455  67.2020  0.00  0.00     0.000 C
ATOM     19  C2  SGN C   2     123.598  36.129  67.6990  0.00  0.00     0.000 C
ATOM     20  C3  SGN C   2     124.034  35.273  66.5020  0.00  0.00     0.000 C
ATOM     21  C4  SGN C   2     122.876  35.111  65.5240  0.00  0.00     0.000 C
ATOM     22  C5  SGN C   2     122.384  36.492  65.1020  0.00  0.00     0.000 C
ATOM     23  O5  SGN C   2     121.973  37.243  66.2680  0.00  0.00     0.000 O
ATOM     24   O  SGN C   2     124.497  34.012  66.9540  0.00  0.00     0.000 O
ATOM     26  HD  SGN C   2     124.500  34.734  66.4750  0.00  0.00     0.000 HD
BRANCH 19 28
ATOM     26   N  SGN C   2     124.350  36.562  68.8840  0.00  0.00     0.000 N
ATOM     28  HD  SGN C   2     123.735  37.166  68.7980  0.00  0.00     0.000 HD
ATOM     28   O  SGN C   2     125.672  35.964  70.9130  0.00  0.00     0.000 OA
ATOM     29   S  SGN C   2     124.242  35.800  70.2960  0.00  0.00     0.000 S
ATOM     30   O  SGN C   2     123.321  36.513  71.0950  0.00  0.00     0.000 OA
ATOM     31   O  SGN C   2     124.020  34.422  70.0270  0.00  0.00     0.000 OA
ENDBRANCH 19 28
BRANCH 22 32
ATOM     32   C  SGN C   2     121.195  36.445  64.1730  0.00  0.00     0.000 C
ATOM     33   S  SGN C   2     119.349  38.022  63.3060  0.00  0.00     0.000 S
ATOM     34   O  SGN C   2     118.602  37.935  64.5360  0.00  0.00     0.000 OA
ATOM     35   O  SGN C   2     119.348  39.345  62.7180  0.00  0.00     0.000 OA
ATOM     36   O  SGN C   2     119.053  36.972  62.3610  0.00  0.00     0.000 OA
ATOM     37   O  SGN C   2     120.863  37.772  63.7480  0.00  0.00     0.000 O
ENDBRANCH 22 32
BRANCH 18 38
ATOM     38  O4  IDS C   3     123.621  38.558  66.7630  0.00  0.00     0.000 O
BRANCH 38 42
ATOM     39  C1  IDS C   3     126.038  40.921  65.9230  0.00  0.00     0.000 C
ATOM     40  C2  IDS C   3     126.099  40.167  67.2610  0.00  0.00     0.000 C
ATOM     41  C3  IDS C   3     124.772  40.269  68.0130  0.00  0.00     0.000 C
ATOM     42  C4  IDS C   3     123.596  39.949  67.1010  0.00  0.00     0.000 C
ATOM     43  C5  IDS C   3     123.680  40.799  65.8280  0.00  0.00     0.000 C
ATOM     44  O5  IDS C   3     124.911  40.521  65.1620  0.00  0.00     0.000 O
ATOM     45   O  IDS C   3     124.627  41.589  68.5420  0.00  0.00     0.000 O
ATOM     47  HD  IDS C   3     124.645  42.387  68.2070  0.00  0.00     0.000 HD
BRANCH 40 47
ATOM     47   O  IDS C   3     126.373  38.728  67.0370  0.00  0.00     0.000 O
ATOM     48   S  IDS C   3     127.409  37.959  67.9810  0.00  0.00     0.000 S
ATOM     49   O  IDS C   3     128.727  38.355  67.5320  0.00  0.00     0.000 OA
ATOM     50   O  IDS C   3     127.151  36.552  67.7630  0.00  0.00     0.000 OA
ATOM     51   O  IDS C   3     127.127  38.385  69.3260  0.00  0.00     0.000 OA
ENDBRANCH 40 47
BRANCH 43 52
ATOM     52   C  IDS C   3     122.525  40.554  64.8820  0.00  0.00     0.000 C
ATOM     53   O  IDS C   3     121.396  40.814  65.2300  0.00  0.00     0.000 OA
ATOM     54   O  IDS C   3     122.735  40.101  63.7860  0.00  0.00     0.000 OA
ENDBRANCH 43 52
BRANCH 39 55
ATOM     55  O4  SGN C   4     126.358  42.207  65.7850  0.00  0.00     0.000 O
BRANCH 55 59
ATOM     56  C1  SGN C   4     127.644  43.562  62.0410  0.00  0.00     0.000 C
ATOM     57  C2  SGN C   4     128.639  42.702  62.8400  0.00  0.00     0.000 C
ATOM     58  C3  SGN C   4     127.928  41.960  63.9680  0.00  0.00     0.000 C
ATOM     59  C4  SGN C   4     127.095  42.925  64.8050  0.00  0.00     0.000 C
ATOM     60  C5  SGN C   4     126.139  43.677  63.8810  0.00  0.00     0.000 C
ATOM     61  O5  SGN C   4     126.923  44.411  62.9190  0.00  0.00     0.000 O
ATOM     62   O  SGN C   4     128.887  41.294  64.7780  0.00  0.00     0.000 O
ATOM     64  HD  SGN C   4     129.254  41.332  63.9940  0.00  0.00     0.000 HD
BRANCH 57 66
ATOM     64   N  SGN C   4     129.433  42.946  61.6250  0.00  0.00     0.000 N
ATOM     66  HD  SGN C   4     130.248  43.177  61.4460  0.00  0.00     0.000 HD
ATOM     66   S  SGN C   4     130.814  42.183  61.3920  0.00  0.00     0.000 S
ATOM     67   O  SGN C   4     131.368  42.667  60.1800  0.00  0.00     0.000 OA
ATOM     68   O  SGN C   4     131.561  42.297  62.5960  0.00  0.00     0.000 OA
ATOM     69   O  SGN C   4     130.388  40.691  61.2070  0.00  0.00     0.000 OA
ENDBRANCH 57 66
BRANCH 60 70
ATOM     70   C  SGN C   4     125.246  44.664  64.6000  0.00  0.00     0.000 C
ATOM     71   O  SGN C   4     121.739  44.070  65.8080  0.00  0.00     0.000 OA
ATOM     72   O  SGN C   4     123.771  44.064  67.1190  0.00  0.00     0.000 OA
ATOM     73   O  SGN C   4     123.907  44.143  64.7150  0.00  0.00     0.000 O
ATOM     74   S  SGN C   4     123.064  44.619  65.9870  0.00  0.00     0.000 S
ATOM     75   O  SGN C   4     123.101  46.067  65.9360  0.00  0.00     0.000 OA
ENDBRANCH 60 70
BRANCH 56 76
ATOM     76  O4  IDS C   5     126.897  43.392  60.9350  0.00  0.00     0.000 O
BRANCH 76 80
ATOM     77  C1  IDS C   5     124.086  42.950  58.0090  0.00  0.00     0.000 C
ATOM     78  C2  IDS C   5     123.649  42.456  59.3880  0.00  0.00     0.000 C
ATOM     79  C3  IDS C   5     124.548  43.049  60.4550  0.00  0.00     0.000 C
ATOM     80  C4  IDS C   5     125.966  42.514  60.2830  0.00  0.00     0.000 C
ATOM     81  C5  IDS C   5     126.291  42.404  58.7870  0.00  0.00     0.000 C
ATOM     82  O5  IDS C   5     125.470  43.297  58.0280  0.00  0.00     0.000 O
BRANCH 78 83
ATOM     83   O  IDS C   5     122.253  42.862  59.6720  0.00  0.00     0.000 O
ATOM     84   S  IDS C   5     121.450  42.163  60.8600  0.00  0.00     0.000 S
ATOM     85   O  IDS C   5     121.633  40.747  60.6820  0.00  0.00     0.000 OA
ATOM     86   O  IDS C   5     122.052  42.665  62.0720  0.00  0.00     0.000 OA
ATOM     87   O  IDS C   5     120.079  42.583  60.7050  0.00  0.00     0.000 OA
ENDBRANCH 78 83
BRANCH 81 88
ATOM     88   C  IDS C   5     127.738  42.711  58.4460  0.00  0.00     0.000 C
ATOM     89   O  IDS C   5     128.589  41.888  58.6510  0.00  0.00     0.000 OA
ATOM     90   O  IDS C   5     128.025  43.785  57.9680  0.00  0.00     0.000 OA
ENDBRANCH 81 88
ENDBRANCH 76 80
ENDBRANCH 56 76
ENDBRANCH 55 59
ENDBRANCH 39 55
ENDBRANCH 38 42
ENDBRANCH 18 38
ENDBRANCH 17 21
ENDBRANCH 1 17
TORSDOF 18
ENDMDL
MODEL 67
REMARK VINA RESULT:      -7.0     22.400     28.363
ROOT
ATOM      1  C1  IDS C   1     164.219  21.753  80.2390  0.00  0.00     0.000 C
ATOM      2  C2  IDS C   1     164.870  21.567  78.8660  0.00  0.00     0.000 C
ATOM      3  C3  IDS C   1     165.265  22.910  78.2690  0.00  0.00     0.000 C
ATOM      4  C4  IDS C   1     164.049  23.815  78.1300  0.00  0.00     0.000 C
ATOM      5  C5  IDS C   1     163.134  23.652  79.3400  0.00  0.00     0.000 C
ATOM      6  O5  IDS C   1     163.868  23.116  80.4410  0.00  0.00     0.000 O
ATOM      7   O  IDS C   1     165.876  22.710  76.9860  0.00  0.00     0.000 O
ATOM      9  HD  IDS C   1     166.348  21.985  77.0200  0.00  0.00     0.000 HD
ENDROOT
BRANCH 2 9
ATOM      9   O  IDS C   1     166.098  20.747  78.9710  0.00  0.00     0.000 O
ATOM     10   S  IDS C   1     166.273  19.473  78.0280  0.00  0.00     0.000 S
ATOM     11   O  IDS C   1     167.561  18.907  78.3620  0.00  0.00     0.000 OA
ATOM     12   O  IDS C   1     165.169  18.593  78.3540  0.00  0.00     0.000 OA
ATOM     13   O  IDS C   1     166.214  19.973  76.6730  0.00  0.00     0.000 OA
ENDBRANCH 2 9
BRANCH 5 14
ATOM     14   C  IDS C   1     162.514  24.970  79.7710  0.00  0.00     0.000 C
ATOM     15   O  IDS C   1     161.384  25.231  79.4370  0.00  0.00     0.000 OA
ATOM     16   O  IDS C   1     163.161  25.751  80.4470  0.00  0.00     0.000 OA
ENDBRANCH 5 14
BRANCH 1 17
ATOM     17  O4  SGN C   2     164.498  20.973  81.2880  0.00  0.00     0.000 O
BRANCH 17 21
ATOM     18  C1  SGN C   2     166.325  19.969  84.9180  0.00  0.00     0.000 C
ATOM     19  C2  SGN C   2     166.265  21.461  84.5690  0.00  0.00     0.000 C
ATOM     20  C3  SGN C   2     165.225  21.696  83.4670  0.00  0.00     0.000 C
ATOM     21  C4  SGN C   2     165.511  20.791  82.2740  0.00  0.00     0.000 C
ATOM     22  C5  SGN C   2     165.540  19.340  82.7450  0.00  0.00     0.000 C
ATOM     23  O5  SGN C   2     166.549  19.179  83.7690  0.00  0.00     0.000 O
ATOM     24   O  SGN C   2     165.229  23.060  83.0820  0.00  0.00     0.000 O
ATOM     26  HD  SGN C   2     164.880  22.295  83.2870  0.00  0.00     0.000 HD
BRANCH 19 28
ATOM     26   N  SGN C   2     166.491  22.078  85.8840  0.00  0.00     0.000 N
ATOM     28  HD  SGN C   2     166.973  21.359  85.9080  0.00  0.00     0.000 HD
ATOM     28   O  SGN C   2     166.705  24.143  87.2670  0.00  0.00     0.000 OA
ATOM     29   S  SGN C   2     167.387  23.400  86.0690  0.00  0.00     0.000 S
ATOM     30   O  SGN C   2     168.677  22.987  86.4700  0.00  0.00     0.000 OA
ATOM     31   O  SGN C   2     167.235  24.193  84.8990  0.00  0.00     0.000 OA
ENDBRANCH 19 28
BRANCH 22 32
ATOM     32   C  SGN C   2     165.875  18.361  81.6470  0.00  0.00     0.000 C
ATOM     33   S  SGN C   2     167.337  16.268  81.2940  0.00  0.00     0.000 S
ATOM     34   O  SGN C   2     168.547  17.046  81.1960  0.00  0.00     0.000 OA
ATOM     35   O  SGN C   2     167.505  15.022  82.0130  0.00  0.00     0.000 OA
ATOM     36   O  SGN C   2     166.629  16.121  80.0450  0.00  0.00     0.000 OA
ATOM     37   O  SGN C   2     166.378  17.148  82.2190  0.00  0.00     0.000 O
ENDBRANCH 22 32
BRANCH 18 38
ATOM     38  O4  IDS C   3     165.509  19.226  85.6680  0.00  0.00     0.000 O
BRANCH 38 42
ATOM     39  C1  IDS C   3     162.993  18.561  87.9830  0.00  0.00     0.000 C
ATOM     40  C2  IDS C   3     163.943  19.754  88.1670  0.00  0.00     0.000 C
ATOM     41  C3  IDS C   3     165.405  19.317  88.0760  0.00  0.00     0.000 C
ATOM     42  C4  IDS C   3     165.641  18.437  86.8560  0.00  0.00     0.000 C
ATOM     43  C5  IDS C   3     164.623  17.290  86.8380  0.00  0.00     0.000 C
ATOM     44  O5  IDS C   3     163.306  17.835  86.8050  0.00  0.00     0.000 O
ATOM     45   O  IDS C   3     165.760  18.602  89.2610  0.00  0.00     0.000 O
ATOM     47  HD  IDS C   3     165.446  17.910  89.6760  0.00  0.00     0.000 HD
BRANCH 40 47
ATOM     47   O  IDS C   3     163.716  20.769  87.1110  0.00  0.00     0.000 O
ATOM     48   S  IDS C   3     163.264  22.250  87.5140  0.00  0.00     0.000 S
ATOM     49   O  IDS C   3     161.856  22.162  87.8350  0.00  0.00     0.000 OA
ATOM     50   O  IDS C   3     163.515  23.056  86.3400  0.00  0.00     0.000 OA
ATOM     51   O  IDS C   3     164.071  22.628  88.6430  0.00  0.00     0.000 OA
ENDBRANCH 40 47
BRANCH 43 52
ATOM     52   C  IDS C   3     164.815  16.355  85.6640  0.00  0.00     0.000 C
ATOM     53   O  IDS C   3     163.874  16.071  84.9590  0.00  0.00     0.000 OA
ATOM     54   O  IDS C   3     165.907  15.898  85.4370  0.00  0.00     0.000 OA
ENDBRANCH 43 52
BRANCH 39 55
ATOM     55  O4  SGN C   4     162.556  17.802  88.9880  0.00  0.00     0.000 O
BRANCH 55 59
ATOM     56  C1  SGN C   4     158.984  15.675  88.5160  0.00  0.00     0.000 C
ATOM     57  C2  SGN C   4     158.860  17.199  88.6850  0.00  0.00     0.000 C
ATOM     58  C3  SGN C   4     160.205  17.881  88.4500  0.00  0.00     0.000 C
ATOM     59  C4  SGN C   4     161.293  17.227  89.2940  0.00  0.00     0.000 C
ATOM     60  C5  SGN C   4     161.316  15.730  88.9920  0.00  0.00     0.000 C
ATOM     61  O5  SGN C   4     160.029  15.180  89.3380  0.00  0.00     0.000 O
ATOM     62   O  SGN C   4     160.096  19.265  88.7560  0.00  0.00     0.000 O
ATOM     64  HD  SGN C   4     159.298  19.034  88.5120  0.00  0.00     0.000 HD
BRANCH 57 66
ATOM     64   N  SGN C   4     157.653  17.263  87.8440  0.00  0.00     0.000 N
ATOM     66  HD  SGN C   4     156.819  17.046  87.9290  0.00  0.00     0.000 HD
ATOM     66   S  SGN C   4     156.331  17.980  88.3760  0.00  0.00     0.000 S
ATOM     67   O  SGN C   4     155.334  17.827  87.3790  0.00  0.00     0.000 OA
ATOM     68   O  SGN C   4     156.089  17.487  89.6880  0.00  0.00     0.000 OA
ATOM     69   O  SGN C   4     156.739  19.485  88.4740  0.00  0.00     0.000 OA
ENDBRANCH 57 66
BRANCH 60 70
ATOM     70   C  SGN C   4     162.368  14.967  89.7660  0.00  0.00     0.000 C
ATOM     71   O  SGN C   4     162.512  14.465  93.4850  0.00  0.00     0.000 OA
ATOM     72   O  SGN C   4     161.763  12.887  91.8130  0.00  0.00     0.000 OA
ATOM     73   O  SGN C   4     162.201  15.171  91.1820  0.00  0.00     0.000 O
ATOM     74   S  SGN C   4     162.661  13.972  92.1350  0.00  0.00     0.000 S
ATOM     75   O  SGN C   4     164.038  13.712  91.7640  0.00  0.00     0.000 OA
ENDBRANCH 60 70
BRANCH 56 76
ATOM     76  O4  IDS C   5     158.812  14.801  87.5070  0.00  0.00     0.000 O
BRANCH 76 80
ATOM     77  C1  IDS C   5     158.828  11.697  84.8570  0.00  0.00     0.000 C
ATOM     78  C2  IDS C   5     160.176  11.966  85.5270  0.00  0.00     0.000 C
ATOM     79  C3  IDS C   5     159.972  12.806  86.7720  0.00  0.00     0.000 C
ATOM     80  C4  IDS C   5     159.452  14.186  86.3790  0.00  0.00     0.000 C
ATOM     81  C5  IDS C   5     158.464  14.043  85.2130  0.00  0.00     0.000 C
ATOM     82  O5  IDS C   5     157.900  12.728  85.1900  0.00  0.00     0.000 O
BRANCH 78 83
ATOM     83   O  IDS C   5     160.829  10.696  85.9200  0.00  0.00     0.000 O
ATOM     84   S  IDS C   5     162.175  10.239  85.1960  0.00  0.00     0.000 S
ATOM     85   O  IDS C   5     161.929  10.371  83.7840  0.00  0.00     0.000 OA
ATOM     86   O  IDS C   5     163.191  11.142  85.6820  0.00  0.00     0.000 OA
ATOM     87   O  IDS C   5     162.398   8.876  85.6100  0.00  0.00     0.000 OA
ENDBRANCH 78 83
BRANCH 81 88
ATOM     88   C  IDS C   5     157.314  15.033  85.2560  0.00  0.00     0.000 C
ATOM     89   O  IDS C   5     156.213  14.659  85.5580  0.00  0.00     0.000 OA
ATOM     90   O  IDS C   5     157.514  16.195  84.9860  0.00  0.00     0.000 OA
ENDBRANCH 81 88
ENDBRANCH 76 80
ENDBRANCH 56 76
ENDBRANCH 55 59
ENDBRANCH 39 55
ENDBRANCH 38 42
ENDBRANCH 18 38
ENDBRANCH 17 21
ENDBRANCH 1 17
TORSDOF 18
ENDMDL
MODEL 68
REMARK VINA RESULT:      -7.0     19.902     25.828
ROOT
ATOM      1  C1  IDS C   1     164.042  26.211  74.7150  0.00  0.00     0.000 C
ATOM      2  C2  IDS C   1     162.965  27.294  74.6080  0.00  0.00     0.000 C
ATOM      3  C3  IDS C   1     161.578  26.671  74.5410  0.00  0.00     0.000 C
ATOM      4  C4  IDS C   1     161.467  25.732  73.3480  0.00  0.00     0.000 C
ATOM      5  C5  IDS C   1     162.766  24.950  73.1750  0.00  0.00     0.000 C
ATOM      6  O5  IDS C   1     163.497  24.936  74.4010  0.00  0.00     0.000 O
ATOM      7   O  IDS C   1     160.587  27.703  74.4460  0.00  0.00     0.000 O
ATOM      9  HD  IDS C   1     160.845  28.374  74.9290  0.00  0.00     0.000 HD
ENDROOT
BRANCH 2 9
ATOM      9   O  IDS C   1     162.997  28.187  75.7870  0.00  0.00     0.000 O
ATOM     10   S  IDS C   1     163.034  29.767  75.5730  0.00  0.00     0.000 S
ATOM     11   O  IDS C   1     163.045  30.347  76.8970  0.00  0.00     0.000 OA
ATOM     12   O  IDS C   1     164.251  30.031  74.8310  0.00  0.00     0.000 OA
ATOM     13   O  IDS C   1     161.839  30.093  74.8270  0.00  0.00     0.000 OA
ENDBRANCH 2 9
BRANCH 5 14
ATOM     14   C  IDS C   1     162.517  23.514  72.7460  0.00  0.00     0.000 C
ATOM     15   O  IDS C   1     163.445  22.746  72.6760  0.00  0.00     0.000 OA
ATOM     16   O  IDS C   1     161.385  23.151  72.4740  0.00  0.00     0.000 OA
ENDBRANCH 5 14
BRANCH 1 17
ATOM     17  O4  SGN C   2     165.088  26.304  75.5420  0.00  0.00     0.000 O
BRANCH 17 21
ATOM     18  C1  SGN C   2     167.271  25.644  79.0520  0.00  0.00     0.000 C
ATOM     19  C2  SGN C   2     166.165  24.630  78.7300  0.00  0.00     0.000 C
ATOM     20  C3  SGN C   2     165.763  24.752  77.2550  0.00  0.00     0.000 C
ATOM     21  C4  SGN C   2     165.395  26.195  76.9290  0.00  0.00     0.000 C
ATOM     22  C5  SGN C   2     166.570  27.101  77.2870  0.00  0.00     0.000 C
ATOM     23  O5  SGN C   2     166.891  26.954  78.6890  0.00  0.00     0.000 O
ATOM     24   O  SGN C   2     164.682  23.878  76.9760  0.00  0.00     0.000 O
ATOM     26  HD  SGN C   2     165.436  24.279  76.8320  0.00  0.00     0.000 HD
BRANCH 19 28
ATOM     26   N  SGN C   2     166.588  23.275  79.1100  0.00  0.00     0.000 N
ATOM     28  HD  SGN C   2     167.333  23.713  79.0440  0.00  0.00     0.000 HD
ATOM     28   O  SGN C   2     166.127  21.163  80.3530  0.00  0.00     0.000 OA
ATOM     29   S  SGN C   2     166.369  22.691  80.5920  0.00  0.00     0.000 S
ATOM     30   O  SGN C   2     167.583  22.851  81.2960  0.00  0.00     0.000 OA
ATOM     31   O  SGN C   2     165.176  23.264  81.1100  0.00  0.00     0.000 OA
ENDBRANCH 19 28
BRANCH 22 32
ATOM     32   C  SGN C   2     166.288  28.566  77.0560  0.00  0.00     0.000 C
ATOM     33   S  SGN C   2     166.621  30.818  78.2640  0.00  0.00     0.000 S
ATOM     34   O  SGN C   2     165.519  30.578  79.1620  0.00  0.00     0.000 OA
ATOM     35   O  SGN C   2     167.752  31.467  78.8940  0.00  0.00     0.000 OA
ATOM     36   O  SGN C   2     166.238  31.420  77.0090  0.00  0.00     0.000 OA
ATOM     37   O  SGN C   2     167.145  29.358  77.8860  0.00  0.00     0.000 O
ENDBRANCH 22 32
BRANCH 18 38
ATOM     38  O4  IDS C   3     168.580  25.602  78.7940  0.00  0.00     0.000 O
BRANCH 38 42
ATOM     39  C1  IDS C   3     171.954  26.141  78.1230  0.00  0.00     0.000 C
ATOM     40  C2  IDS C   3     171.048  25.431  77.1050  0.00  0.00     0.000 C
ATOM     41  C3  IDS C   3     170.296  24.268  77.7500  0.00  0.00     0.000 C
ATOM     42  C4  IDS C   3     169.650  24.690  79.0630  0.00  0.00     0.000 C
ATOM     43  C5  IDS C   3     170.694  25.360  79.9640  0.00  0.00     0.000 C
ATOM     44  O5  IDS C   3     171.232  26.497  79.2900  0.00  0.00     0.000 O
ATOM     45   O  IDS C   3     171.204  23.189  77.9850  0.00  0.00     0.000 O
ATOM     47  HD  IDS C   3     171.956  23.103  78.4050  0.00  0.00     0.000 HD
BRANCH 40 47
ATOM     47   O  IDS C   3     170.036  26.370  76.5650  0.00  0.00     0.000 O
ATOM     48   S  IDS C   3     170.330  27.162  75.2070  0.00  0.00     0.000 S
ATOM     49   O  IDS C   3     171.240  28.230  75.5590  0.00  0.00     0.000 OA
ATOM     50   O  IDS C   3     169.042  27.655  74.7680  0.00  0.00     0.000 OA
ATOM     51   O  IDS C   3     170.911  26.210  74.2990  0.00  0.00     0.000 OA
ENDBRANCH 40 47
BRANCH 43 52
ATOM     52   C  IDS C   3     170.129  25.783  81.3020  0.00  0.00     0.000 C
ATOM     53   O  IDS C   3     169.994  24.966  82.1840  0.00  0.00     0.000 OA
ATOM     54   O  IDS C   3     169.817  26.932  81.4820  0.00  0.00     0.000 OA
ENDBRANCH 43 52
BRANCH 39 55
ATOM     55  O4  SGN C   4     173.220  25.792  78.3540  0.00  0.00     0.000 O
BRANCH 55 59
ATOM     56  C1  SGN C   4     175.828  26.896  75.2740  0.00  0.00     0.000 C
ATOM     57  C2  SGN C   4     175.510  25.396  75.4020  0.00  0.00     0.000 C
ATOM     58  C3  SGN C   4     174.277  25.176  76.2740  0.00  0.00     0.000 C
ATOM     59  C4  SGN C   4     174.416  25.919  77.5980  0.00  0.00     0.000 C
ATOM     60  C5  SGN C   4     174.694  27.393  77.3070  0.00  0.00     0.000 C
ATOM     61  O5  SGN C   4     175.925  27.482  76.5620  0.00  0.00     0.000 O
ATOM     62   O  SGN C   4     174.095  23.784  76.4970  0.00  0.00     0.000 O
ATOM     64  HD  SGN C   4     174.496  23.830  75.7310  0.00  0.00     0.000 HD
BRANCH 57 66
ATOM     64   N  SGN C   4     176.702  25.057  74.6080  0.00  0.00     0.000 N
ATOM     66  HD  SGN C   4     177.112  24.330  74.3740  0.00  0.00     0.000 HD
ATOM     66   S  SGN C   4     176.603  24.024  73.3950  0.00  0.00     0.000 S
ATOM     67   O  SGN C   4     177.909  23.857  72.8710  0.00  0.00     0.000 OA
ATOM     68   O  SGN C   4     175.889  22.890  73.8710  0.00  0.00     0.000 OA
ATOM     69   O  SGN C   4     175.716  24.769  72.3460  0.00  0.00     0.000 OA
ENDBRANCH 57 66
BRANCH 60 70
ATOM     70   C  SGN C   4     174.843  28.243  78.5490  0.00  0.00     0.000 C
ATOM     71   O  SGN C   4     177.369  27.803  81.2940  0.00  0.00     0.000 OA
ATOM     72   O  SGN C   4     177.423  29.406  79.4840  0.00  0.00     0.000 OA
ATOM     73   O  SGN C   4     175.782  27.643  79.4630  0.00  0.00     0.000 O
ATOM     74   S  SGN C   4     176.606  28.643  80.4000  0.00  0.00     0.000 S
ATOM     75   O  SGN C   4     175.597  29.437  81.0720  0.00  0.00     0.000 OA
ENDBRANCH 60 70
BRANCH 56 76
ATOM     76  O4  IDS C   5     175.517  27.874  74.4040  0.00  0.00     0.000 O
BRANCH 76 80
ATOM     77  C1  IDS C   5     175.623  29.223  70.5530  0.00  0.00     0.000 C
ATOM     78  C2  IDS C   5     176.997  28.982  71.1790  0.00  0.00     0.000 C
ATOM     79  C3  IDS C   5     176.857  28.092  72.3980  0.00  0.00     0.000 C
ATOM     80  C4  IDS C   5     176.063  28.824  73.4770  0.00  0.00     0.000 C
ATOM     81  C5  IDS C   5     174.940  29.638  72.8170  0.00  0.00     0.000 C
ATOM     82  O5  IDS C   5     174.602  29.086  71.5420  0.00  0.00     0.000 O
BRANCH 78 83
ATOM     83   O  IDS C   5     177.902  28.315  70.2140  0.00  0.00     0.000 O
ATOM     84   S  IDS C   5     179.348  28.928  69.9300  0.00  0.00     0.000 S
ATOM     85   O  IDS C   5     179.142  30.330  69.6840  0.00  0.00     0.000 OA
ATOM     86   O  IDS C   5     180.111  28.668  71.1290  0.00  0.00     0.000 OA
ATOM     87   O  IDS C   5     179.855  28.216  68.7830  0.00  0.00     0.000 OA
ENDBRANCH 78 83
BRANCH 81 88
ATOM     88   C  IDS C   5     173.666  29.706  73.6390  0.00  0.00     0.000 C
ATOM     89   O  IDS C   5     173.669  30.260  74.7050  0.00  0.00     0.000 OA
ATOM     90   O  IDS C   5     172.652  29.201  73.2130  0.00  0.00     0.000 OA
ENDBRANCH 81 88
ENDBRANCH 76 80
ENDBRANCH 56 76
ENDBRANCH 55 59
ENDBRANCH 39 55
ENDBRANCH 38 42
ENDBRANCH 18 38
ENDBRANCH 17 21
ENDBRANCH 1 17
TORSDOF 18
ENDMDL
MODEL 69
REMARK VINA RESULT:      -7.0     38.470     44.311
ROOT
ATOM      1  C1  IDS C   1     130.349  43.080  59.9520  0.00  0.00     0.000 C
ATOM      2  C2  IDS C   1     129.355  42.502  60.9630  0.00  0.00     0.000 C
ATOM      3  C3  IDS C   1     129.965  42.460  62.3570  0.00  0.00     0.000 C
ATOM      4  C4  IDS C   1     131.235  41.620  62.3630  0.00  0.00     0.000 C
ATOM      5  C5  IDS C   1     132.033  41.869  61.0870  0.00  0.00     0.000 C
ATOM      6  O5  IDS C   1     131.657  43.119  60.5080  0.00  0.00     0.000 O
ATOM      7   O  IDS C   1     129.015  41.919  63.2860  0.00  0.00     0.000 O
ATOM      9  HD  IDS C   1     128.226  42.195  63.0600  0.00  0.00     0.000 HD
ENDROOT
BRANCH 2 9
ATOM      9   O  IDS C   1     128.132  43.333  61.0350  0.00  0.00     0.000 O
ATOM     10   S  IDS C   1     126.710  42.658  60.7820  0.00  0.00     0.000 S
ATOM     11   O  IDS C   1     125.736  43.715  60.9360  0.00  0.00     0.000 OA
ATOM     12   O  IDS C   1     126.763  42.131  59.4330  0.00  0.00     0.000 OA
ATOM     13   O  IDS C   1     126.579  41.624  61.7860  0.00  0.00     0.000 OA
ENDBRANCH 2 9
BRANCH 5 14
ATOM     14   C  IDS C   1     133.530  41.888  61.3420  0.00  0.00     0.000 C
ATOM     15   O  IDS C   1     134.033  41.005  61.9920  0.00  0.00     0.000 OA
ATOM     16   O  IDS C   1     134.210  42.794  60.8900  0.00  0.00     0.000 OA
ENDBRANCH 5 14
BRANCH 1 17
ATOM     17  O4  SGN C   2     129.998  43.961  59.0100  0.00  0.00     0.000 O
BRANCH 17 21
ATOM     18  C1  SGN C   2     129.863  47.790  57.3240  0.00  0.00     0.000 C
ATOM     19  C2  SGN C   2     130.771  47.610  58.5460  0.00  0.00     0.000 C
ATOM     20  C3  SGN C   2     131.043  46.118  58.7760  0.00  0.00     0.000 C
ATOM     21  C4  SGN C   2     129.728  45.352  58.8630  0.00  0.00     0.000 C
ATOM     22  C5  SGN C   2     128.919  45.607  57.5940  0.00  0.00     0.000 C
ATOM     23  O5  SGN C   2     128.682  47.025  57.4410  0.00  0.00     0.000 O
ATOM     24   O  SGN C   2     131.810  45.944  59.9550  0.00  0.00     0.000 O
ATOM     26  HD  SGN C   2     131.574  45.803  59.1340  0.00  0.00     0.000 HD
BRANCH 19 28
ATOM     26   N  SGN C   2     131.656  48.777  58.4270  0.00  0.00     0.000 N
ATOM     28  HD  SGN C   2     130.902  49.057  58.1070  0.00  0.00     0.000 HD
ATOM     28   O  SGN C   2     133.560  50.116  59.3250  0.00  0.00     0.000 OA
ATOM     29   S  SGN C   2     132.117  49.640  59.7040  0.00  0.00     0.000 S
ATOM     30   O  SGN C   2     131.273  50.770  59.7810  0.00  0.00     0.000 OA
ATOM     31   O  SGN C   2     132.208  48.754  60.8130  0.00  0.00     0.000 OA
ENDBRANCH 19 28
BRANCH 22 32
ATOM     32   C  SGN C   2     127.566  44.937  57.6030  0.00  0.00     0.000 C
ATOM     33   S  SGN C   2     125.934  43.845  55.9340  0.00  0.00     0.000 S
ATOM     34   O  SGN C   2     125.484  45.120  55.4340  0.00  0.00     0.000 OA
ATOM     35   O  SGN C   2     126.068  42.833  54.9070  0.00  0.00     0.000 OA
ATOM     36   O  SGN C   2     125.222  43.386  57.1030  0.00  0.00     0.000 OA
ATOM     37   O  SGN C   2     127.425  44.122  56.4330  0.00  0.00     0.000 O
ENDBRANCH 22 32
BRANCH 18 38
ATOM     38  O4  IDS C   3     130.151  47.744  56.0220  0.00  0.00     0.000 O
BRANCH 38 42
ATOM     39  C1  IDS C   3     130.632  48.558  52.6700  0.00  0.00     0.000 C
ATOM     40  C2  IDS C   3     129.367  49.004  53.4190  0.00  0.00     0.000 C
ATOM     41  C3  IDS C   3     128.686  47.822  54.1080  0.00  0.00     0.000 C
ATOM     42  C4  IDS C   3     129.689  46.990  54.8950  0.00  0.00     0.000 C
ATOM     43  C5  IDS C   3     130.873  46.616  53.9950  0.00  0.00     0.000 C
ATOM     44  O5  IDS C   3     131.490  47.809  53.5150  0.00  0.00     0.000 O
ATOM     45   O  IDS C   3     128.049  47.005  53.1240  0.00  0.00     0.000 O
ATOM     47  HD  IDS C   3     128.307  46.600  52.4040  0.00  0.00     0.000 HD
BRANCH 40 47
ATOM     47   O  IDS C   3     129.706  49.995  54.4690  0.00  0.00     0.000 O
ATOM     48   S  IDS C   3     130.248  51.441  54.0520  0.00  0.00     0.000 S
ATOM     49   O  IDS C   3     131.634  51.253  53.6790  0.00  0.00     0.000 OA
ATOM     50   O  IDS C   3     130.101  52.258  55.2370  0.00  0.00     0.000 OA
ATOM     51   O  IDS C   3     129.430  51.882  52.9550  0.00  0.00     0.000 OA
ENDBRANCH 40 47
BRANCH 43 52
ATOM     52   C  IDS C   3     131.901  45.763  54.7040  0.00  0.00     0.000 C
ATOM     53   O  IDS C   3     131.542  44.880  55.4490  0.00  0.00     0.000 OA
ATOM     54   O  IDS C   3     133.075  45.967  54.5230  0.00  0.00     0.000 OA
ENDBRANCH 43 52
BRANCH 39 55
ATOM     55  O4  SGN C   4     130.634  48.153  51.3990  0.00  0.00     0.000 O
BRANCH 55 59
ATOM     56  C1  SGN C   4     134.069  48.825  49.1080  0.00  0.00     0.000 C
ATOM     57  C2  SGN C   4     133.185  50.050  49.3970  0.00  0.00     0.000 C
ATOM     58  C3  SGN C   4     132.215  49.761  50.5390  0.00  0.00     0.000 C
ATOM     59  C4  SGN C   4     131.455  48.465  50.2820  0.00  0.00     0.000 C
ATOM     60  C5  SGN C   4     132.463  47.342  50.0480  0.00  0.00     0.000 C
ATOM     61  O5  SGN C   4     133.258  47.681  48.8940  0.00  0.00     0.000 O
ATOM     62   O  SGN C   4     131.314  50.850  50.6860  0.00  0.00     0.000 O
ATOM     64  HD  SGN C   4     132.033  51.206  50.3590  0.00  0.00     0.000 HD
BRANCH 57 66
ATOM     64   N  SGN C   4     134.123  50.696  48.4640  0.00  0.00     0.000 N
ATOM     66  HD  SGN C   4     134.085  51.336  47.8820  0.00  0.00     0.000 HD
ATOM     66   S  SGN C   4     134.331  52.278  48.4870  0.00  0.00     0.000 S
ATOM     67   O  SGN C   4     135.236  52.603  47.4450  0.00  0.00     0.000 OA
ATOM     68   O  SGN C   4     133.036  52.867  48.4970  0.00  0.00     0.000 OA
ATOM     69   O  SGN C   4     135.012  52.543  49.8670  0.00  0.00     0.000 OA
ENDBRANCH 57 66
BRANCH 60 70
ATOM     70   C  SGN C   4     131.826  45.993  49.7900  0.00  0.00     0.000 C
ATOM     71   O  SGN C   4     128.890  45.275  47.5610  0.00  0.00     0.000 OA
ATOM     72   O  SGN C   4     131.231  44.914  47.0760  0.00  0.00     0.000 OA
ATOM     73   O  SGN C   4     130.601  46.147  49.0480  0.00  0.00     0.000 O
ATOM     74   S  SGN C   4     130.194  44.939  48.0830  0.00  0.00     0.000 S
ATOM     75   O  SGN C   4     130.191  43.768  48.9370  0.00  0.00     0.000 OA
ENDBRANCH 60 70
BRANCH 56 76
ATOM     76  O4  IDS C   5     135.280  48.396  49.5100  0.00  0.00     0.000 O
BRANCH 76 80
ATOM     77  C1  IDS C   5     139.170  47.191  49.7840  0.00  0.00     0.000 C
ATOM     78  C2  IDS C   5     138.441  46.703  48.5320  0.00  0.00     0.000 C
ATOM     79  C3  IDS C   5     137.196  47.537  48.3030  0.00  0.00     0.000 C
ATOM     80  C4  IDS C   5     136.208  47.303  49.4420  0.00  0.00     0.000 C
ATOM     81  C5  IDS C   5     136.978  47.171  50.7640  0.00  0.00     0.000 C
ATOM     82  O5  IDS C   5     138.249  47.823  50.6730  0.00  0.00     0.000 O
BRANCH 78 83
ATOM     83   O  IDS C   5     139.311  46.823  47.3390  0.00  0.00     0.000 O
ATOM     84   S  IDS C   5     139.444  45.596  46.3270  0.00  0.00     0.000 S
ATOM     85   O  IDS C   5     139.705  44.439  47.1410  0.00  0.00     0.000 OA
ATOM     86   O  IDS C   5     138.175  45.534  45.6410  0.00  0.00     0.000 OA
ATOM     87   O  IDS C   5     140.536  45.932  45.4470  0.00  0.00     0.000 OA
ENDBRANCH 78 83
BRANCH 81 88
ATOM     88   C  IDS C   5     136.250  47.754  51.9620  0.00  0.00     0.000 C
ATOM     89   O  IDS C   5     135.244  47.233  52.3630  0.00  0.00     0.000 OA
ATOM     90   O  IDS C   5     136.688  48.742  52.5060  0.00  0.00     0.000 OA
ENDBRANCH 81 88
ENDBRANCH 76 80
ENDBRANCH 56 76
ENDBRANCH 55 59
ENDBRANCH 39 55
ENDBRANCH 38 42
ENDBRANCH 18 38
ENDBRANCH 17 21
ENDBRANCH 1 17
TORSDOF 18
ENDMDL
MODEL 70
REMARK VINA RESULT:      -7.0     36.901     42.006
ROOT
ATOM      1  C1  IDS C   1     133.340  43.901  60.6790  0.00  0.00     0.000 C
ATOM      2  C2  IDS C   1     132.052  43.138  60.3600  0.00  0.00     0.000 C
ATOM      3  C3  IDS C   1     131.712  42.161  61.4760  0.00  0.00     0.000 C
ATOM      4  C4  IDS C   1     132.846  41.167  61.6830  0.00  0.00     0.000 C
ATOM      5  C5  IDS C   1     134.192  41.871  61.5430  0.00  0.00     0.000 C
ATOM      6  O5  IDS C   1     134.035  43.275  61.7500  0.00  0.00     0.000 O
ATOM      7   O  IDS C   1     130.500  41.462  61.1570  0.00  0.00     0.000 O
ATOM      9  HD  IDS C   1     129.967  42.012  60.7520  0.00  0.00     0.000 HD
ENDROOT
BRANCH 2 9
ATOM      9   O  IDS C   1     130.909  44.069  60.2180  0.00  0.00     0.000 O
ATOM     10   S  IDS C   1     130.145  44.165  58.8220  0.00  0.00     0.000 S
ATOM     11   O  IDS C   1     129.090  45.135  59.0130  0.00  0.00     0.000 OA
ATOM     12   O  IDS C   1     131.141  44.597  57.8620  0.00  0.00     0.000 OA
ATOM     13   O  IDS C   1     129.643  42.836  58.5540  0.00  0.00     0.000 OA
ENDBRANCH 2 9
BRANCH 5 14
ATOM     14   C  IDS C   1     135.218  41.350  62.5350  0.00  0.00     0.000 C
ATOM     15   O  IDS C   1     136.306  41.868  62.5910  0.00  0.00     0.000 OA
ATOM     16   O  IDS C   1     134.935  40.414  63.2630  0.00  0.00     0.000 OA
ENDBRANCH 5 14
BRANCH 1 17
ATOM     17  O4  SGN C   2     133.479  45.213  60.4700  0.00  0.00     0.000 O
BRANCH 17 21
ATOM     18  C1  SGN C   2     133.629  49.130  61.9410  0.00  0.00     0.000 C
ATOM     19  C2  SGN C   2     133.303  48.027  62.9560  0.00  0.00     0.000 C
ATOM     20  C3  SGN C   2     133.697  46.660  62.3830  0.00  0.00     0.000 C
ATOM     21  C4  SGN C   2     133.050  46.457  61.0170  0.00  0.00     0.000 C
ATOM     22  C5  SGN C   2     133.451  47.609  60.1000  0.00  0.00     0.000 C
ATOM     23  O5  SGN C   2     133.039  48.866  60.6850  0.00  0.00     0.000 O
ATOM     24   O  SGN C   2     133.318  45.632  63.2820  0.00  0.00     0.000 O
ATOM     26  HD  SGN C   2     133.832  46.046  62.7220  0.00  0.00     0.000 HD
BRANCH 19 28
ATOM     26   N  SGN C   2     133.595  48.704  64.2270  0.00  0.00     0.000 N
ATOM     28  HD  SGN C   2     133.289  49.337  63.7220  0.00  0.00     0.000 HD
ATOM     28   O  SGN C   2     133.711  48.616  66.7170  0.00  0.00     0.000 OA
ATOM     29   S  SGN C   2     132.687  48.497  65.5390  0.00  0.00     0.000 S
ATOM     30   O  SGN C   2     131.788  49.584  65.6090  0.00  0.00     0.000 OA
ATOM     31   O  SGN C   2     132.182  47.168  65.5090  0.00  0.00     0.000 OA
ENDBRANCH 19 28
BRANCH 22 32
ATOM     32   C  SGN C   2     132.815  47.536  58.7340  0.00  0.00     0.000 C
ATOM     33   S  SGN C   2     131.036  48.790  57.3540  0.00  0.00     0.000 S
ATOM     34   O  SGN C   2     129.947  48.181  58.0760  0.00  0.00     0.000 OA
ATOM     35   O  SGN C   2     130.810  50.183  57.0290  0.00  0.00     0.000 OA
ATOM     36   O  SGN C   2     131.512  48.009  56.2370  0.00  0.00     0.000 OA
ATOM     37   O  SGN C   2     132.242  48.805  58.4000  0.00  0.00     0.000 O
ENDBRANCH 22 32
BRANCH 18 38
ATOM     38  O4  IDS C   3     134.795  49.704  61.6380  0.00  0.00     0.000 O
BRANCH 38 42
ATOM     39  C1  IDS C   3     137.566  51.735  61.0700  0.00  0.00     0.000 C
ATOM     40  C2  IDS C   3     136.801  51.095  59.9010  0.00  0.00     0.000 C
ATOM     41  C3  IDS C   3     136.648  49.587  60.0990  0.00  0.00     0.000 C
ATOM     42  C4  IDS C   3     136.151  49.264  61.5020  0.00  0.00     0.000 C
ATOM     43  C5  IDS C   3     137.035  49.963  62.5410  0.00  0.00     0.000 C
ATOM     44  O5  IDS C   3     136.995  51.371  62.3160  0.00  0.00     0.000 O
ATOM     45   O  IDS C   3     137.908  48.951  59.8760  0.00  0.00     0.000 O
ATOM     47  HD  IDS C   3     138.706  49.042  60.2010  0.00  0.00     0.000 HD
BRANCH 40 47
ATOM     47   O  IDS C   3     135.439  51.670  59.7940  0.00  0.00     0.000 O
ATOM     48   S  IDS C   3     135.056  52.582  58.5370  0.00  0.00     0.000 S
ATOM     49   O  IDS C   3     135.661  53.873  58.7850  0.00  0.00     0.000 OA
ATOM     50   O  IDS C   3     133.611  52.639  58.5350  0.00  0.00     0.000 OA
ATOM     51   O  IDS C   3     135.599  51.925  57.3780  0.00  0.00     0.000 OA
ENDBRANCH 40 47
BRANCH 43 52
ATOM     52   C  IDS C   3     136.616  49.664  63.9630  0.00  0.00     0.000 C
ATOM     53   O  IDS C   3     136.095  50.527  64.6320  0.00  0.00     0.000 OA
ATOM     54   O  IDS C   3     136.803  48.567  64.4230  0.00  0.00     0.000 OA
ENDBRANCH 43 52
BRANCH 39 55
ATOM     55  O4  SGN C   4     138.892  51.869  61.0990  0.00  0.00     0.000 O
BRANCH 55 59
ATOM     56  C1  SGN C   4     142.796  50.442  60.6190  0.00  0.00     0.000 C
ATOM     57  C2  SGN C   4     141.942  50.552  59.3440  0.00  0.00     0.000 C
ATOM     58  C3  SGN C   4     140.720  51.434  59.5850  0.00  0.00     0.000 C
ATOM     59  C4  SGN C   4     139.965  50.978  60.8280  0.00  0.00     0.000 C
ATOM     60  C5  SGN C   4     140.933  50.952  62.0090  0.00  0.00     0.000 C
ATOM     61  O5  SGN C   4     141.990  50.020  61.7070  0.00  0.00     0.000 O
ATOM     62   O  SGN C   4     139.875  51.398  58.4430  0.00  0.00     0.000 O
ATOM     64  HD  SGN C   4     140.669  51.254  58.1290  0.00  0.00     0.000 HD
BRANCH 57 66
ATOM     64   N  SGN C   4     142.896  49.661  58.6640  0.00  0.00     0.000 N
ATOM     66  HD  SGN C   4     142.926  49.235  57.9100  0.00  0.00     0.000 HD
ATOM     66   S  SGN C   4     143.394  49.985  57.1820  0.00  0.00     0.000 S
ATOM     67   O  SGN C   4     144.247  48.926  56.7800  0.00  0.00     0.000 OA
ATOM     68   O  SGN C   4     142.237  50.282  56.4100  0.00  0.00     0.000 OA
ATOM     69   O  SGN C   4     144.233  51.292  57.3500  0.00  0.00     0.000 OA
ENDBRANCH 57 66
BRANCH 60 70
ATOM     70   C  SGN C   4     140.295  50.521  63.3120  0.00  0.00     0.000 C
ATOM     71   O  SGN C   4     140.689  52.162  66.6670  0.00  0.00     0.000 OA
ATOM     72   O  SGN C   4     138.822  52.354  65.1420  0.00  0.00     0.000 OA
ATOM     73   O  SGN C   4     140.845  51.267  64.4140  0.00  0.00     0.000 O
ATOM     74   S  SGN C   4     139.877  51.514  65.6630  0.00  0.00     0.000 S
ATOM     75   O  SGN C   4     139.426  50.192  66.0490  0.00  0.00     0.000 OA
ENDBRANCH 60 70
BRANCH 56 76
ATOM     76  O4  IDS C   5     143.854  51.100  61.1270  0.00  0.00     0.000 O
BRANCH 76 80
ATOM     77  C1  IDS C   5     147.656  52.530  60.7250  0.00  0.00     0.000 C
ATOM     78  C2  IDS C   5     147.523  51.019  60.5370  0.00  0.00     0.000 C
ATOM     79  C3  IDS C   5     146.075  50.659  60.2680  0.00  0.00     0.000 C
ATOM     80  C4  IDS C   5     145.234  50.971  61.5020  0.00  0.00     0.000 C
ATOM     81  C5  IDS C   5     145.738  52.270  62.1470  0.00  0.00     0.000 C
ATOM     82  O5  IDS C   5     146.420  53.078  61.1830  0.00  0.00     0.000 O
BRANCH 78 83
ATOM     83   O  IDS C   5     148.341  50.560  59.3900  0.00  0.00     0.000 O
ATOM     84   S  IDS C   5     149.520  49.511  59.6250  0.00  0.00     0.000 S
ATOM     85   O  IDS C   5     150.282  50.016  60.7360  0.00  0.00     0.000 OA
ATOM     86   O  IDS C   5     148.860  48.259  59.9110  0.00  0.00     0.000 OA
ATOM     87   O  IDS C   5     150.265  49.478  58.3910  0.00  0.00     0.000 OA
ENDBRANCH 78 83
BRANCH 81 88
ATOM     88   C  IDS C   5     144.640  53.119  62.7610  0.00  0.00     0.000 C
ATOM     89   O  IDS C   5     144.149  52.795  63.8090  0.00  0.00     0.000 OA
ATOM     90   O  IDS C   5     144.267  54.118  62.1920  0.00  0.00     0.000 OA
ENDBRANCH 81 88
ENDBRANCH 76 80
ENDBRANCH 56 76
ENDBRANCH 55 59
ENDBRANCH 39 55
ENDBRANCH 38 42
ENDBRANCH 18 38
ENDBRANCH 17 21
ENDBRANCH 1 17
TORSDOF 18
ENDMDL
MODEL 71
REMARK VINA RESULT:      -7.0     11.133     18.426
ROOT
ATOM      1  C1  IDS C   1     145.928  20.759  41.5780  0.00  0.00     0.000 C
ATOM      2  C2  IDS C   1     144.820  21.737  41.1770  0.00  0.00     0.000 C
ATOM      3  C3  IDS C   1     145.029  22.237  39.7550  0.00  0.00     0.000 C
ATOM      4  C4  IDS C   1     146.380  22.927  39.6220  0.00  0.00     0.000 C
ATOM      5  C5  IDS C   1     147.434  22.175  40.4290  0.00  0.00     0.000 C
ATOM      6  O5  IDS C   1     147.009  20.831  40.6580  0.00  0.00     0.000 O
ATOM      7   O  IDS C   1     143.978  23.146  39.4000  0.00  0.00     0.000 O
ATOM      9  HD  IDS C   1     143.242  22.865  39.7610  0.00  0.00     0.000 HD
ENDROOT
BRANCH 2 9
ATOM      9   O  IDS C   1     143.494  21.080  41.2280  0.00  0.00     0.000 O
ATOM     10   S  IDS C   1     142.351  21.694  42.1540  0.00  0.00     0.000 S
ATOM     11   O  IDS C   1     141.195  20.844  41.9730  0.00  0.00     0.000 OA
ATOM     12   O  IDS C   1     142.877  21.650  43.5030  0.00  0.00     0.000 OA
ATOM     13   O  IDS C   1     142.136  23.042  41.6770  0.00  0.00     0.000 OA
ENDBRANCH 2 9
BRANCH 5 14
ATOM     14   C  IDS C   1     148.779  22.141  39.7240  0.00  0.00     0.000 C
ATOM     15   O  IDS C   1     149.399  21.107  39.6760  0.00  0.00     0.000 OA
ATOM     16   O  IDS C   1     149.221  23.157  39.2150  0.00  0.00     0.000 OA
ENDBRANCH 5 14
BRANCH 1 17
ATOM     17  O4  SGN C   2     145.692  19.625  42.2430  0.00  0.00     0.000 O
BRANCH 17 21
ATOM     18  C1  SGN C   2     145.899  15.484  42.8220  0.00  0.00     0.000 C
ATOM     19  C2  SGN C   2     146.784  16.067  41.7130  0.00  0.00     0.000 C
ATOM     20  C3  SGN C   2     146.923  17.583  41.9030  0.00  0.00     0.000 C
ATOM     21  C4  SGN C   2     145.545  18.228  42.0010  0.00  0.00     0.000 C
ATOM     22  C5  SGN C   2     144.767  17.570  43.1370  0.00  0.00     0.000 C
ATOM     23  O5  SGN C   2     144.655  16.149  42.8930  0.00  0.00     0.000 O
ATOM     24   O  SGN C   2     147.667  18.137  40.8310  0.00  0.00     0.000 O
ATOM     26  HD  SGN C   2     147.423  18.028  41.6550  0.00  0.00     0.000 HD
BRANCH 19 28
ATOM     26   N  SGN C   2     147.757  14.984  41.5150  0.00  0.00     0.000 N
ATOM     28  HD  SGN C   2     147.022  14.568  41.7060  0.00  0.00     0.000 HD
ATOM     28   O  SGN C   2     149.778  14.116  40.3390  0.00  0.00     0.000 OA
ATOM     29   S  SGN C   2     148.309  14.581  40.0600  0.00  0.00     0.000 S
ATOM     30   O  SGN C   2     147.561  13.469  39.6150  0.00  0.00     0.000 OA
ATOM     31   O  SGN C   2     148.349  15.763  39.2710  0.00  0.00     0.000 OA
ENDBRANCH 19 28
BRANCH 22 32
ATOM     32   C  SGN C   2     143.361  18.098  43.2830  0.00  0.00     0.000 C
ATOM     33   S  SGN C   2     141.374  17.897  44.9130  0.00  0.00     0.000 S
ATOM     34   O  SGN C   2     141.010  16.594  44.4160  0.00  0.00     0.000 OA
ATOM     35   O  SGN C   2     141.229  18.033  46.3470  0.00  0.00     0.000 OA
ATOM     36   O  SGN C   2     140.798  18.993  44.1700  0.00  0.00     0.000 OA
ATOM     37   O  SGN C   2     142.946  17.992  44.6500  0.00  0.00     0.000 O
ENDBRANCH 22 32
BRANCH 18 38
ATOM     38  O4  IDS C   3     146.188  15.199  44.0940  0.00  0.00     0.000 O
BRANCH 38 42
ATOM     39  C1  IDS C   3     146.500  14.038  47.3620  0.00  0.00     0.000 C
ATOM     40  C2  IDS C   3     145.360  14.989  46.9650  0.00  0.00     0.000 C
ATOM     41  C3  IDS C   3     145.898  16.231  46.2540  0.00  0.00     0.000 C
ATOM     42  C4  IDS C   3     146.886  15.853  45.1590  0.00  0.00     0.000 C
ATOM     43  C5  IDS C   3     147.962  14.921  45.7290  0.00  0.00     0.000 C
ATOM     44  O5  IDS C   3     147.337  13.751  46.2540  0.00  0.00     0.000 O
ATOM     45   O  IDS C   3     146.537  17.082  47.2070  0.00  0.00     0.000 O
ATOM     47  HD  IDS C   3     147.172  16.984  47.7870  0.00  0.00     0.000 HD
BRANCH 40 47
ATOM     47   O  IDS C   3     144.421  14.317  46.0370  0.00  0.00     0.000 O
ATOM     48   S  IDS C   3     142.949  13.934  46.5330  0.00  0.00     0.000 S
ATOM     49   O  IDS C   3     143.102  12.751  47.3520  0.00  0.00     0.000 OA
ATOM     50   O  IDS C   3     142.195  13.677  45.3260  0.00  0.00     0.000 OA
ATOM     51   O  IDS C   3     142.462  15.066  47.2750  0.00  0.00     0.000 OA
ENDBRANCH 40 47
BRANCH 43 52
ATOM     52   C  IDS C   3     148.999  14.525  44.7010  0.00  0.00     0.000 C
ATOM     53   O  IDS C   3     149.332  13.367  44.5970  0.00  0.00     0.000 OA
ATOM     54   O  IDS C   3     149.487  15.366  43.9900  0.00  0.00     0.000 OA
ENDBRANCH 43 52
BRANCH 39 55
ATOM     55  O4  SGN C   4     147.146  14.105  48.5270  0.00  0.00     0.000 O
BRANCH 55 59
ATOM     56  C1  SGN C   4     149.012  16.194  51.6350  0.00  0.00     0.000 C
ATOM     57  C2  SGN C   4     147.549  16.564  51.3390  0.00  0.00     0.000 C
ATOM     58  C3  SGN C   4     146.880  15.490  50.4850  0.00  0.00     0.000 C
ATOM     59  C4  SGN C   4     147.726  15.178  49.2560  0.00  0.00     0.000 C
ATOM     60  C5  SGN C   4     149.133  14.797  49.7110  0.00  0.00     0.000 C
ATOM     61  O5  SGN C   4     149.696  15.917  50.4230  0.00  0.00     0.000 O
ATOM     62   O  SGN C   4     145.582  15.925  50.1030  0.00  0.00     0.000 O
ATOM     64  HD  SGN C   4     145.732  16.325  50.8560  0.00  0.00     0.000 HD
BRANCH 57 66
ATOM     64   N  SGN C   4     147.681  17.203  52.6580  0.00  0.00     0.000 N
ATOM     66  HD  SGN C   4     147.727  18.014  52.9590  0.00  0.00     0.000 HD
ATOM     66   S  SGN C   4     146.634  18.309  53.1330  0.00  0.00     0.000 S
ATOM     67   O  SGN C   4     147.056  18.776  54.4040  0.00  0.00     0.000 OA
ATOM     68   O  SGN C   4     146.490  19.233  52.0620  0.00  0.00     0.000 OA
ATOM     69   O  SGN C   4     145.299  17.513  53.2900  0.00  0.00     0.000 OA
ENDBRANCH 57 66
BRANCH 60 70
ATOM     70   C  SGN C   4     150.071  14.453  48.5750  0.00  0.00     0.000 C
ATOM     71   O  SGN C   4     152.569  16.734  46.9420  0.00  0.00     0.000 OA
ATOM     72   O  SGN C   4     152.998  15.016  48.5890  0.00  0.00     0.000 OA
ATOM     73   O  SGN C   4     150.726  15.639  48.0840  0.00  0.00     0.000 O
ATOM     74   S  SGN C   4     152.189  15.444  47.4700  0.00  0.00     0.000 S
ATOM     75   O  SGN C   4     152.031  14.426  46.4500  0.00  0.00     0.000 OA
ENDBRANCH 60 70
BRANCH 56 76
ATOM     76  O4  IDS C   5     149.661  15.553  52.6240  0.00  0.00     0.000 O
BRANCH 76 80
ATOM     77  C1  IDS C   5     150.578  17.582  56.0450  0.00  0.00     0.000 C
ATOM     78  C2  IDS C   5     151.722  17.489  55.0370  0.00  0.00     0.000 C
ATOM     79  C3  IDS C   5     151.175  17.128  53.6700  0.00  0.00     0.000 C
ATOM     80  C4  IDS C   5     150.583  15.723  53.7120  0.00  0.00     0.000 C
ATOM     81  C5  IDS C   5     149.870  15.511  55.0560  0.00  0.00     0.000 C
ATOM     82  O5  IDS C   5     149.484  16.767  55.6230  0.00  0.00     0.000 O
BRANCH 78 83
ATOM     83   O  IDS C   5     152.432  18.786  54.9300  0.00  0.00     0.000 O
ATOM     84   S  IDS C   5     153.958  18.894  55.3810  0.00  0.00     0.000 S
ATOM     85   O  IDS C   5     154.031  18.280  56.6800  0.00  0.00     0.000 OA
ATOM     86   O  IDS C   5     154.703  18.177  54.3720  0.00  0.00     0.000 OA
ATOM     87   O  IDS C   5     154.261  20.304  55.3990  0.00  0.00     0.000 OA
ENDBRANCH 78 83
BRANCH 81 88
ATOM     88   C  IDS C   5     148.625  14.649  54.9640  0.00  0.00     0.000 C
ATOM     89   O  IDS C   5     148.727  13.452  54.9180  0.00  0.00     0.000 OA
ATOM     90   O  IDS C   5     147.535  15.172  54.9380  0.00  0.00     0.000 OA
ENDBRANCH 81 88
ENDBRANCH 76 80
ENDBRANCH 56 76
ENDBRANCH 55 59
ENDBRANCH 39 55
ENDBRANCH 38 42
ENDBRANCH 18 38
ENDBRANCH 17 21
ENDBRANCH 1 17
TORSDOF 18
ENDMDL
MODEL 72
REMARK VINA RESULT:      -6.9     29.358     34.765
ROOT
ATOM      1  C1  IDS C   1     148.208  18.515  83.9770  0.00  0.00     0.000 C
ATOM      2  C2  IDS C   1     148.925  17.179  83.7640  0.00  0.00     0.000 C
ATOM      3  C3  IDS C   1     150.413  17.395  83.5280  0.00  0.00     0.000 C
ATOM      4  C4  IDS C   1     150.640  18.286  82.3140  0.00  0.00     0.000 C
ATOM      5  C5  IDS C   1     149.597  19.399  82.2790  0.00  0.00     0.000 C
ATOM      6  O5  IDS C   1     149.045  19.595  83.5810  0.00  0.00     0.000 O
ATOM      7   O  IDS C   1     151.062  16.130  83.3360  0.00  0.00     0.000 O
ATOM      9  HD  IDS C   1     150.686  15.549  83.8570  0.00  0.00     0.000 HD
ENDROOT
BRANCH 2 9
ATOM      9   O  IDS C   1     148.784  16.309  84.9540  0.00  0.00     0.000 O
ATOM     10   S  IDS C   1     148.094  14.880  84.8020  0.00  0.00     0.000 S
ATOM     11   O  IDS C   1     148.122  14.284  86.1200  0.00  0.00     0.000 OA
ATOM     12   O  IDS C   1     146.750  15.143  84.3310  0.00  0.00     0.000 OA
ATOM     13   O  IDS C   1     148.896  14.154  83.8420  0.00  0.00     0.000 OA
ENDBRANCH 2 9
BRANCH 5 14
ATOM     14   C  IDS C   1     150.182  20.717  81.8010  0.00  0.00     0.000 C
ATOM     15   O  IDS C   1     150.232  21.654  82.5600  0.00  0.00     0.000 OA
ATOM     16   O  IDS C   1     150.592  20.818  80.6570  0.00  0.00     0.000 OA
ENDBRANCH 5 14
BRANCH 1 17
ATOM     17  O4  SGN C   2     147.281  18.701  84.9200  0.00  0.00     0.000 O
BRANCH 17 21
ATOM     18  C1  SGN C   2     146.125  20.047  88.7120  0.00  0.00     0.000 C
ATOM     19  C2  SGN C   2     147.605  20.215  88.3450  0.00  0.00     0.000 C
ATOM     20  C3  SGN C   2     147.782  20.083  86.8280  0.00  0.00     0.000 C
ATOM     21  C4  SGN C   2     147.167  18.777  86.3390  0.00  0.00     0.000 C
ATOM     22  C5  SGN C   2     145.700  18.730  86.7590  0.00  0.00     0.000 C
ATOM     23  O5  SGN C   2     145.599  18.842  88.1970  0.00  0.00     0.000 O
ATOM     24   O  SGN C   2     149.158  20.151  86.4950  0.00  0.00     0.000 O
ATOM     26  HD  SGN C   2     148.312  20.316  86.4100  0.00  0.00     0.000 HD
BRANCH 19 28
ATOM     26   N  SGN C   2     148.036  21.223  89.3240  0.00  0.00     0.000 N
ATOM     28  HD  SGN C   2     147.447  20.757  89.7540  0.00  0.00     0.000 HD
ATOM     28   O  SGN C   2     149.845  22.677  90.2390  0.00  0.00     0.000 OA
ATOM     29   S  SGN C   2     149.476  21.168  90.0370  0.00  0.00     0.000 S
ATOM     30   O  SGN C   2     149.300  20.572  91.3050  0.00  0.00     0.000 OA
ATOM     31   O  SGN C   2     150.393  20.597  89.1130  0.00  0.00     0.000 OA
ENDBRANCH 19 28
BRANCH 22 32
ATOM     32   C  SGN C   2     145.008  17.445  86.3720  0.00  0.00     0.000 C
ATOM     33   S  SGN C   2     143.056  16.668  84.8810  0.00  0.00     0.000 S
ATOM     34   O  SGN C   2     142.065  17.110  85.8290  0.00  0.00     0.000 OA
ATOM     35   O  SGN C   2     142.685  16.904  83.5010  0.00  0.00     0.000 OA
ATOM     36   O  SGN C   2     143.549  15.333  85.1230  0.00  0.00     0.000 OA
ATOM     37   O  SGN C   2     144.304  17.629  85.1390  0.00  0.00     0.000 O
ENDBRANCH 22 32
BRANCH 18 38
ATOM     38  O4  IDS C   3     145.111  20.910  88.6180  0.00  0.00     0.000 O
BRANCH 38 42
ATOM     39  C1  IDS C   3     142.794  23.326  87.6560  0.00  0.00     0.000 C
ATOM     40  C2  IDS C   3     144.303  23.621  87.6320  0.00  0.00     0.000 C
ATOM     41  C3  IDS C   3     144.953  23.289  88.9750  0.00  0.00     0.000 C
ATOM     42  C4  IDS C   3     144.533  21.910  89.4640  0.00  0.00     0.000 C
ATOM     43  C5  IDS C   3     143.004  21.794  89.4440  0.00  0.00     0.000 C
ATOM     44  O5  IDS C   3     142.538  22.008  88.1130  0.00  0.00     0.000 O
ATOM     45   O  IDS C   3     144.579  24.277  89.9380  0.00  0.00     0.000 O
ATOM     47  HD  IDS C   3     143.827  24.589  90.2340  0.00  0.00     0.000 HD
BRANCH 40 47
ATOM     47   O  IDS C   3     144.976  22.800  86.5970  0.00  0.00     0.000 O
ATOM     48   S  IDS C   3     145.695  23.514  85.3600  0.00  0.00     0.000 S
ATOM     49   O  IDS C   3     144.634  23.910  84.4590  0.00  0.00     0.000 OA
ATOM     50   O  IDS C   3     146.559  22.504  84.7870  0.00  0.00     0.000 OA
ATOM     51   O  IDS C   3     146.416  24.636  85.8990  0.00  0.00     0.000 OA
ENDBRANCH 40 47
BRANCH 43 52
ATOM     52   C  IDS C   3     142.512  20.455  89.9460  0.00  0.00     0.000 C
ATOM     53   O  IDS C   3     142.293  19.560  89.1610  0.00  0.00     0.000 OA
ATOM     54   O  IDS C   3     142.340  20.286  91.1260  0.00  0.00     0.000 OA
ENDBRANCH 43 52
BRANCH 39 55
ATOM     55  O4  SGN C   4     141.874  24.216  88.0250  0.00  0.00     0.000 O
BRANCH 55 59
ATOM     56  C1  SGN C   4     138.186  24.490  86.0670  0.00  0.00     0.000 C
ATOM     57  C2  SGN C   4     139.435  24.810  85.2290  0.00  0.00     0.000 C
ATOM     58  C3  SGN C   4     140.697  24.299  85.9200  0.00  0.00     0.000 C
ATOM     59  C4  SGN C   4     140.751  24.783  87.3650  0.00  0.00     0.000 C
ATOM     60  C5  SGN C   4     139.464  24.364  88.0710  0.00  0.00     0.000 C
ATOM     61  O5  SGN C   4     138.352  24.978  87.3890  0.00  0.00     0.000 O
ATOM     62   O  SGN C   4     141.843  24.736  85.2020  0.00  0.00     0.000 O
ATOM     64  HD  SGN C   4     141.219  24.683  84.6030  0.00  0.00     0.000 HD
BRANCH 57 66
ATOM     64   N  SGN C   4     139.826  25.262  83.8830  0.00  0.00     0.000 N
ATOM     66  HD  SGN C   4     139.814  24.930  83.0840  0.00  0.00     0.000 HD
ATOM     66   S  SGN C   4     138.782  25.216  82.6770  0.00  0.00     0.000 S
ATOM     67   O  SGN C   4     139.461  25.651  81.5110  0.00  0.00     0.000 OA
ATOM     68   O  SGN C   4     138.181  23.928  82.6960  0.00  0.00     0.000 OA
ATOM     69   O  SGN C   4     137.706  26.276  83.0770  0.00  0.00     0.000 OA
ENDBRANCH 57 66
BRANCH 60 70
ATOM     70   C  SGN C   4     139.401  24.781  89.5250  0.00  0.00     0.000 C
ATOM     71   O  SGN C   4     140.781  22.904  92.4710  0.00  0.00     0.000 OA
ATOM     72   O  SGN C   4     141.750  24.820  91.3590  0.00  0.00     0.000 OA
ATOM     73   O  SGN C   4     139.851  23.710  90.3770  0.00  0.00     0.000 O
ATOM     74   S  SGN C   4     140.540  24.136  91.7550  0.00  0.00     0.000 S
ATOM     75   O  SGN C   4     139.574  25.001  92.4020  0.00  0.00     0.000 OA
ENDBRANCH 60 70
BRANCH 56 76
ATOM     76  O4  IDS C   5     137.288  23.489  86.1130  0.00  0.00     0.000 O
BRANCH 76 80
ATOM     77  C1  IDS C   5     136.081  20.474  88.5840  0.00  0.00     0.000 C
ATOM     78  C2  IDS C   5     137.474  20.283  87.9840  0.00  0.00     0.000 C
ATOM     79  C3  IDS C   5     137.996  21.608  87.4640  0.00  0.00     0.000 C
ATOM     80  C4  IDS C   5     137.132  22.074  86.2960  0.00  0.00     0.000 C
ATOM     81  C5  IDS C   5     135.663  21.729  86.5810  0.00  0.00     0.000 C
ATOM     82  O5  IDS C   5     135.440  21.602  87.9880  0.00  0.00     0.000 O
BRANCH 78 83
ATOM     83   O  IDS C   5     138.419  19.776  89.0060  0.00  0.00     0.000 O
ATOM     84   S  IDS C   5     138.820  18.232  89.0190  0.00  0.00     0.000 S
ATOM     85   O  IDS C   5     137.584  17.501  88.9360  0.00  0.00     0.000 OA
ATOM     86   O  IDS C   5     139.665  18.051  87.8620  0.00  0.00     0.000 OA
ATOM     87   O  IDS C   5     139.525  18.021  90.2600  0.00  0.00     0.000 OA
ENDBRANCH 78 83
BRANCH 81 88
ATOM     88   C  IDS C   5     134.676  22.755  86.0530  0.00  0.00     0.000 C
ATOM     89   O  IDS C   5     134.404  22.778  84.8830  0.00  0.00     0.000 OA
ATOM     90   O  IDS C   5     134.168  23.544  86.8160  0.00  0.00     0.000 OA
ENDBRANCH 81 88
ENDBRANCH 76 80
ENDBRANCH 56 76
ENDBRANCH 55 59
ENDBRANCH 39 55
ENDBRANCH 38 42
ENDBRANCH 18 38
ENDBRANCH 17 21
ENDBRANCH 1 17
TORSDOF 18
ENDMDL
MODEL 73
REMARK VINA RESULT:      -6.9     27.146     31.437
ROOT
ATOM      1  C1  IDS C   1     142.721  21.450  86.4740  0.00  0.00     0.000 C
ATOM      2  C2  IDS C   1     143.249  22.701  85.7660  0.00  0.00     0.000 C
ATOM      3  C3  IDS C   1     142.723  23.963  86.4340  0.00  0.00     0.000 C
ATOM      4  C4  IDS C   1     141.200  23.982  86.4200  0.00  0.00     0.000 C
ATOM      5  C5  IDS C   1     140.656  22.582  86.6860  0.00  0.00     0.000 C
ATOM      6  O5  IDS C   1     141.645  21.787  87.3400  0.00  0.00     0.000 O
ATOM      7   O  IDS C   1     143.234  25.120  85.7580  0.00  0.00     0.000 O
ATOM      9  HD  IDS C   1     144.045  24.952  85.5060  0.00  0.00     0.000 HD
ENDROOT
BRANCH 2 9
ATOM      9   O  IDS C   1     144.728  22.752  85.8200  0.00  0.00     0.000 O
ATOM     10   S  IDS C   1     145.556  22.924  84.4670  0.00  0.00     0.000 S
ATOM     11   O  IDS C   1     146.948  22.951  84.8550  0.00  0.00     0.000 OA
ATOM     12   O  IDS C   1     145.219  21.772  83.6560  0.00  0.00     0.000 OA
ATOM     13   O  IDS C   1     145.110  24.172  83.8870  0.00  0.00     0.000 OA
ENDBRANCH 2 9
BRANCH 5 14
ATOM     14   C  IDS C   1     139.408  22.607  87.5520  0.00  0.00     0.000 C
ATOM     15   O  IDS C   1     139.520  22.645  88.7530  0.00  0.00     0.000 OA
ATOM     16   O  IDS C   1     138.307  22.585  87.0280  0.00  0.00     0.000 OA
ENDBRANCH 5 14
BRANCH 1 17
ATOM     17  O4  SGN C   2     143.487  20.388  86.7430  0.00  0.00     0.000 O
BRANCH 17 21
ATOM     18  C1  SGN C   2     145.386  17.635  89.2600  0.00  0.00     0.000 C
ATOM     19  C2  SGN C   2     144.303  18.514  89.8970  0.00  0.00     0.000 C
ATOM     20  C3  SGN C   2     143.431  19.140  88.8010  0.00  0.00     0.000 C
ATOM     21  C4  SGN C   2     144.305  19.870  87.7880  0.00  0.00     0.000 C
ATOM     22  C5  SGN C   2     145.334  18.894  87.2240  0.00  0.00     0.000 C
ATOM     23  O5  SGN C   2     146.134  18.351  88.3000  0.00  0.00     0.000 O
ATOM     24   O  SGN C   2     142.485  20.021  89.3830  0.00  0.00     0.000 O
ATOM     26  HD  SGN C   2     142.770  19.406  88.8430  0.00  0.00     0.000 HD
BRANCH 19 28
ATOM     26   N  SGN C   2     143.978  17.746  91.1070  0.00  0.00     0.000 N
ATOM     28  HD  SGN C   2     144.819  17.584  90.9800  0.00  0.00     0.000 HD
ATOM     28   O  SGN C   2     142.649  17.529  93.2070  0.00  0.00     0.000 OA
ATOM     29   S  SGN C   2     143.716  18.452  92.5280  0.00  0.00     0.000 S
ATOM     30   O  SGN C   2     144.916  18.377  93.2680  0.00  0.00     0.000 OA
ATOM     31   O  SGN C   2     143.123  19.720  92.2770  0.00  0.00     0.000 OA
ENDBRANCH 19 28
BRANCH 22 32
ATOM     32   C  SGN C   2     146.293  19.533  86.2490  0.00  0.00     0.000 C
ATOM     33   S  SGN C   2     148.218  18.835  84.6840  0.00  0.00     0.000 S
ATOM     34   O  SGN C   2     149.152  18.711  85.7760  0.00  0.00     0.000 OA
ATOM     35   O  SGN C   2     148.373  17.814  83.6690  0.00  0.00     0.000 OA
ATOM     36   O  SGN C   2     148.115  20.171  84.1460  0.00  0.00     0.000 OA
ATOM     37   O  SGN C   2     146.796  18.540  85.3480  0.00  0.00     0.000 O
ENDBRANCH 22 32
BRANCH 18 38
ATOM     38  O4  IDS C   3     145.308  16.401  88.7550  0.00  0.00     0.000 O
BRANCH 38 42
ATOM     39  C1  IDS C   3     147.456  14.673  86.6280  0.00  0.00     0.000 C
ATOM     40  C2  IDS C   3     145.944  14.397  86.6210  0.00  0.00     0.000 C
ATOM     41  C3  IDS C   3     145.429  14.105  88.0300  0.00  0.00     0.000 C
ATOM     42  C4  IDS C   3     145.931  15.141  89.0260  0.00  0.00     0.000 C
ATOM     43  C5  IDS C   3     147.454  15.275  88.9130  0.00  0.00     0.000 C
ATOM     44  O5  IDS C   3     147.791  15.665  87.5830  0.00  0.00     0.000 O
ATOM     45   O  IDS C   3     145.860  12.803  88.4300  0.00  0.00     0.000 O
ATOM     47  HD  IDS C   3     146.626  12.403  88.4900  0.00  0.00     0.000 HD
BRANCH 40 47
ATOM     47   O  IDS C   3     145.203  15.576  86.1120  0.00  0.00     0.000 O
ATOM     48   S  IDS C   3     144.638  15.576  84.6160  0.00  0.00     0.000 S
ATOM     49   O  IDS C   3     145.778  15.832  83.7620  0.00  0.00     0.000 OA
ATOM     50   O  IDS C   3     143.666  16.645  84.5760  0.00  0.00     0.000 OA
ATOM     51   O  IDS C   3     144.060  14.276  84.4000  0.00  0.00     0.000 OA
ENDBRANCH 40 47
BRANCH 43 52
ATOM     52   C  IDS C   3     148.029  16.271  89.8960  0.00  0.00     0.000 C
ATOM     53   O  IDS C   3     148.817  17.107  89.5160  0.00  0.00     0.000 OA
ATOM     54   O  IDS C   3     147.699  16.226  91.0540  0.00  0.00     0.000 OA
ENDBRANCH 43 52
BRANCH 39 55
ATOM     55  O4  SGN C   4     148.381  13.722  86.4860  0.00  0.00     0.000 O
BRANCH 55 59
ATOM     56  C1  SGN C   4     152.288  14.627  85.2950  0.00  0.00     0.000 C
ATOM     57  C2  SGN C   4     151.172  14.934  84.2820  0.00  0.00     0.000 C
ATOM     58  C3  SGN C   4     149.807  14.937  84.9640  0.00  0.00     0.000 C
ATOM     59  C4  SGN C   4     149.608  13.660  85.7740  0.00  0.00     0.000 C
ATOM     60  C5  SGN C   4     150.771  13.513  86.7520  0.00  0.00     0.000 C
ATOM     61  O5  SGN C   4     151.993  13.427  85.9920  0.00  0.00     0.000 O
ATOM     62   O  SGN C   4     148.785  15.074  83.9860  0.00  0.00     0.000 O
ATOM     64  HD  SGN C   4     149.473  15.471  83.6390  0.00  0.00     0.000 HD
BRANCH 57 66
ATOM     64   N  SGN C   4     150.970  15.875  83.1690  0.00  0.00     0.000 N
ATOM     66  HD  SGN C   4     151.365  16.587  82.8720  0.00  0.00     0.000 HD
ATOM     66   S  SGN C   4     152.154  16.187  82.1450  0.00  0.00     0.000 S
ATOM     67   O  SGN C   4     151.681  17.165  81.2340  0.00  0.00     0.000 OA
ATOM     68   O  SGN C   4     153.315  16.458  82.9210  0.00  0.00     0.000 OA
ATOM     69   O  SGN C   4     152.359  14.833  81.3920  0.00  0.00     0.000 OA
ENDBRANCH 57 66
BRANCH 60 70
ATOM     70   C  SGN C   4     150.683  12.280  87.6250  0.00  0.00     0.000 C
ATOM     71   O  SGN C   4     149.322  12.083  91.1200  0.00  0.00     0.000 OA
ATOM     72   O  SGN C   4     148.221  11.424  89.0700  0.00  0.00     0.000 OA
ATOM     73   O  SGN C   4     150.300  12.638  88.9670  0.00  0.00     0.000 O
ATOM     74   S  SGN C   4     149.470  11.545  89.7880  0.00  0.00     0.000 S
ATOM     75   O  SGN C   4     150.284  10.346  89.7360  0.00  0.00     0.000 OA
ENDBRANCH 60 70
BRANCH 56 76
ATOM     76  O4  IDS C   5     153.110  15.357  86.0710  0.00  0.00     0.000 O
BRANCH 76 80
ATOM     77  C1  IDS C   5     153.351  18.061  89.1180  0.00  0.00     0.000 C
ATOM     78  C2  IDS C   5     152.631  18.574  87.8710  0.00  0.00     0.000 C
ATOM     79  C3  IDS C   5     152.212  17.404  87.0020  0.00  0.00     0.000 C
ATOM     80  C4  IDS C   5     153.452  16.693  86.4690  0.00  0.00     0.000 C
ATOM     81  C5  IDS C   5     154.532  16.667  87.5610  0.00  0.00     0.000 C
ATOM     82  O5  IDS C   5     153.939  16.787  88.8570  0.00  0.00     0.000 O
BRANCH 78 83
ATOM     83   O  IDS C   5     151.419  19.340  88.2420  0.00  0.00     0.000 O
ATOM     84   S  IDS C   5     151.361  20.912  87.9750  0.00  0.00     0.000 S
ATOM     85   O  IDS C   5     152.588  21.447  88.5000  0.00  0.00     0.000 OA
ATOM     86   O  IDS C   5     151.249  21.048  86.5420  0.00  0.00     0.000 OA
ATOM     87   O  IDS C   5     150.189  21.383  88.6720  0.00  0.00     0.000 OA
ENDBRANCH 78 83
BRANCH 81 88
ATOM     88   C  IDS C   5     155.379  15.408  87.5600  0.00  0.00     0.000 C
ATOM     89   O  IDS C   5     156.245  15.269  86.7380  0.00  0.00     0.000 OA
ATOM     90   O  IDS C   5     155.176  14.550  88.3880  0.00  0.00     0.000 OA
ENDBRANCH 81 88
ENDBRANCH 76 80
ENDBRANCH 56 76
ENDBRANCH 55 59
ENDBRANCH 39 55
ENDBRANCH 38 42
ENDBRANCH 18 38
ENDBRANCH 17 21
ENDBRANCH 1 17
TORSDOF 18
ENDMDL
MODEL 74
REMARK VINA RESULT:      -6.9     21.698     25.825
ROOT
ATOM      1  C1  IDS C   1     165.102  26.307  74.8990  0.00  0.00     0.000 C
ATOM      2  C2  IDS C   1     163.636  25.894  75.0590  0.00  0.00     0.000 C
ATOM      3  C3  IDS C   1     163.340  25.499  76.4990  0.00  0.00     0.000 C
ATOM      4  C4  IDS C   1     164.236  24.348  76.9350  0.00  0.00     0.000 C
ATOM      5  C5  IDS C   1     165.641  24.536  76.3700  0.00  0.00     0.000 C
ATOM      6  O5  IDS C   1     165.856  25.907  76.0360  0.00  0.00     0.000 O
ATOM      7   O  IDS C   1     161.962  25.121  76.6240  0.00  0.00     0.000 O
ATOM      9  HD  IDS C   1     161.491  25.632  76.1070  0.00  0.00     0.000 HD
ENDROOT
BRANCH 2 9
ATOM      9   O  IDS C   1     162.732  27.013  74.7090  0.00  0.00     0.000 O
ATOM     10   S  IDS C   1     161.635  26.807  73.5700  0.00  0.00     0.000 S
ATOM     11   O  IDS C   1     160.918  28.060  73.4790  0.00  0.00     0.000 OA
ATOM     12   O  IDS C   1     162.378  26.494  72.3660  0.00  0.00     0.000 OA
ATOM     13   O  IDS C   1     160.801  25.714  74.0180  0.00  0.00     0.000 OA
ENDBRANCH 2 9
BRANCH 5 14
ATOM     14   C  IDS C   1     166.716  24.106  77.3540  0.00  0.00     0.000 C
ATOM     15   O  IDS C   1     166.413  23.430  78.3070  0.00  0.00     0.000 OA
ATOM     16   O  IDS C   1     167.873  24.449  77.1740  0.00  0.00     0.000 OA
ENDBRANCH 5 14
BRANCH 1 17
ATOM     17  O4  SGN C   2     165.484  27.369  74.1840  0.00  0.00     0.000 O
BRANCH 17 21
ATOM     18  C1  SGN C   2     166.632  31.363  73.6770  0.00  0.00     0.000 C
ATOM     19  C2  SGN C   2     166.604  30.834  75.1160  0.00  0.00     0.000 C
ATOM     20  C3  SGN C   2     166.589  29.300  75.1060  0.00  0.00     0.000 C
ATOM     21  C4  SGN C   2     165.444  28.792  74.2360  0.00  0.00     0.000 C
ATOM     22  C5  SGN C   2     165.584  29.381  72.8360  0.00  0.00     0.000 C
ATOM     23  O5  SGN C   2     165.576  30.825  72.9090  0.00  0.00     0.000 O
ATOM     24   O  SGN C   2     166.475  28.810  76.4310  0.00  0.00     0.000 O
ATOM     26  HD  SGN C   2     166.775  28.840  75.6200  0.00  0.00     0.000 HD
BRANCH 19 28
ATOM     26   N  SGN C   2     167.439  31.825  75.8080  0.00  0.00     0.000 N
ATOM     28  HD  SGN C   2     167.032  32.287  75.1990  0.00  0.00     0.000 HD
ATOM     28   O  SGN C   2     168.503  32.623  77.9190  0.00  0.00     0.000 OA
ATOM     29   S  SGN C   2     167.095  32.355  77.2870  0.00  0.00     0.000 S
ATOM     30   O  SGN C   2     166.420  33.588  77.1510  0.00  0.00     0.000 OA
ATOM     31   O  SGN C   2     166.476  31.289  77.9950  0.00  0.00     0.000 OA
ENDBRANCH 19 28
BRANCH 22 32
ATOM     32   C  SGN C   2     164.464  28.986  71.9050  0.00  0.00     0.000 C
ATOM     33   S  SGN C   2     162.624  30.114  70.4980  0.00  0.00     0.000 S
ATOM     34   O  SGN C   2     161.798  30.366  71.6520  0.00  0.00     0.000 OA
ATOM     35   O  SGN C   2     162.612  31.192  69.5300  0.00  0.00     0.000 OA
ATOM     36   O  SGN C   2     162.431  28.810  69.9080  0.00  0.00     0.000 OA
ATOM     37   O  SGN C   2     164.112  30.098  71.0740  0.00  0.00     0.000 O
ENDBRANCH 22 32
BRANCH 18 38
ATOM     38  O4  IDS C   3     167.646  31.457  72.8130  0.00  0.00     0.000 O
BRANCH 38 42
ATOM     39  C1  IDS C   3     170.476  32.377  71.0040  0.00  0.00     0.000 C
ATOM     40  C2  IDS C   3     169.175  31.975  70.2900  0.00  0.00     0.000 C
ATOM     41  C3  IDS C   3     168.664  30.625  70.7920  0.00  0.00     0.000 C
ATOM     42  C4  IDS C   3     168.653  30.571  72.3140  0.00  0.00     0.000 C
ATOM     43  C5  IDS C   3     170.027  30.981  72.8580  0.00  0.00     0.000 C
ATOM     44  O5  IDS C   3     170.330  32.302  72.4130  0.00  0.00     0.000 O
ATOM     45   O  IDS C   3     169.496  29.583  70.2780  0.00  0.00     0.000 O
ATOM     47  HD  IDS C   3     170.345  29.412  70.2970  0.00  0.00     0.000 HD
BRANCH 40 47
ATOM     47   O  IDS C   3     168.112  32.976  70.5430  0.00  0.00     0.000 O
ATOM     48   S  IDS C   3     167.721  34.027  69.4030  0.00  0.00     0.000 S
ATOM     49   O  IDS C   3     168.766  35.028  69.4110  0.00  0.00     0.000 OA
ATOM     50   O  IDS C   3     166.438  34.563  69.8040  0.00  0.00     0.000 OA
ATOM     51   O  IDS C   3     167.666  33.288  68.1700  0.00  0.00     0.000 OA
ENDBRANCH 40 47
BRANCH 43 52
ATOM     52   C  IDS C   3     170.100  30.924  74.3670  0.00  0.00     0.000 C
ATOM     53   O  IDS C   3     170.290  31.937  75.0000  0.00  0.00     0.000 OA
ATOM     54   O  IDS C   3     169.968  29.868  74.9320  0.00  0.00     0.000 OA
ENDBRANCH 43 52
BRANCH 39 55
ATOM     55  O4  SGN C   4     171.691  32.048  70.5660  0.00  0.00     0.000 O
BRANCH 55 59
ATOM     56  C1  SGN C   4     175.818  31.912  71.2430  0.00  0.00     0.000 C
ATOM     57  C2  SGN C   4     175.097  30.559  71.1100  0.00  0.00     0.000 C
ATOM     58  C3  SGN C   4     173.717  30.739  70.4850  0.00  0.00     0.000 C
ATOM     59  C4  SGN C   4     172.930  31.818  71.2210  0.00  0.00     0.000 C
ATOM     60  C5  SGN C   4     173.757  33.102  71.2400  0.00  0.00     0.000 C
ATOM     61  O5  SGN C   4     174.992  32.835  71.9340  0.00  0.00     0.000 O
ATOM     62   O  SGN C   4     173.017  29.502  70.5110  0.00  0.00     0.000 O
ATOM     64  HD  SGN C   4     173.853  29.278  70.4780  0.00  0.00     0.000 HD
BRANCH 57 66
ATOM     64   N  SGN C   4     175.842  29.526  70.3730  0.00  0.00     0.000 N
ATOM     66  HD  SGN C   4     176.673  29.296  70.2860  0.00  0.00     0.000 HD
ATOM     66   S  SGN C   4     176.848  28.550  71.1360  0.00  0.00     0.000 S
ATOM     67   O  SGN C   4     177.454  27.717  70.1620  0.00  0.00     0.000 OA
ATOM     68   O  SGN C   4     177.667  29.363  71.9680  0.00  0.00     0.000 OA
ATOM     69   O  SGN C   4     175.912  27.689  72.0440  0.00  0.00     0.000 OA
ENDBRANCH 57 66
BRANCH 60 70
ATOM     70   C  SGN C   4     173.074  34.257  71.9400  0.00  0.00     0.000 C
ATOM     71   O  SGN C   4     172.494  37.703  70.5630  0.00  0.00     0.000 OA
ATOM     72   O  SGN C   4     170.896  35.895  70.7330  0.00  0.00     0.000 OA
ATOM     73   O  SGN C   4     173.226  35.470  71.1770  0.00  0.00     0.000 O
ATOM     74   S  SGN C   4     172.052  36.547  71.3080  0.00  0.00     0.000 S
ATOM     75   O  SGN C   4     171.929  36.790  72.7310  0.00  0.00     0.000 OA
ENDBRANCH 60 70
BRANCH 56 76
ATOM     76  O4  IDS C   5     176.679  32.621  70.4900  0.00  0.00     0.000 O
BRANCH 76 80
ATOM     77  C1  IDS C   5     179.413  32.674  67.4590  0.00  0.00     0.000 C
ATOM     78  C2  IDS C   5     179.777  31.756  68.6260  0.00  0.00     0.000 C
ATOM     79  C3  IDS C   5     178.543  31.468  69.4580  0.00  0.00     0.000 C
ATOM     80  C4  IDS C   5     178.058  32.757  70.1160  0.00  0.00     0.000 C
ATOM     81  C5  IDS C   5     178.236  33.926  69.1370  0.00  0.00     0.000 C
ATOM     82  O5  IDS C   5     178.261  33.451  67.7870  0.00  0.00     0.000 O
BRANCH 78 83
ATOM     83   O  IDS C   5     180.318  30.469  68.1310  0.00  0.00     0.000 O
ATOM     84   S  IDS C   5     181.495  29.745  68.9280  0.00  0.00     0.000 S
ATOM     85   O  IDS C   5     182.489  30.756  69.1700  0.00  0.00     0.000 OA
ATOM     86   O  IDS C   5     180.883  29.249  70.1380  0.00  0.00     0.000 OA
ATOM     87   O  IDS C   5     181.958  28.686  68.0640  0.00  0.00     0.000 OA
ENDBRANCH 78 83
BRANCH 81 88
ATOM     88   C  IDS C   5     177.147  34.979  69.2310  0.00  0.00     0.000 C
ATOM     89   O  IDS C   5     177.170  35.787  70.1210  0.00  0.00     0.000 OA
ATOM     90   O  IDS C   5     176.261  34.999  68.4080  0.00  0.00     0.000 OA
ENDBRANCH 81 88
ENDBRANCH 76 80
ENDBRANCH 56 76
ENDBRANCH 55 59
ENDBRANCH 39 55
ENDBRANCH 38 42
ENDBRANCH 18 38
ENDBRANCH 17 21
ENDBRANCH 1 17
TORSDOF 18
ENDMDL
MODEL 75
REMARK VINA RESULT:      -6.9     28.117     32.822
ROOT
ATOM      1  C1  IDS C   1     146.360  19.544  84.4580  0.00  0.00     0.000 C
ATOM      2  C2  IDS C   1     147.771  20.107  84.2620  0.00  0.00     0.000 C
ATOM      3  C3  IDS C   1     147.933  21.428  85.0010  0.00  0.00     0.000 C
ATOM      4  C4  IDS C   1     146.913  22.446  84.5090  0.00  0.00     0.000 C
ATOM      5  C5  IDS C   1     145.572  21.764  84.2590  0.00  0.00     0.000 C
ATOM      6  O5  IDS C   1     145.498  20.541  84.9910  0.00  0.00     0.000 O
ATOM      7   O  IDS C   1     149.262  21.932  84.8070  0.00  0.00     0.000 O
ATOM      9  HD  IDS C   1     149.809  21.261  84.7940  0.00  0.00     0.000 HD
ENDROOT
BRANCH 2 9
ATOM      9   O  IDS C   1     148.790  19.172  84.7920  0.00  0.00     0.000 O
ATOM     10   S  IDS C   1     149.932  18.626  83.8220  0.00  0.00     0.000 S
ATOM     11   O  IDS C   1     150.760  17.762  84.6330  0.00  0.00     0.000 OA
ATOM     12   O  IDS C   1     149.240  17.916  82.7660  0.00  0.00     0.000 OA
ATOM     13   O  IDS C   1     150.638  19.796  83.3470  0.00  0.00     0.000 OA
ENDBRANCH 2 9
BRANCH 5 14
ATOM     14   C  IDS C   1     144.399  22.640  84.6660  0.00  0.00     0.000 C
ATOM     15   O  IDS C   1     143.539  22.186  85.3820  0.00  0.00     0.000 OA
ATOM     16   O  IDS C   1     144.335  23.790  84.2660  0.00  0.00     0.000 OA
ENDBRANCH 5 14
BRANCH 1 17
ATOM     17  O4  SGN C   2     146.120  18.253  84.7040  0.00  0.00     0.000 O
BRANCH 17 21
ATOM     18  C1  SGN C   2     144.633  15.063  86.9710  0.00  0.00     0.000 C
ATOM     19  C2  SGN C   2     144.207  16.471  87.4040  0.00  0.00     0.000 C
ATOM     20  C3  SGN C   2     144.464  17.466  86.2660  0.00  0.00     0.000 C
ATOM     21  C4  SGN C   2     145.914  17.371  85.8040  0.00  0.00     0.000 C
ATOM     22  C5  SGN C   2     146.215  15.932  85.3970  0.00  0.00     0.000 C
ATOM     23  O5  SGN C   2     145.969  15.046  86.5140  0.00  0.00     0.000 O
ATOM     24   O  SGN C   2     144.153  18.781  86.6940  0.00  0.00     0.000 O
ATOM     26  HD  SGN C   2     144.175  18.108  86.1490  0.00  0.00     0.000 HD
BRANCH 19 28
ATOM     26   N  SGN C   2     143.001  16.183  88.1930  0.00  0.00     0.000 N
ATOM     28  HD  SGN C   2     143.483  15.470  88.2860  0.00  0.00     0.000 HD
ATOM     28   O  SGN C   2     141.147  17.010  89.6430  0.00  0.00     0.000 OA
ATOM     29   S  SGN C   2     142.708  16.892  89.6060  0.00  0.00     0.000 S
ATOM     30   O  SGN C   2     143.118  16.002  90.6220  0.00  0.00     0.000 OA
ATOM     31   O  SGN C   2     143.260  18.202  89.5540  0.00  0.00     0.000 OA
ENDBRANCH 19 28
BRANCH 22 32
ATOM     32   C  SGN C   2     147.648  15.715  84.9770  0.00  0.00     0.000 C
ATOM     33   S  SGN C   2     149.188  13.774  84.2680  0.00  0.00     0.000 S
ATOM     34   O  SGN C   2     149.342  13.311  85.6240  0.00  0.00     0.000 OA
ATOM     35   O  SGN C   2     149.081  12.705  83.2980  0.00  0.00     0.000 OA
ATOM     36   O  SGN C   2     150.125  14.805  83.8870  0.00  0.00     0.000 OA
ATOM     37   O  SGN C   2     147.757  14.483  84.2550  0.00  0.00     0.000 O
ENDBRANCH 22 32
BRANCH 18 38
ATOM     38  O4  IDS C   3     144.012  14.177  86.1890  0.00  0.00     0.000 O
BRANCH 38 42
ATOM     39  C1  IDS C   3     142.022  11.784  84.6260  0.00  0.00     0.000 C
ATOM     40  C2  IDS C   3     143.453  11.452  85.0760  0.00  0.00     0.000 C
ATOM     41  C3  IDS C   3     144.453  12.475  84.5390  0.00  0.00     0.000 C
ATOM     42  C4  IDS C   3     143.972  13.898  84.7850  0.00  0.00     0.000 C
ATOM     43  C5  IDS C   3     142.540  14.061  84.2600  0.00  0.00     0.000 C
ATOM     44  O5  IDS C   3     141.690  13.129  84.9270  0.00  0.00     0.000 O
ATOM     45   O  IDS C   3     144.638  12.265  83.1380  0.00  0.00     0.000 O
ATOM     47  HD  IDS C   3     144.113  12.226  82.4500  0.00  0.00     0.000 HD
BRANCH 40 47
ATOM     47   O  IDS C   3     143.551  11.470  86.5550  0.00  0.00     0.000 O
ATOM     48   S  IDS C   3     143.936  10.132  87.3430  0.00  0.00     0.000 S
ATOM     49   O  IDS C   3     142.738   9.321  87.3590  0.00  0.00     0.000 OA
ATOM     50   O  IDS C   3     144.326  10.569  88.6660  0.00  0.00     0.000 OA
ATOM     51   O  IDS C   3     145.012   9.523  86.6080  0.00  0.00     0.000 OA
ENDBRANCH 40 47
BRANCH 43 52
ATOM     52   C  IDS C   3     142.003  15.462  84.4460  0.00  0.00     0.000 C
ATOM     53   O  IDS C   3     142.317  16.336  83.6700  0.00  0.00     0.000 OA
ATOM     54   O  IDS C   3     141.264  15.702  85.3670  0.00  0.00     0.000 OA
ENDBRANCH 43 52
BRANCH 39 55
ATOM     55  O4  SGN C   4     141.479  11.331  83.4960  0.00  0.00     0.000 O
BRANCH 55 59
ATOM     56  C1  SGN C   4     137.342  10.745  83.7040  0.00  0.00     0.000 C
ATOM     57  C2  SGN C   4     138.224   9.504  83.9260  0.00  0.00     0.000 C
ATOM     58  C3  SGN C   4     139.666   9.911  84.2160  0.00  0.00     0.000 C
ATOM     59  C4  SGN C   4     140.175  10.881  83.1570  0.00  0.00     0.000 C
ATOM     60  C5  SGN C   4     139.218  12.069  83.0780  0.00  0.00     0.000 C
ATOM     61  O5  SGN C   4     137.915  11.576  82.7080  0.00  0.00     0.000 O
ATOM     62   O  SGN C   4     140.486   8.751  84.2690  0.00  0.00     0.000 O
ATOM     64  HD  SGN C   4     139.702   8.473  84.5100  0.00  0.00     0.000 HD
BRANCH 57 66
ATOM     64   N  SGN C   4     137.854   8.496  84.9320  0.00  0.00     0.000 N
ATOM     66  HD  SGN C   4     137.122   8.226  85.3070  0.00  0.00     0.000 HD
ATOM     66   S  SGN C   4     136.740   7.400  84.6110  0.00  0.00     0.000 S
ATOM     67   O  SGN C   4     136.563   6.620  85.7820  0.00  0.00     0.000 OA
ATOM     68   O  SGN C   4     135.627   8.088  84.0550  0.00  0.00     0.000 OA
ATOM     69   O  SGN C   4     137.394   6.522  83.4970  0.00  0.00     0.000 OA
ENDBRANCH 57 66
BRANCH 60 70
ATOM     70   C  SGN C   4     139.623  13.114  82.0610  0.00  0.00     0.000 C
ATOM     71   O  SGN C   4     137.417  15.729  80.5130  0.00  0.00     0.000 OA
ATOM     72   O  SGN C   4     139.009  16.019  82.3090  0.00  0.00     0.000 OA
ATOM     73   O  SGN C   4     138.463  13.798  81.5510  0.00  0.00     0.000 O
ATOM     74   S  SGN C   4     138.674  15.315  81.0920  0.00  0.00     0.000 S
ATOM     75   O  SGN C   4     139.762  15.265  80.1360  0.00  0.00     0.000 OA
ENDBRANCH 60 70
BRANCH 56 76
ATOM     76  O4  IDS C   5     136.559  11.519  84.4780  0.00  0.00     0.000 O
BRANCH 76 80
ATOM     77  C1  IDS C   5     137.928  14.851  86.3970  0.00  0.00     0.000 C
ATOM     78  C2  IDS C   5     138.023  13.563  87.2160  0.00  0.00     0.000 C
ATOM     79  C3  IDS C   5     137.917  12.361  86.2980  0.00  0.00     0.000 C
ATOM     80  C4  IDS C   5     136.527  12.319  85.6690  0.00  0.00     0.000 C
ATOM     81  C5  IDS C   5     136.073  13.749  85.3430  0.00  0.00     0.000 C
ATOM     82  O5  IDS C   5     137.203  14.613  85.1900  0.00  0.00     0.000 O
BRANCH 78 83
ATOM     83   O  IDS C   5     139.317  13.492  87.9330  0.00  0.00     0.000 O
ATOM     84   S  IDS C   5     139.347  13.574  89.5260  0.00  0.00     0.000 S
ATOM     85   O  IDS C   5     138.531  14.704  89.8790  0.00  0.00     0.000 OA
ATOM     86   O  IDS C   5     138.801  12.316  89.9790  0.00  0.00     0.000 OA
ATOM     87   O  IDS C   5     140.734  13.739  89.8830  0.00  0.00     0.000 OA
ENDBRANCH 78 83
BRANCH 81 88
ATOM     88   C  IDS C   5     135.241  13.857  84.0780  0.00  0.00     0.000 C
ATOM     89   O  IDS C   5     135.736  14.286  83.0700  0.00  0.00     0.000 OA
ATOM     90   O  IDS C   5     134.082  13.510  84.0920  0.00  0.00     0.000 OA
ENDBRANCH 81 88
ENDBRANCH 76 80
ENDBRANCH 56 76
ENDBRANCH 55 59
ENDBRANCH 39 55
ENDBRANCH 38 42
ENDBRANCH 18 38
ENDBRANCH 17 21
ENDBRANCH 1 17
TORSDOF 18
ENDMDL
MODEL 76
REMARK VINA RESULT:      -6.9     30.526     34.167
ROOT
ATOM      1  C1  IDS C   1     139.154  38.259  71.9480  0.00  0.00     0.000 C
ATOM      2  C2  IDS C   1     139.813  39.641  71.9370  0.00  0.00     0.000 C
ATOM      3  C3  IDS C   1     138.808  40.715  71.5470  0.00  0.00     0.000 C
ATOM      4  C4  IDS C   1     138.221  40.428  70.1720  0.00  0.00     0.000 C
ATOM      5  C5  IDS C   1     137.979  38.930  70.0080  0.00  0.00     0.000 C
ATOM      6  O5  IDS C   1     137.895  38.304  71.2890  0.00  0.00     0.000 O
ATOM      7   O  IDS C   1     139.446  42.000  71.5480  0.00  0.00     0.000 O
ATOM      9  HD  IDS C   1     140.018  42.019  72.1980  0.00  0.00     0.000 HD
ENDROOT
BRANCH 2 9
ATOM      9   O  IDS C   1     140.337  39.986  73.2780  0.00  0.00     0.000 O
ATOM     10   S  IDS C   1     141.908  40.165  73.4830  0.00  0.00     0.000 S
ATOM     11   O  IDS C   1     142.089  40.507  74.8760  0.00  0.00     0.000 OA
ATOM     12   O  IDS C   1     142.494  38.886  73.1350  0.00  0.00     0.000 OA
ATOM     13   O  IDS C   1     142.304  41.229  72.5870  0.00  0.00     0.000 OA
ENDBRANCH 2 9
BRANCH 5 14
ATOM     14   C  IDS C   1     136.700  38.636  69.2440  0.00  0.00     0.000 C
ATOM     15   O  IDS C   1     136.766  38.146  68.1430  0.00  0.00     0.000 OA
ATOM     16   O  IDS C   1     135.620  38.899  69.7460  0.00  0.00     0.000 OA
ENDBRANCH 5 14
BRANCH 1 17
ATOM     17  O4  SGN C   2     139.372  37.357  72.9090  0.00  0.00     0.000 O
BRANCH 17 21
ATOM     18  C1  SGN C   2     137.976  35.415  76.3450  0.00  0.00     0.000 C
ATOM     19  C2  SGN C   2     137.176  36.636  75.8730  0.00  0.00     0.000 C
ATOM     20  C3  SGN C   2     137.538  36.963  74.4190  0.00  0.00     0.000 C
ATOM     21  C4  SGN C   2     139.047  37.119  74.2760  0.00  0.00     0.000 C
ATOM     22  C5  SGN C   2     139.728  35.846  74.7710  0.00  0.00     0.000 C
ATOM     23  O5  SGN C   2     139.362  35.600  76.1480  0.00  0.00     0.000 O
ATOM     24   O  SGN C   2     136.865  38.142  74.0080  0.00  0.00     0.000 O
ATOM     26  HD  SGN C   2     137.171  37.335  73.9320  0.00  0.00     0.000 HD
BRANCH 19 28
ATOM     26   N  SGN C   2     135.892  36.425  76.5550  0.00  0.00     0.000 N
ATOM     28  HD  SGN C   2     136.473  36.092  77.1040  0.00  0.00     0.000 HD
ATOM     28   O  SGN C   2     133.571  37.207  77.0320  0.00  0.00     0.000 OA
ATOM     29   S  SGN C   2     135.066  37.632  77.2240  0.00  0.00     0.000 S
ATOM     30   O  SGN C   2     135.360  37.635  78.6060  0.00  0.00     0.000 OA
ATOM     31   O  SGN C   2     135.308  38.801  76.4520  0.00  0.00     0.000 OA
ENDBRANCH 19 28
BRANCH 22 32
ATOM     32   C  SGN C   2     141.235  35.917  74.7260  0.00  0.00     0.000 C
ATOM     33   S  SGN C   2     143.259  34.356  75.0560  0.00  0.00     0.000 S
ATOM     34   O  SGN C   2     143.135  34.385  76.4920  0.00  0.00     0.000 OA
ATOM     35   O  SGN C   2     143.628  33.058  74.5310  0.00  0.00     0.000 OA
ATOM     36   O  SGN C   2     144.041  35.440  74.5100  0.00  0.00     0.000 OA
ATOM     37   O  SGN C   2     141.773  34.604  74.5280  0.00  0.00     0.000 O
ENDBRANCH 22 32
BRANCH 18 38
ATOM     38  O4  IDS C   3     137.785  34.116  76.1090  0.00  0.00     0.000 O
BRANCH 38 42
ATOM     39  C1  IDS C   3     137.697  30.636  76.0150  0.00  0.00     0.000 C
ATOM     40  C2  IDS C   3     138.997  31.403  75.7280  0.00  0.00     0.000 C
ATOM     41  C3  IDS C   3     138.783  32.471  74.6560  0.00  0.00     0.000 C
ATOM     42  C4  IDS C   3     137.546  33.308  74.9510  0.00  0.00     0.000 C
ATOM     43  C5  IDS C   3     136.343  32.389  75.1920  0.00  0.00     0.000 C
ATOM     44  O5  IDS C   3     136.628  31.525  76.2910  0.00  0.00     0.000 O
ATOM     45   O  IDS C   3     138.646  31.840  73.3810  0.00  0.00     0.000 O
ATOM     47  HD  IDS C   3     138.129  31.227  73.0540  0.00  0.00     0.000 HD
BRANCH 40 47
ATOM     47   O  IDS C   3     139.477  32.090  76.9500  0.00  0.00     0.000 O
ATOM     48   S  IDS C   3     140.773  31.545  77.7120  0.00  0.00     0.000 S
ATOM     49   O  IDS C   3     140.340  30.378  78.4500  0.00  0.00     0.000 OA
ATOM     50   O  IDS C   3     141.187  32.626  78.5800  0.00  0.00     0.000 OA
ATOM     51   O  IDS C   3     141.742  31.234  76.6950  0.00  0.00     0.000 OA
ENDBRANCH 40 47
BRANCH 43 52
ATOM     52   C  IDS C   3     135.067  33.154  75.4650  0.00  0.00     0.000 C
ATOM     53   O  IDS C   3     134.791  34.125  74.7980  0.00  0.00     0.000 OA
ATOM     54   O  IDS C   3     134.331  32.792  76.3470  0.00  0.00     0.000 OA
ENDBRANCH 43 52
BRANCH 39 55
ATOM     55  O4  SGN C   4     137.330  29.533  75.3610  0.00  0.00     0.000 O
BRANCH 55 59
ATOM     56  C1  SGN C   4     136.271  26.191  77.6450  0.00  0.00     0.000 C
ATOM     57  C2  SGN C   4     137.776  26.476  77.5000  0.00  0.00     0.000 C
ATOM     58  C3  SGN C   4     138.012  27.899  77.0010  0.00  0.00     0.000 C
ATOM     59  C4  SGN C   4     137.181  28.176  75.7530  0.00  0.00     0.000 C
ATOM     60  C5  SGN C   4     135.715  27.880  76.0630  0.00  0.00     0.000 C
ATOM     61  O5  SGN C   4     135.602  26.491  76.4310  0.00  0.00     0.000 O
ATOM     62   O  SGN C   4     139.395  28.087  76.7350  0.00  0.00     0.000 O
ATOM     64  HD  SGN C   4     139.374  27.484  77.3560  0.00  0.00     0.000 HD
BRANCH 57 66
ATOM     64   N  SGN C   4     138.813  25.436  77.5910  0.00  0.00     0.000 N
ATOM     66  HD  SGN C   4     139.545  25.320  78.0400  0.00  0.00     0.000 HD
ATOM     66   S  SGN C   4     139.204  24.802  79.0030  0.00  0.00     0.000 S
ATOM     67   O  SGN C   4     140.262  23.885  78.7780  0.00  0.00     0.000 OA
ATOM     68   O  SGN C   4     139.398  25.884  79.9050  0.00  0.00     0.000 OA
ATOM     69   O  SGN C   4     137.920  24.019  79.4270  0.00  0.00     0.000 OA
ENDBRANCH 57 66
BRANCH 60 70
ATOM     70   C  SGN C   4     134.783  28.127  74.8970  0.00  0.00     0.000 C
ATOM     71   O  SGN C   4     133.748  25.649  72.2720  0.00  0.00     0.000 OA
ATOM     72   O  SGN C   4     132.476  26.375  74.1970  0.00  0.00     0.000 OA
ATOM     73   O  SGN C   4     134.793  27.004  73.9950  0.00  0.00     0.000 O
ATOM     74   S  SGN C   4     133.444  26.728  73.1830  0.00  0.00     0.000 S
ATOM     75   O  SGN C   4     133.150  27.981  72.5170  0.00  0.00     0.000 OA
ENDBRANCH 60 70
BRANCH 56 76
ATOM     76  O4  IDS C   5     135.368  26.274  78.6390  0.00  0.00     0.000 O
BRANCH 76 80
ATOM     77  C1  IDS C   5     134.958  29.687  80.8400  0.00  0.00     0.000 C
ATOM     78  C2  IDS C   5     135.896  28.647  81.4510  0.00  0.00     0.000 C
ATOM     79  C3  IDS C   5     136.319  27.649  80.3910  0.00  0.00     0.000 C
ATOM     80  C4  IDS C   5     135.105  26.850  79.9270  0.00  0.00     0.000 C
ATOM     81  C5  IDS C   5     133.882  27.776  79.8610  0.00  0.00     0.000 C
ATOM     82  O5  IDS C   5     134.291  29.138  79.7030  0.00  0.00     0.000 O
BRANCH 78 83
ATOM     83   O  IDS C   5     137.112  29.294  81.9970  0.00  0.00     0.000 O
ATOM     84   S  IDS C   5     137.618  28.922  83.4630  0.00  0.00     0.000 S
ATOM     85   O  IDS C   5     136.462  29.010  84.3150  0.00  0.00     0.000 OA
ATOM     86   O  IDS C   5     138.141  27.580  83.3530  0.00  0.00     0.000 OA
ATOM     87   O  IDS C   5     138.637  29.892  83.7830  0.00  0.00     0.000 OA
ENDBRANCH 78 83
BRANCH 81 88
ATOM     88   C  IDS C   5     132.925  27.452  78.7280  0.00  0.00     0.000 C
ATOM     89   O  IDS C   5     132.328  26.409  78.7300  0.00  0.00     0.000 OA
ATOM     90   O  IDS C   5     132.767  28.247  77.8310  0.00  0.00     0.000 OA
ENDBRANCH 81 88
ENDBRANCH 76 80
ENDBRANCH 56 76
ENDBRANCH 55 59
ENDBRANCH 39 55
ENDBRANCH 38 42
ENDBRANCH 18 38
ENDBRANCH 17 21
ENDBRANCH 1 17
TORSDOF 18
ENDMDL
MODEL 77
REMARK VINA RESULT:      -6.9     27.951     32.487
ROOT
ATOM      1  C1  IDS C   1     146.330  19.502  84.4610  0.00  0.00     0.000 C
ATOM      2  C2  IDS C   1     147.782  19.949  84.2660  0.00  0.00     0.000 C
ATOM      3  C3  IDS C   1     148.048  21.255  85.0010  0.00  0.00     0.000 C
ATOM      4  C4  IDS C   1     147.114  22.350  84.5070  0.00  0.00     0.000 C
ATOM      5  C5  IDS C   1     145.722  21.778  84.2570  0.00  0.00     0.000 C
ATOM      6  O5  IDS C   1     145.551  20.566  84.9920  0.00  0.00     0.000 O
ATOM      7   O  IDS C   1     149.413  21.651  84.8070  0.00  0.00     0.000 O
ATOM      9  HD  IDS C   1     149.905  20.938  84.7960  0.00  0.00     0.000 HD
ENDROOT
BRANCH 2 9
ATOM      9   O  IDS C   1     148.721  18.937  84.7980  0.00  0.00     0.000 O
ATOM     10   S  IDS C   1     149.854  18.342  83.8460  0.00  0.00     0.000 S
ATOM     11   O  IDS C   1     150.601  17.406  84.6560  0.00  0.00     0.000 OA
ATOM     12   O  IDS C   1     149.149  17.705  82.7520  0.00  0.00     0.000 OA
ATOM     13   O  IDS C   1     150.648  19.474  83.4210  0.00  0.00     0.000 OA
ENDBRANCH 2 9
BRANCH 5 14
ATOM     14   C  IDS C   1     144.623  22.746  84.6610  0.00  0.00     0.000 C
ATOM     15   O  IDS C   1     144.655  23.883  84.2580  0.00  0.00     0.000 OA
ATOM     16   O  IDS C   1     143.721  22.367  85.3900  0.00  0.00     0.000 OA
ENDBRANCH 5 14
BRANCH 1 17
ATOM     17  O4  SGN C   2     145.987  18.235  84.7100  0.00  0.00     0.000 O
BRANCH 17 21
ATOM     18  C1  SGN C   2     144.564  15.093  87.0820  0.00  0.00     0.000 C
ATOM     19  C2  SGN C   2     144.321  16.514  87.6070  0.00  0.00     0.000 C
ATOM     20  C3  SGN C   2     144.502  17.525  86.4680  0.00  0.00     0.000 C
ATOM     21  C4  SGN C   2     145.862  17.333  85.8060  0.00  0.00     0.000 C
ATOM     22  C5  SGN C   2     145.981  15.890  85.3250  0.00  0.00     0.000 C
ATOM     23  O5  SGN C   2     145.818  14.986  86.4420  0.00  0.00     0.000 O
ATOM     24   O  SGN C   2     144.364  18.845  86.9690  0.00  0.00     0.000 O
ATOM     26  HD  SGN C   2     144.255  18.193  86.4090  0.00  0.00     0.000 HD
BRANCH 19 28
ATOM     26   N  SGN C   2     143.239  16.287  88.5740  0.00  0.00     0.000 N
ATOM     28  HD  SGN C   2     143.704  15.558  88.6110  0.00  0.00     0.000 HD
ATOM     28   O  SGN C   2     141.655  17.213  90.2650  0.00  0.00     0.000 OA
ATOM     29   S  SGN C   2     143.188  17.034  89.9970  0.00  0.00     0.000 S
ATOM     30   O  SGN C   2     143.715  16.147  90.9620  0.00  0.00     0.000 OA
ATOM     31   O  SGN C   2     143.772  18.319  89.8310  0.00  0.00     0.000 OA
ENDBRANCH 19 28
BRANCH 22 32
ATOM     32   C  SGN C   2     147.319  15.575  84.7020  0.00  0.00     0.000 C
ATOM     33   S  SGN C   2     149.087  13.701  84.7510  0.00  0.00     0.000 S
ATOM     34   O  SGN C   2     149.596  14.120  86.0320  0.00  0.00     0.000 OA
ATOM     35   O  SGN C   2     149.037  12.263  84.5880  0.00  0.00     0.000 OA
ATOM     36   O  SGN C   2     149.682  14.386  83.6280  0.00  0.00     0.000 OA
ATOM     37   O  SGN C   2     147.560  14.164  84.7630  0.00  0.00     0.000 O
ENDBRANCH 22 32
BRANCH 18 38
ATOM     38  O4  IDS C   3     143.769  14.288  86.3740  0.00  0.00     0.000 O
BRANCH 38 42
ATOM     39  C1  IDS C   3     141.052  12.908  84.6870  0.00  0.00     0.000 C
ATOM     40  C2  IDS C   3     140.880  13.553  86.0720  0.00  0.00     0.000 C
ATOM     41  C3  IDS C   3     141.874  12.974  87.0790  0.00  0.00     0.000 C
ATOM     42  C4  IDS C   3     143.285  12.948  86.5070  0.00  0.00     0.000 C
ATOM     43  C5  IDS C   3     143.278  12.255  85.1390  0.00  0.00     0.000 C
ATOM     44  O5  IDS C   3     142.404  12.963  84.2620  0.00  0.00     0.000 O
ATOM     45   O  IDS C   3     141.471  11.650  87.4320  0.00  0.00     0.000 O
ATOM     47  HD  IDS C   3     141.300  10.924  86.9910  0.00  0.00     0.000 HD
BRANCH 40 47
ATOM     47   O  IDS C   3     141.121  15.014  85.9990  0.00  0.00     0.000 O
ATOM     48   S  IDS C   3     140.197  16.016  86.8360  0.00  0.00     0.000 S
ATOM     49   O  IDS C   3     138.951  16.111  86.1050  0.00  0.00     0.000 OA
ATOM     50   O  IDS C   3     140.920  17.268  86.8620  0.00  0.00     0.000 OA
ATOM     51   O  IDS C   3     140.036  15.427  88.1390  0.00  0.00     0.000 OA
ENDBRANCH 40 47
BRANCH 43 52
ATOM     52   C  IDS C   3     144.656  12.166  84.5210  0.00  0.00     0.000 C
ATOM     53   O  IDS C   3     144.858  12.645  83.4290  0.00  0.00     0.000 OA
ATOM     54   O  IDS C   3     145.545  11.619  85.1210  0.00  0.00     0.000 OA
ENDBRANCH 43 52
BRANCH 39 55
ATOM     55  O4  SGN C   4     140.405  11.809  84.2980  0.00  0.00     0.000 O
BRANCH 55 59
ATOM     56  C1  SGN C   4     137.938  10.028  81.4270  0.00  0.00     0.000 C
ATOM     57  C2  SGN C   4     139.275   9.325  81.7160  0.00  0.00     0.000 C
ATOM     58  C3  SGN C   4     139.880   9.829  83.0240  0.00  0.00     0.000 C
ATOM     59  C4  SGN C   4     139.939  11.352  83.0370  0.00  0.00     0.000 C
ATOM     60  C5  SGN C   4     138.538  11.899  82.7700  0.00  0.00     0.000 C
ATOM     61  O5  SGN C   4     138.111  11.436  81.4740  0.00  0.00     0.000 O
ATOM     62   O  SGN C   4     141.179   9.276  83.1910  0.00  0.00     0.000 O
ATOM     64  HD  SGN C   4     140.753   8.690  82.7170  0.00  0.00     0.000 HD
BRANCH 57 66
ATOM     64   N  SGN C   4     139.538   8.608  80.4580  0.00  0.00     0.000 N
ATOM     66  HD  SGN C   4     140.053   7.961  80.2030  0.00  0.00     0.000 HD
ATOM     66   S  SGN C   4     139.434   7.017  80.3940  0.00  0.00     0.000 S
ATOM     67   O  SGN C   4     139.798   6.620  79.0830  0.00  0.00     0.000 OA
ATOM     68   O  SGN C   4     140.161   6.508  81.5050  0.00  0.00     0.000 OA
ATOM     69   O  SGN C   4     137.914   6.735  80.6180  0.00  0.00     0.000 OA
ENDBRANCH 57 66
BRANCH 60 70
ATOM     70   C  SGN C   4     138.463  13.411  82.7680  0.00  0.00     0.000 C
ATOM     71   O  SGN C   4     139.757  15.730  80.1120  0.00  0.00     0.000 OA
ATOM     72   O  SGN C   4     137.470  15.035  80.4760  0.00  0.00     0.000 OA
ATOM     73   O  SGN C   4     139.248  13.954  81.6890  0.00  0.00     0.000 O
ATOM     74   S  SGN C   4     138.750  15.342  81.0720  0.00  0.00     0.000 S
ATOM     75   O  SGN C   4     138.658  16.240  82.2070  0.00  0.00     0.000 OA
ENDBRANCH 60 70
BRANCH 56 76
ATOM     76  O4  IDS C   5     136.641   9.769  81.6750  0.00  0.00     0.000 O
BRANCH 76 80
ATOM     77  C1  IDS C   5     133.609   8.214  79.4290  0.00  0.00     0.000 C
ATOM     78  C2  IDS C   5     133.953   9.669  79.1100  0.00  0.00     0.000 C
ATOM     79  C3  IDS C   5     135.329  10.003  79.6540  0.00  0.00     0.000 C
ATOM     80  C4  IDS C   5     135.305   9.936  81.1780  0.00  0.00     0.000 C
ATOM     81  C5  IDS C   5     134.417   8.765  81.6220  0.00  0.00     0.000 C
ATOM     82  O5  IDS C   5     134.326   7.783  80.5860  0.00  0.00     0.000 O
BRANCH 78 83
ATOM     83   O  IDS C   5     133.961   9.896  77.6460  0.00  0.00     0.000 O
ATOM     84   S  IDS C   5     133.925   8.651  76.6500  0.00  0.00     0.000 S
ATOM     85   O  IDS C   5     134.937   7.742  77.1160  0.00  0.00     0.000 OA
ATOM     86   O  IDS C   5     132.588   8.117  76.7600  0.00  0.00     0.000 OA
ATOM     87   O  IDS C   5     134.202   9.189  75.3400  0.00  0.00     0.000 OA
ENDBRANCH 78 83
BRANCH 81 88
ATOM     88   C  IDS C   5     134.905   8.063  82.8760  0.00  0.00     0.000 C
ATOM     89   O  IDS C   5     135.424   6.982  82.7930  0.00  0.00     0.000 OA
ATOM     90   O  IDS C   5     134.770   8.598  83.9520  0.00  0.00     0.000 OA
ENDBRANCH 81 88
ENDBRANCH 76 80
ENDBRANCH 56 76
ENDBRANCH 55 59
ENDBRANCH 39 55
ENDBRANCH 38 42
ENDBRANCH 18 38
ENDBRANCH 17 21
ENDBRANCH 1 17
TORSDOF 18
ENDMDL
MODEL 78
REMARK VINA RESULT:      -6.8     26.774     35.025
ROOT
ATOM      1  C1  IDS C   1     142.864  49.404  55.9220  0.00  0.00     0.000 C
ATOM      2  C2  IDS C   1     141.378  49.737  56.0820  0.00  0.00     0.000 C
ATOM      3  C3  IDS C   1     141.195  51.041  56.8450  0.00  0.00     0.000 C
ATOM      4  C4  IDS C   1     141.841  50.952  58.2210  0.00  0.00     0.000 C
ATOM      5  C5  IDS C   1     143.159  50.189  58.1330  0.00  0.00     0.000 C
ATOM      6  O5  IDS C   1     143.649  50.209  56.7920  0.00  0.00     0.000 O
ATOM      7   O  IDS C   1     139.797  51.333  56.9780  0.00  0.00     0.000 O
ATOM      9  HD  IDS C   1     139.397  51.083  56.2520  0.00  0.00     0.000 HD
ENDROOT
BRANCH 2 9
ATOM      9   O  IDS C   1     140.729  49.898  54.7610  0.00  0.00     0.000 O
ATOM     10   S  IDS C   1     139.458  49.006  54.3980  0.00  0.00     0.000 S
ATOM     11   O  IDS C   1     139.059  49.408  53.0670  0.00  0.00     0.000 OA
ATOM     12   O  IDS C   1     139.916  47.633  54.4600  0.00  0.00     0.000 OA
ATOM     13   O  IDS C   1     138.461  49.314  55.3990  0.00  0.00     0.000 OA
ENDBRANCH 2 9
BRANCH 5 14
ATOM     14   C  IDS C   1     144.224  50.778  59.0430  0.00  0.00     0.000 C
ATOM     15   O  IDS C   1     143.892  51.362  60.0450  0.00  0.00     0.000 OA
ATOM     16   O  IDS C   1     145.402  50.658  58.7520  0.00  0.00     0.000 OA
ENDBRANCH 5 14
BRANCH 1 17
ATOM     17  O4  SGN C   2     143.388  48.946  54.7820  0.00  0.00     0.000 O
BRANCH 17 21
ATOM     18  C1  SGN C   2     145.515  49.273  51.1910  0.00  0.00     0.000 C
ATOM     19  C2  SGN C   2     145.671  50.427  52.1890  0.00  0.00     0.000 C
ATOM     20  C3  SGN C   2     145.200  49.980  53.5780  0.00  0.00     0.000 C
ATOM     21  C4  SGN C   2     143.785  49.417  53.4970  0.00  0.00     0.000 C
ATOM     22  C5  SGN C   2     143.760  48.279  52.4810  0.00  0.00     0.000 C
ATOM     23  O5  SGN C   2     144.197  48.765  51.1910  0.00  0.00     0.000 O
ATOM     24   O  SGN C   2     145.261  51.070  54.4820  0.00  0.00     0.000 O
ATOM     26  HD  SGN C   2     145.357  50.250  54.2200  0.00  0.00     0.000 HD
BRANCH 19 28
ATOM     26   N  SGN C   2     146.899  51.070  51.7010  0.00  0.00     0.000 N
ATOM     28  HD  SGN C   2     146.513  50.790  50.9790  0.00  0.00     0.000 HD
ATOM     28   O  SGN C   2     148.619  52.859  51.9540  0.00  0.00     0.000 OA
ATOM     29   S  SGN C   2     147.087  52.667  51.6930  0.00  0.00     0.000 S
ATOM     30   O  SGN C   2     146.789  53.125  50.3900  0.00  0.00     0.000 OA
ATOM     31   O  SGN C   2     146.369  53.192  52.8030  0.00  0.00     0.000 OA
ENDBRANCH 19 28
BRANCH 22 32
ATOM     32   C  SGN C   2     142.386  47.687  52.2800  0.00  0.00     0.000 C
ATOM     33   S  SGN C   2     140.776  47.137  50.3440  0.00  0.00     0.000 S
ATOM     34   O  SGN C   2     140.386  48.515  50.1860  0.00  0.00     0.000 OA
ATOM     35   O  SGN C   2     140.912  46.423  49.0910  0.00  0.00     0.000 OA
ATOM     36   O  SGN C   2     140.010  46.418  51.3350  0.00  0.00     0.000 OA
ATOM     37   O  SGN C   2     142.258  47.212  50.9350  0.00  0.00     0.000 O
ENDBRANCH 22 32
BRANCH 18 38
ATOM     38  O4  IDS C   3     146.277  48.195  50.9930  0.00  0.00     0.000 O
BRANCH 38 42
ATOM     39  C1  IDS C   3     148.620  45.794  50.0590  0.00  0.00     0.000 C
ATOM     40  C2  IDS C   3     147.118  45.566  49.8280  0.00  0.00     0.000 C
ATOM     41  C3  IDS C   3     146.321  45.787  51.1130  0.00  0.00     0.000 C
ATOM     42  C4  IDS C   3     146.719  47.091  51.7910  0.00  0.00     0.000 C
ATOM     43  C5  IDS C   3     148.242  47.144  51.9610  0.00  0.00     0.000 C
ATOM     44  O5  IDS C   3     148.859  47.047  50.6790  0.00  0.00     0.000 O
ATOM     45   O  IDS C   3     146.546  44.692  52.0030  0.00  0.00     0.000 O
ATOM     47  HD  IDS C   3     147.247  44.320  52.3510  0.00  0.00     0.000 HD
BRANCH 40 47
ATOM     47   O  IDS C   3     146.598  46.515  48.8140  0.00  0.00     0.000 O
ATOM     48   S  IDS C   3     145.816  45.961  47.5340  0.00  0.00     0.000 S
ATOM     49   O  IDS C   3     146.831  45.447  46.6390  0.00  0.00     0.000 OA
ATOM     50   O  IDS C   3     145.124  47.107  46.9850  0.00  0.00     0.000 OA
ATOM     51   O  IDS C   3     144.925  44.938  48.0130  0.00  0.00     0.000 OA
ENDBRANCH 40 47
BRANCH 43 52
ATOM     52   C  IDS C   3     148.710  48.404  52.6560  0.00  0.00     0.000 C
ATOM     53   O  IDS C   3     149.287  49.260  52.0270  0.00  0.00     0.000 OA
ATOM     54   O  IDS C   3     148.504  48.548  53.8340  0.00  0.00     0.000 OA
ENDBRANCH 43 52
BRANCH 39 55
ATOM     55  O4  SGN C   4     149.463  44.833  50.4370  0.00  0.00     0.000 O
BRANCH 55 59
ATOM     56  C1  SGN C   4     150.540  40.793  50.6100  0.00  0.00     0.000 C
ATOM     57  C2  SGN C   4     149.743  41.240  49.3720  0.00  0.00     0.000 C
ATOM     58  C3  SGN C   4     149.761  42.760  49.2370  0.00  0.00     0.000 C
ATOM     59  C4  SGN C   4     149.342  43.421  50.5450  0.00  0.00     0.000 C
ATOM     60  C5  SGN C   4     150.241  42.905  51.6660  0.00  0.00     0.000 C
ATOM     61  O5  SGN C   4     150.071  41.477  51.7610  0.00  0.00     0.000 O
ATOM     62   O  SGN C   4     148.899  43.154  48.1770  0.00  0.00     0.000 O
ATOM     64  HD  SGN C   4     149.164  42.359  47.9570  0.00  0.00     0.000 HD
BRANCH 57 66
ATOM     64   N  SGN C   4     150.172  39.907  48.9190  0.00  0.00     0.000 N
ATOM     66  HD  SGN C   4     149.784  39.157  48.7290  0.00  0.00     0.000 HD
ATOM     66   S  SGN C   4     149.528  39.247  47.6160  0.00  0.00     0.000 S
ATOM     67   O  SGN C   4     150.091  37.954  47.4730  0.00  0.00     0.000 OA
ATOM     68   O  SGN C   4     148.118  39.387  47.7320  0.00  0.00     0.000 OA
ATOM     69   O  SGN C   4     150.027  40.162  46.4520  0.00  0.00     0.000 OA
ENDBRANCH 57 66
BRANCH 60 70
ATOM     70   C  SGN C   4     149.928  43.499  53.0230  0.00  0.00     0.000 C
ATOM     71   O  SGN C   4     152.390  44.851  55.5150  0.00  0.00     0.000 OA
ATOM     72   O  SGN C   4     150.991  46.107  53.9950  0.00  0.00     0.000 OA
ATOM     73   O  SGN C   4     151.140  43.713  53.7720  0.00  0.00     0.000 O
ATOM     74   S  SGN C   4     151.129  44.925  54.8150  0.00  0.00     0.000 S
ATOM     75   O  SGN C   4     149.981  44.673  55.6630  0.00  0.00     0.000 OA
ENDBRANCH 60 70
BRANCH 56 76
ATOM     76  O4  IDS C   5     151.808  40.412  50.8510  0.00  0.00     0.000 O
BRANCH 76 80
ATOM     77  C1  IDS C   5     155.271  38.417  51.6810  0.00  0.00     0.000 C
ATOM     78  C2  IDS C   5     154.055  37.932  52.4700  0.00  0.00     0.000 C
ATOM     79  C3  IDS C   5     152.782  38.406  51.7960  0.00  0.00     0.000 C
ATOM     80  C4  IDS C   5     152.705  39.928  51.8620  0.00  0.00     0.000 C
ATOM     81  C5  IDS C   5     154.108  40.518  51.6610  0.00  0.00     0.000 C
ATOM     82  O5  IDS C   5     154.942  39.598  50.9500  0.00  0.00     0.000 O
BRANCH 78 83
ATOM     83   O  IDS C   5     154.028  36.452  52.5340  0.00  0.00     0.000 O
ATOM     84   S  IDS C   5     154.465  35.709  53.8760  0.00  0.00     0.000 S
ATOM     85   O  IDS C   5     155.717  36.299  54.2660  0.00  0.00     0.000 OA
ATOM     86   O  IDS C   5     153.399  35.966  54.8160  0.00  0.00     0.000 OA
ATOM     87   O  IDS C   5     154.576  34.313  53.5310  0.00  0.00     0.000 OA
ENDBRANCH 78 83
BRANCH 81 88
ATOM     88   C  IDS C   5     154.121  41.830  50.8990  0.00  0.00     0.000 C
ATOM     89   O  IDS C   5     153.835  42.853  51.4630  0.00  0.00     0.000 OA
ATOM     90   O  IDS C   5     154.421  41.839  49.7270  0.00  0.00     0.000 OA
ENDBRANCH 81 88
ENDBRANCH 76 80
ENDBRANCH 56 76
ENDBRANCH 55 59
ENDBRANCH 39 55
ENDBRANCH 38 42
ENDBRANCH 18 38
ENDBRANCH 17 21
ENDBRANCH 1 17
TORSDOF 18
ENDMDL
MODEL 79
REMARK VINA RESULT:      -6.8     30.850     36.016
ROOT
ATOM      1  C1  IDS C   1     127.678  35.678  70.9450  0.00  0.00     0.000 C
ATOM      2  C2  IDS C   1     127.623  36.740  69.8430  0.00  0.00     0.000 C
ATOM      3  C3  IDS C   1     126.417  37.649  70.0290  0.00  0.00     0.000 C
ATOM      4  C4  IDS C   1     125.127  36.841  70.0120  0.00  0.00     0.000 C
ATOM      5  C5  IDS C   1     125.326  35.522  70.7520  0.00  0.00     0.000 C
ATOM      6  O5  IDS C   1     126.439  35.621  71.6410  0.00  0.00     0.000 O
ATOM      7   O  IDS C   1     126.390  38.637  68.9890  0.00  0.00     0.000 O
ATOM      9  HD  IDS C   1     127.206  38.867  68.8110  0.00  0.00     0.000 HD
ENDROOT
BRANCH 2 9
ATOM      9   O  IDS C   1     128.833  37.592  69.8720  0.00  0.00     0.000 O
ATOM     10   S  IDS C   1     129.725  37.731  68.5570  0.00  0.00     0.000 S
ATOM     11   O  IDS C   1     130.806  38.627  68.9040  0.00  0.00     0.000 OA
ATOM     12   O  IDS C   1     130.180  36.390  68.2520  0.00  0.00     0.000 OA
ATOM     13   O  IDS C   1     128.850  38.274  67.5420  0.00  0.00     0.000 OA
ENDBRANCH 2 9
BRANCH 5 14
ATOM     14   C  IDS C   1     124.101  35.127  71.5580  0.00  0.00     0.000 C
ATOM     15   O  IDS C   1     123.110  34.744  70.9840  0.00  0.00     0.000 OA
ATOM     16   O  IDS C   1     124.126  35.201  72.7750  0.00  0.00     0.000 OA
ENDBRANCH 5 14
BRANCH 1 17
ATOM     17  O4  SGN C   2     128.809  35.332  71.5670  0.00  0.00     0.000 O
BRANCH 17 21
ATOM     18  C1  SGN C   2     131.289  34.785  74.8950  0.00  0.00     0.000 C
ATOM     19  C2  SGN C   2     129.794  34.984  75.1770  0.00  0.00     0.000 C
ATOM     20  C3  SGN C   2     128.987  34.745  73.8950  0.00  0.00     0.000 C
ATOM     21  C4  SGN C   2     129.526  35.614  72.7650  0.00  0.00     0.000 C
ATOM     22  C5  SGN C   2     131.012  35.323  72.5780  0.00  0.00     0.000 C
ATOM     23  O5  SGN C   2     131.720  35.583  73.8120  0.00  0.00     0.000 O
ATOM     24   O  SGN C   2     127.615  35.013  74.1320  0.00  0.00     0.000 O
ATOM     26  HD  SGN C   2     128.296  34.581  73.8170  0.00  0.00     0.000 HD
BRANCH 19 28
ATOM     26   N  SGN C   2     129.676  34.427  76.5310  0.00  0.00     0.000 N
ATOM     28  HD  SGN C   2     130.485  34.732  76.5050  0.00  0.00     0.000 HD
ATOM     28   O  SGN C   2     128.258  33.941  78.5260  0.00  0.00     0.000 OA
ATOM     29   S  SGN C   2     128.807  35.140  77.6810  0.00  0.00     0.000 S
ATOM     30   O  SGN C   2     129.696  35.888  78.4840  0.00  0.00     0.000 OA
ATOM     31   O  SGN C   2     127.711  35.791  77.0520  0.00  0.00     0.000 OA
ENDBRANCH 19 28
BRANCH 22 32
ATOM     32   C  SGN C   2     131.660  36.178  71.5170  0.00  0.00     0.000 C
ATOM     33   S  SGN C   2     133.978  37.160  70.9670  0.00  0.00     0.000 S
ATOM     34   O  SGN C   2     133.849  38.199  71.9580  0.00  0.00     0.000 OA
ATOM     35   O  SGN C   2     135.313  36.606  70.8780  0.00  0.00     0.000 OA
ATOM     36   O  SGN C   2     133.408  37.496  69.6840  0.00  0.00     0.000 OA
ATOM     37   O  SGN C   2     133.077  35.968  71.5280  0.00  0.00     0.000 O
ENDBRANCH 22 32
BRANCH 18 38
ATOM     38  O4  IDS C   3     132.001  33.662  74.7740  0.00  0.00     0.000 O
BRANCH 38 42
ATOM     39  C1  IDS C   3     133.978  30.808  75.0360  0.00  0.00     0.000 C
ATOM     40  C2  IDS C   3     134.524  32.093  74.3930  0.00  0.00     0.000 C
ATOM     41  C3  IDS C   3     133.588  32.604  73.2990  0.00  0.00     0.000 C
ATOM     42  C4  IDS C   3     132.144  32.640  73.7810  0.00  0.00     0.000 C
ATOM     43  C5  IDS C   3     131.760  31.279  74.3720  0.00  0.00     0.000 C
ATOM     44  O5  IDS C   3     132.635  30.977  75.4570  0.00  0.00     0.000 O
ATOM     45   O  IDS C   3     133.692  31.757  72.1530  0.00  0.00     0.000 O
ATOM     47  HD  IDS C   3     133.603  30.907  72.0100  0.00  0.00     0.000 HD
BRANCH 40 47
ATOM     47   O  IDS C   3     134.652  33.167  75.4070  0.00  0.00     0.000 O
ATOM     48   S  IDS C   3     136.103  33.664  75.8600  0.00  0.00     0.000 S
ATOM     49   O  IDS C   3     136.605  32.652  76.7640  0.00  0.00     0.000 OA
ATOM     50   O  IDS C   3     135.882  34.933  76.5190  0.00  0.00     0.000 OA
ATOM     51   O  IDS C   3     136.888  33.778  74.6590  0.00  0.00     0.000 OA
ENDBRANCH 40 47
BRANCH 43 52
ATOM     52   C  IDS C   3     130.325  31.231  74.8490  0.00  0.00     0.000 C
ATOM     53   O  IDS C   3     129.427  31.103  74.0480  0.00  0.00     0.000 OA
ATOM     54   O  IDS C   3     130.083  31.320  76.0260  0.00  0.00     0.000 OA
ENDBRANCH 43 52
BRANCH 39 55
ATOM     55  O4  SGN C   4     134.257  29.583  74.5900  0.00  0.00     0.000 O
BRANCH 55 59
ATOM     56  C1  SGN C   4     136.469  27.045  77.0740  0.00  0.00     0.000 C
ATOM     57  C2  SGN C   4     137.252  28.156  76.3540  0.00  0.00     0.000 C
ATOM     58  C3  SGN C   4     136.304  29.225  75.8160  0.00  0.00     0.000 C
ATOM     59  C4  SGN C   4     135.188  28.589  74.9950  0.00  0.00     0.000 C
ATOM     60  C5  SGN C   4     134.486  27.537  75.8520  0.00  0.00     0.000 C
ATOM     61  O5  SGN C   4     135.455  26.536  76.2220  0.00  0.00     0.000 O
ATOM     62   O  SGN C   4     137.035  30.157  75.0300  0.00  0.00     0.000 O
ATOM     64  HD  SGN C   4     137.611  29.858  75.6040  0.00  0.00     0.000 HD
BRANCH 57 66
ATOM     64   N  SGN C   4     138.271  27.745  77.3330  0.00  0.00     0.000 N
ATOM     66  HD  SGN C   4     139.039  27.346  77.3060  0.00  0.00     0.000 HD
ATOM     66   S  SGN C   4     139.791  28.198  77.1610  0.00  0.00     0.000 S
ATOM     67   O  SGN C   4     140.533  27.602  78.2120  0.00  0.00     0.000 OA
ATOM     68   O  SGN C   4     140.154  27.933  75.8110  0.00  0.00     0.000 OA
ATOM     69   O  SGN C   4     139.743  29.745  77.3710  0.00  0.00     0.000 OA
ENDBRANCH 57 66
BRANCH 60 70
ATOM     70   C  SGN C   4     133.344  26.838  75.1480  0.00  0.00     0.000 C
ATOM     71   O  SGN C   4     129.739  27.890  75.1000  0.00  0.00     0.000 OA
ATOM     72   O  SGN C   4     131.390  28.205  73.3610  0.00  0.00     0.000 OA
ATOM     73   O  SGN C   4     132.083  27.419  75.5300  0.00  0.00     0.000 O
ATOM     74   S  SGN C   4     130.914  27.369  74.4400  0.00  0.00     0.000 S
ATOM     75   O  SGN C   4     130.802  25.970  74.0810  0.00  0.00     0.000 OA
ENDBRANCH 60 70
BRANCH 56 76
ATOM     76  O4  IDS C   5     136.094  26.800  78.3430  0.00  0.00     0.000 O
BRANCH 76 80
ATOM     77  C1  IDS C   5     138.733  24.992  80.8780  0.00  0.00     0.000 C
ATOM     78  C2  IDS C   5     137.713  24.046  80.2450  0.00  0.00     0.000 C
ATOM     79  C3  IDS C   5     137.092  24.701  79.0270  0.00  0.00     0.000 C
ATOM     80  C4  IDS C   5     136.277  25.916  79.4600  0.00  0.00     0.000 C
ATOM     81  C5  IDS C   5     137.008  26.638  80.6010  0.00  0.00     0.000 C
ATOM     82  O5  IDS C   5     138.408  26.346  80.5650  0.00  0.00     0.000 O
BRANCH 78 83
ATOM     83   O  IDS C   5     138.362  22.785  79.8180  0.00  0.00     0.000 O
ATOM     84   S  IDS C   5     137.661  21.387  80.1330  0.00  0.00     0.000 S
ATOM     85   O  IDS C   5     137.298  21.430  81.5240  0.00  0.00     0.000 OA
ATOM     86   O  IDS C   5     136.519  21.329  79.2500  0.00  0.00     0.000 OA
ATOM     87   O  IDS C   5     138.647  20.378  79.8320  0.00  0.00     0.000 OA
ENDBRANCH 78 83
BRANCH 81 88
ATOM     88   C  IDS C   5     136.855  28.148  80.5720  0.00  0.00     0.000 C
ATOM     89   O  IDS C   5     135.834  28.654  80.9540  0.00  0.00     0.000 OA
ATOM     90   O  IDS C   5     137.764  28.834  80.1650  0.00  0.00     0.000 OA
ENDBRANCH 81 88
ENDBRANCH 76 80
ENDBRANCH 56 76
ENDBRANCH 55 59
ENDBRANCH 39 55
ENDBRANCH 38 42
ENDBRANCH 18 38
ENDBRANCH 17 21
ENDBRANCH 1 17
TORSDOF 18
ENDMDL
MODEL 80
REMARK VINA RESULT:      -6.8     22.514     27.408
ROOT
ATOM      1  C1  IDS C   1     164.028  26.741  73.3880  0.00  0.00     0.000 C
ATOM      2  C2  IDS C   1     162.850  27.718  73.4470  0.00  0.00     0.000 C
ATOM      3  C3  IDS C   1     161.607  27.032  73.9950  0.00  0.00     0.000 C
ATOM      4  C4  IDS C   1     161.226  25.838  73.1310  0.00  0.00     0.000 C
ATOM      5  C5  IDS C   1     162.481  25.099  72.6770  0.00  0.00     0.000 C
ATOM      6  O5  IDS C   1     163.572  25.404  73.5470  0.00  0.00     0.000 O
ATOM      7   O  IDS C   1     160.519  27.967  74.0450  0.00  0.00     0.000 O
ATOM      9  HD  IDS C   1     160.837  28.742  74.2630  0.00  0.00     0.000 HD
ENDROOT
BRANCH 2 9
ATOM      9   O  IDS C   1     163.157  28.861  74.3360  0.00  0.00     0.000 O
ATOM     10   S  IDS C   1     163.243  30.330  73.7210  0.00  0.00     0.000 S
ATOM     11   O  IDS C   1     163.540  31.208  74.8310  0.00  0.00     0.000 OA
ATOM     12   O  IDS C   1     164.308  30.281  72.7410  0.00  0.00     0.000 OA
ATOM     13   O  IDS C   1     161.947  30.588  73.1330  0.00  0.00     0.000 OA
ENDBRANCH 2 9
BRANCH 5 14
ATOM     14   C  IDS C   1     162.285  23.593  72.6610  0.00  0.00     0.000 C
ATOM     15   O  IDS C   1     161.186  23.139  72.4570  0.00  0.00     0.000 OA
ATOM     16   O  IDS C   1     163.237  22.856  72.8560  0.00  0.00     0.000 OA
ENDBRANCH 5 14
BRANCH 1 17
ATOM     17  O4  SGN C   2     165.267  27.072  73.7620  0.00  0.00     0.000 O
BRANCH 17 21
ATOM     18  C1  SGN C   2     167.768  27.864  77.0240  0.00  0.00     0.000 C
ATOM     19  C2  SGN C   2     168.453  27.420  75.7260  0.00  0.00     0.000 C
ATOM     20  C3  SGN C   2     167.486  27.582  74.5460  0.00  0.00     0.000 C
ATOM     21  C4  SGN C   2     166.177  26.856  74.8370  0.00  0.00     0.000 C
ATOM     22  C5  SGN C   2     165.593  27.386  76.1430  0.00  0.00     0.000 C
ATOM     23  O5  SGN C   2     166.542  27.190  77.2170  0.00  0.00     0.000 O
ATOM     24   O  SGN C   2     168.086  27.091  73.3590  0.00  0.00     0.000 O
ATOM     26  HD  SGN C   2     167.625  27.638  73.8480  0.00  0.00     0.000 HD
BRANCH 19 28
ATOM     26   N  SGN C   2     169.818  27.927  75.9220  0.00  0.00     0.000 N
ATOM     28  HD  SGN C   2     169.522  27.813  76.7280  0.00  0.00     0.000 HD
ATOM     28   O  SGN C   2     172.180  28.066  75.1340  0.00  0.00     0.000 OA
ATOM     29   S  SGN C   2     171.119  27.028  75.6320  0.00  0.00     0.000 S
ATOM     30   O  SGN C   2     171.552  26.495  76.8660  0.00  0.00     0.000 OA
ATOM     31   O  SGN C   2     170.805  26.150  74.5590  0.00  0.00     0.000 OA
ENDBRANCH 19 28
BRANCH 22 32
ATOM     32   C  SGN C   2     164.319  26.689  76.5550  0.00  0.00     0.000 C
ATOM     33   S  SGN C   2     162.455  26.941  78.3170  0.00  0.00     0.000 S
ATOM     34   O  SGN C   2     163.283  26.406  79.3690  0.00  0.00     0.000 OA
ATOM     35   O  SGN C   2     161.611  28.038  78.7430  0.00  0.00     0.000 OA
ATOM     36   O  SGN C   2     161.752  25.937  77.5530  0.00  0.00     0.000 OA
ATOM     37   O  SGN C   2     163.492  27.595  77.2950  0.00  0.00     0.000 O
ENDBRANCH 22 32
BRANCH 18 38
ATOM     38  O4  IDS C   3     167.544  29.089  77.5050  0.00  0.00     0.000 O
BRANCH 38 42
ATOM     39  C1  IDS C   3     166.771  32.417  78.1800  0.00  0.00     0.000 C
ATOM     40  C2  IDS C   3     168.021  32.043  77.3670  0.00  0.00     0.000 C
ATOM     41  C3  IDS C   3     168.872  31.010  78.1050  0.00  0.00     0.000 C
ATOM     42  C4  IDS C   3     168.019  29.857  78.6160  0.00  0.00     0.000 C
ATOM     43  C5  IDS C   3     166.832  30.405  79.4180  0.00  0.00     0.000 C
ATOM     44  O5  IDS C   3     166.056  31.260  78.5800  0.00  0.00     0.000 O
ATOM     45   O  IDS C   3     169.536  31.641  79.2020  0.00  0.00     0.000 O
ATOM     47  HD  IDS C   3     169.281  32.107  79.8860  0.00  0.00     0.000 HD
BRANCH 40 47
ATOM     47   O  IDS C   3     167.637  31.453  76.0630  0.00  0.00     0.000 O
ATOM     48   S  IDS C   3     167.565  32.379  74.7610  0.00  0.00     0.000 S
ATOM     49   O  IDS C   3     166.329  33.123  74.8710  0.00  0.00     0.000 OA
ATOM     50   O  IDS C   3     167.561  31.462  73.6420  0.00  0.00     0.000 OA
ATOM     51   O  IDS C   3     168.730  33.223  74.7970  0.00  0.00     0.000 OA
ENDBRANCH 40 47
BRANCH 43 52
ATOM     52   C  IDS C   3     165.952  29.312  79.9820  0.00  0.00     0.000 C
ATOM     53   O  IDS C   3     166.449  28.390  80.5870  0.00  0.00     0.000 OA
ATOM     54   O  IDS C   3     164.758  29.366  79.8270  0.00  0.00     0.000 OA
ENDBRANCH 43 52
BRANCH 39 55
ATOM     55  O4  SGN C   4     166.738  33.410  79.0690  0.00  0.00     0.000 O
BRANCH 55 59
ATOM     56  C1  SGN C   4     163.043  35.196  79.8820  0.00  0.00     0.000 C
ATOM     57  C2  SGN C   4     163.712  35.576  78.5500  0.00  0.00     0.000 C
ATOM     58  C3  SGN C   4     164.819  34.586  78.1980  0.00  0.00     0.000 C
ATOM     59  C4  SGN C   4     165.776  34.410  79.3720  0.00  0.00     0.000 C
ATOM     60  C5  SGN C   4     164.971  34.003  80.6040  0.00  0.00     0.000 C
ATOM     61  O5  SGN C   4     164.026  35.052  80.8940  0.00  0.00     0.000 O
ATOM     62   O  SGN C   4     165.516  35.041  77.0460  0.00  0.00     0.000 O
ATOM     64  HD  SGN C   4     164.718  35.365  76.9580  0.00  0.00     0.000 HD
BRANCH 57 66
ATOM     64   N  SGN C   4     163.554  36.605  77.5090  0.00  0.00     0.000 N
ATOM     66  HD  SGN C   4     163.111  36.682  76.7690  0.00  0.00     0.000 HD
ATOM     66   S  SGN C   4     162.103  37.120  77.0900  0.00  0.00     0.000 S
ATOM     67   O  SGN C   4     162.271  38.051  76.0350  0.00  0.00     0.000 OA
ATOM     68   O  SGN C   4     161.296  35.967  76.8840  0.00  0.00     0.000 OA
ATOM     69   O  SGN C   4     161.593  37.866  78.3640  0.00  0.00     0.000 OA
ENDBRANCH 57 66
BRANCH 60 70
ATOM     70   C  SGN C   4     165.816  33.787  81.8410  0.00  0.00     0.000 C
ATOM     71   O  SGN C   4     167.208  30.527  83.0820  0.00  0.00     0.000 OA
ATOM     72   O  SGN C   4     168.378  32.266  81.8750  0.00  0.00     0.000 OA
ATOM     73   O  SGN C   4     165.982  32.380  82.1000  0.00  0.00     0.000 O
ATOM     74   S  SGN C   4     167.339  31.943  82.8260  0.00  0.00     0.000 S
ATOM     75   O  SGN C   4     167.389  32.746  84.0310  0.00  0.00     0.000 OA
ENDBRANCH 60 70
BRANCH 56 76
ATOM     76  O4  IDS C   5     161.973  34.467  80.2470  0.00  0.00     0.000 O
BRANCH 76 80
ATOM     77  C1  IDS C   5     159.530  31.214  79.9160  0.00  0.00     0.000 C
ATOM     78  C2  IDS C   5     159.709  32.007  78.6220  0.00  0.00     0.000 C
ATOM     79  C3  IDS C   5     160.935  32.893  78.7270  0.00  0.00     0.000 C
ATOM     80  C4  IDS C   5     160.709  33.952  79.8020  0.00  0.00     0.000 C
ATOM     81  C5  IDS C   5     159.940  33.329  80.9760  0.00  0.00     0.000 C
ATOM     82  O5  IDS C   5     160.131  31.912  81.0060  0.00  0.00     0.000 O
BRANCH 78 83
ATOM     83   O  IDS C   5     159.888  31.094  77.4680  0.00  0.00     0.000 O
ATOM     84   S  IDS C   5     159.273  31.481  76.0480  0.00  0.00     0.000 S
ATOM     85   O  IDS C   5     157.909  31.863  76.2990  0.00  0.00     0.000 OA
ATOM     86   O  IDS C   5     160.089  32.570  75.5660  0.00  0.00     0.000 OA
ATOM     87   O  IDS C   5     159.392  30.295  75.2350  0.00  0.00     0.000 OA
ENDBRANCH 78 83
BRANCH 81 88
ATOM     88   C  IDS C   5     160.342  33.875  82.3340  0.00  0.00     0.000 C
ATOM     89   O  IDS C   5     159.942  34.951  82.6890  0.00  0.00     0.000 OA
ATOM     90   O  IDS C   5     161.063  33.221  83.0520  0.00  0.00     0.000 OA
ENDBRANCH 81 88
ENDBRANCH 76 80
ENDBRANCH 56 76
ENDBRANCH 55 59
ENDBRANCH 39 55
ENDBRANCH 38 42
ENDBRANCH 18 38
ENDBRANCH 17 21
ENDBRANCH 1 17
TORSDOF 18
ENDMDL
MODEL 81
REMARK VINA RESULT:      -6.8     12.115     18.319
ROOT
ATOM      1  C1  IDS C   1     145.985  21.363  40.9260  0.00  0.00     0.000 C
ATOM      2  C2  IDS C   1     144.794  22.199  40.4500  0.00  0.00     0.000 C
ATOM      3  C3  IDS C   1     145.032  22.730  39.0440  0.00  0.00     0.000 C
ATOM      4  C4  IDS C   1     146.294  23.580  38.9980  0.00  0.00     0.000 C
ATOM      5  C5  IDS C   1     147.378  22.957  39.8730  0.00  0.00     0.000 C
ATOM      6  O5  IDS C   1     147.107  21.571  40.0770  0.00  0.00     0.000 O
ATOM      7   O  IDS C   1     143.903  23.506  38.6200  0.00  0.00     0.000 O
ATOM      9  HD  IDS C   1     143.185  23.135  38.9330  0.00  0.00     0.000 HD
ENDROOT
BRANCH 2 9
ATOM      9   O  IDS C   1     143.558  21.385  40.4170  0.00  0.00     0.000 O
ATOM     10   S  IDS C   1     142.286  21.857  41.2560  0.00  0.00     0.000 S
ATOM     11   O  IDS C   1     141.258  20.871  41.0040  0.00  0.00     0.000 OA
ATOM     12   O  IDS C   1     142.718  21.880  42.6380  0.00  0.00     0.000 OA
ATOM     13   O  IDS C   1     141.943  23.167  40.7500  0.00  0.00     0.000 OA
ENDBRANCH 2 9
BRANCH 5 14
ATOM     14   C  IDS C   1     148.760  23.092  39.2570  0.00  0.00     0.000 C
ATOM     15   O  IDS C   1     149.187  24.189  38.9910  0.00  0.00     0.000 OA
ATOM     16   O  IDS C   1     149.424  22.094  39.0350  0.00  0.00     0.000 OA
ENDBRANCH 5 14
BRANCH 1 17
ATOM     17  O4  SGN C   2     145.847  20.204  41.5760  0.00  0.00     0.000 O
BRANCH 17 21
ATOM     18  C1  SGN C   2     145.953  16.034  41.9320  0.00  0.00     0.000 C
ATOM     19  C2  SGN C   2     146.626  16.635  40.6910  0.00  0.00     0.000 C
ATOM     20  C3  SGN C   2     146.877  18.132  40.9100  0.00  0.00     0.000 C
ATOM     21  C4  SGN C   2     145.583  18.828  41.3130  0.00  0.00     0.000 C
ATOM     22  C5  SGN C   2     145.016  18.147  42.5550  0.00  0.00     0.000 C
ATOM     23  O5  SGN C   2     144.785  16.746  42.2820  0.00  0.00     0.000 O
ATOM     24   O  SGN C   2     147.419  18.707  39.7330  0.00  0.00     0.000 O
ATOM     26  HD  SGN C   2     147.340  18.567  40.5840  0.00  0.00     0.000 HD
BRANCH 19 28
ATOM     26   N  SGN C   2     147.474  15.520  40.2490  0.00  0.00     0.000 N
ATOM     28  HD  SGN C   2     146.764  15.129  40.5540  0.00  0.00     0.000 HD
ATOM     28   O  SGN C   2     149.179  14.631  38.6590  0.00  0.00     0.000 OA
ATOM     29   S  SGN C   2     147.715  15.187  38.6950  0.00  0.00     0.000 S
ATOM     30   O  SGN C   2     146.828  14.147  38.3390  0.00  0.00     0.000 OA
ATOM     31   O  SGN C   2     147.680  16.416  37.9800  0.00  0.00     0.000 OA
ENDBRANCH 19 28
BRANCH 22 32
ATOM     32   C  SGN C   2     143.697  18.726  43.0050  0.00  0.00     0.000 C
ATOM     33   S  SGN C   2     141.729  18.097  44.5460  0.00  0.00     0.000 S
ATOM     34   O  SGN C   2     141.183  17.171  43.5860  0.00  0.00     0.000 OA
ATOM     35   O  SGN C   2     141.628  17.640  45.9170  0.00  0.00     0.000 OA
ATOM     36   O  SGN C   2     141.295  19.462  44.3620  0.00  0.00     0.000 OA
ATOM     37   O  SGN C   2     143.295  18.110  44.2340  0.00  0.00     0.000 O
ENDBRANCH 22 32
BRANCH 18 38
ATOM     38  O4  IDS C   3     146.477  15.673  43.1060  0.00  0.00     0.000 O
BRANCH 38 42
ATOM     39  C1  IDS C   3     148.944  14.853  45.4230  0.00  0.00     0.000 C
ATOM     40  C2  IDS C   3     149.067  14.429  43.9510  0.00  0.00     0.000 C
ATOM     41  C3  IDS C   3     147.810  13.699  43.4790  0.00  0.00     0.000 C
ATOM     42  C4  IDS C   3     146.551  14.463  43.8670  0.00  0.00     0.000 C
ATOM     43  C5  IDS C   3     146.582  14.788  45.3650  0.00  0.00     0.000 C
ATOM     44  O5  IDS C   3     147.741  15.569  45.6500  0.00  0.00     0.000 O
ATOM     45   O  IDS C   3     147.778  12.392  44.0540  0.00  0.00     0.000 O
ATOM     47  HD  IDS C   3     147.812  12.077  44.8600  0.00  0.00     0.000 HD
BRANCH 40 47
ATOM     47   O  IDS C   3     149.247  15.615  43.0800  0.00  0.00     0.000 O
ATOM     48   S  IDS C   3     150.558  15.746  42.1740  0.00  0.00     0.000 S
ATOM     49   O  IDS C   3     151.620  16.151  43.0690  0.00  0.00     0.000 OA
ATOM     50   O  IDS C   3     150.243  16.761  41.1930  0.00  0.00     0.000 OA
ATOM     51   O  IDS C   3     150.782  14.449  41.5930  0.00  0.00     0.000 OA
ENDBRANCH 40 47
BRANCH 43 52
ATOM     52   C  IDS C   3     145.346  15.525  45.8310  0.00  0.00     0.000 C
ATOM     53   O  IDS C   3     145.456  16.584  46.4030  0.00  0.00     0.000 OA
ATOM     54   O  IDS C   3     144.257  15.051  45.6280  0.00  0.00     0.000 OA
ENDBRANCH 43 52
BRANCH 39 55
ATOM     55  O4  SGN C   4     149.321  14.087  46.4470  0.00  0.00     0.000 O
BRANCH 55 59
ATOM     56  C1  SGN C   4     153.066  15.126  47.9960  0.00  0.00     0.000 C
ATOM     57  C2  SGN C   4     152.953  13.738  47.3440  0.00  0.00     0.000 C
ATOM     58  C3  SGN C   4     151.692  13.642  46.4880  0.00  0.00     0.000 C
ATOM     59  C4  SGN C   4     150.468  14.081  47.2840  0.00  0.00     0.000 C
ATOM     60  C5  SGN C   4     150.718  15.482  47.8370  0.00  0.00     0.000 C
ATOM     61  O5  SGN C   4     151.872  15.430  48.6990  0.00  0.00     0.000 O
ATOM     62   O  SGN C   4     151.535  12.310  46.0190  0.00  0.00     0.000 O
ATOM     64  HD  SGN C   4     152.390  12.404  46.1210  0.00  0.00     0.000 HD
BRANCH 57 66
ATOM     64   N  SGN C   4     154.145  13.373  46.5620  0.00  0.00     0.000 N
ATOM     66  HD  SGN C   4     155.002  13.472  46.6450  0.00  0.00     0.000 HD
ATOM     66   S  SGN C   4     155.335  12.548  47.2340  0.00  0.00     0.000 S
ATOM     67   O  SGN C   4     156.356  12.406  46.2610  0.00  0.00     0.000 OA
ATOM     68   O  SGN C   4     155.633  13.182  48.4720  0.00  0.00     0.000 OA
ATOM     69   O  SGN C   4     154.699  11.152  47.5270  0.00  0.00     0.000 OA
ENDBRANCH 57 66
BRANCH 60 70
ATOM     70   C  SGN C   4     149.563  16.036  48.6430  0.00  0.00     0.000 C
ATOM     71   O  SGN C   4     147.844  14.386  51.5470  0.00  0.00     0.000 OA
ATOM     72   O  SGN C   4     149.500  16.148  51.6200  0.00  0.00     0.000 OA
ATOM     73   O  SGN C   4     149.043  15.031  49.5350  0.00  0.00     0.000 O
ATOM     74   S  SGN C   4     148.396  15.555  50.9000  0.00  0.00     0.000 S
ATOM     75   O  SGN C   4     147.392  16.516  50.4900  0.00  0.00     0.000 OA
ENDBRANCH 60 70
BRANCH 56 76
ATOM     76  O4  IDS C   5     153.660  16.292  47.6810  0.00  0.00     0.000 O
BRANCH 76 80
ATOM     77  C1  IDS C   5     157.720  16.408  48.0850  0.00  0.00     0.000 C
ATOM     78  C2  IDS C   5     156.952  17.136  49.1870  0.00  0.00     0.000 C
ATOM     79  C3  IDS C   5     155.508  16.675  49.1990  0.00  0.00     0.000 C
ATOM     80  C4  IDS C   5     154.824  17.102  47.9040  0.00  0.00     0.000 C
ATOM     81  C5  IDS C   5     155.810  16.956  46.7360  0.00  0.00     0.000 C
ATOM     82  O5  IDS C   5     156.824  15.997  47.0520  0.00  0.00     0.000 O
BRANCH 78 83
ATOM     83   O  IDS C   5     157.545  16.853  50.5150  0.00  0.00     0.000 O
ATOM     84   S  IDS C   5     157.906  18.058  51.4960  0.00  0.00     0.000 S
ATOM     85   O  IDS C   5     158.643  19.006  50.7040  0.00  0.00     0.000 OA
ATOM     86   O  IDS C   5     156.634  18.566  51.9540  0.00  0.00     0.000 OA
ATOM     87   O  IDS C   5     158.686  17.475  52.5600  0.00  0.00     0.000 OA
ENDBRANCH 78 83
BRANCH 81 88
ATOM     88   C  IDS C   5     155.162  16.525  45.4330  0.00  0.00     0.000 C
ATOM     89   O  IDS C   5     155.356  15.418  45.0060  0.00  0.00     0.000 OA
ATOM     90   O  IDS C   5     154.453  17.299  44.8330  0.00  0.00     0.000 OA
ENDBRANCH 81 88
ENDBRANCH 76 80
ENDBRANCH 56 76
ENDBRANCH 55 59
ENDBRANCH 39 55
ENDBRANCH 38 42
ENDBRANCH 18 38
ENDBRANCH 17 21
ENDBRANCH 1 17
TORSDOF 18
ENDMDL
MODEL 82
REMARK VINA RESULT:      -6.8     26.273     31.141
ROOT
ATOM      1  C1  IDS C   1     147.563  43.369  70.1740  0.00  0.00     0.000 C
ATOM      2  C2  IDS C   1     146.693  44.598  70.4510  0.00  0.00     0.000 C
ATOM      3  C3  IDS C   1     146.388  45.347  69.1610  0.00  0.00     0.000 C
ATOM      4  C4  IDS C   1     147.676  45.787  68.4790  0.00  0.00     0.000 C
ATOM      5  C5  IDS C   1     148.735  44.696  68.6060  0.00  0.00     0.000 C
ATOM      6  O5  IDS C   1     148.114  43.437  68.8650  0.00  0.00     0.000 O
ATOM      7   O  IDS C   1     145.569  46.490  69.4450  0.00  0.00     0.000 O
ATOM      9  HD  IDS C   1     145.018  46.279  70.0790  0.00  0.00     0.000 HD
ENDROOT
BRANCH 2 9
ATOM      9   O  IDS C   1     145.399  44.203  71.0530  0.00  0.00     0.000 O
ATOM     10   S  IDS C   1     144.943  44.863  72.4320  0.00  0.00     0.000 S
ATOM     11   O  IDS C   1     143.653  44.287  72.7390  0.00  0.00     0.000 OA
ATOM     12   O  IDS C   1     145.965  44.503  73.3930  0.00  0.00     0.000 OA
ATOM     13   O  IDS C   1     144.877  46.287  72.1850  0.00  0.00     0.000 OA
ENDBRANCH 2 9
BRANCH 5 14
ATOM     14   C  IDS C   1     149.579  44.567  67.3490  0.00  0.00     0.000 C
ATOM     15   O  IDS C   1     150.562  43.868  67.3630  0.00  0.00     0.000 OA
ATOM     16   O  IDS C   1     149.258  45.171  66.3400  0.00  0.00     0.000 OA
ENDBRANCH 5 14
BRANCH 1 17
ATOM     17  O4  SGN C   2     147.348  42.182  70.7470  0.00  0.00     0.000 O
BRANCH 17 21
ATOM     18  C1  SGN C   2     146.078  38.195  70.8740  0.00  0.00     0.000 C
ATOM     19  C2  SGN C   2     146.295  38.802  69.4830  0.00  0.00     0.000 C
ATOM     20  C3  SGN C   2     147.143  40.075  69.5980  0.00  0.00     0.000 C
ATOM     21  C4  SGN C   2     146.515  41.035  70.6030  0.00  0.00     0.000 C
ATOM     22  C5  SGN C   2     146.355  40.320  71.9410  0.00  0.00     0.000 C
ATOM     23  O5  SGN C   2     145.536  39.141  71.7720  0.00  0.00     0.000 O
ATOM     24   O  SGN C   2     147.271  40.686  68.3250  0.00  0.00     0.000 O
ATOM     26  HD  SGN C   2     147.534  40.407  69.1020  0.00  0.00     0.000 HD
BRANCH 19 28
ATOM     26   N  SGN C   2     146.258  37.619  68.6130  0.00  0.00     0.000 N
ATOM     28  HD  SGN C   2     145.550  37.535  69.1040  0.00  0.00     0.000 HD
ATOM     28   O  SGN C   2     146.753  36.575  66.4020  0.00  0.00     0.000 OA
ATOM     29   S  SGN C   2     145.892  37.712  67.0500  0.00  0.00     0.000 S
ATOM     30   O  SGN C   2     144.527  37.379  66.9130  0.00  0.00     0.000 OA
ATOM     31   O  SGN C   2     146.362  38.965  66.5710  0.00  0.00     0.000 OA
ENDBRANCH 19 28
BRANCH 22 32
ATOM     32   C  SGN C   2     145.687  41.167  72.9960  0.00  0.00     0.000 C
ATOM     33   S  SGN C   2     143.746  40.989  74.6820  0.00  0.00     0.000 S
ATOM     34   O  SGN C   2     142.749  41.181  73.6600  0.00  0.00     0.000 OA
ATOM     35   O  SGN C   2     143.368  40.015  75.6860  0.00  0.00     0.000 OA
ATOM     36   O  SGN C   2     144.264  42.216  75.2380  0.00  0.00     0.000 OA
ATOM     37   O  SGN C   2     144.976  40.325  73.9120  0.00  0.00     0.000 O
ENDBRANCH 22 32
BRANCH 18 38
ATOM     38  O4  IDS C   3     146.897  37.462  71.6320  0.00  0.00     0.000 O
BRANCH 38 42
ATOM     39  C1  IDS C   3     149.833  36.355  73.1430  0.00  0.00     0.000 C
ATOM     40  C2  IDS C   3     149.830  36.853  71.6890  0.00  0.00     0.000 C
ATOM     41  C3  IDS C   3     148.761  36.139  70.8620  0.00  0.00     0.000 C
ATOM     42  C4  IDS C   3     147.421  36.130  71.5850  0.00  0.00     0.000 C
ATOM     43  C5  IDS C   3     147.602  35.588  73.0080  0.00  0.00     0.000 C
ATOM     44  O5  IDS C   3     148.533  36.413  73.7060  0.00  0.00     0.000 O
ATOM     45   O  IDS C   3     149.180  34.798  70.6050  0.00  0.00     0.000 O
ATOM     47  HD  IDS C   3     149.427  34.129  71.0970  0.00  0.00     0.000 HD
BRANCH 40 47
ATOM     47   O  IDS C   3     149.537  38.305  71.6370  0.00  0.00     0.000 O
ATOM     48   S  IDS C   3     150.701  39.363  71.9240  0.00  0.00     0.000 S
ATOM     49   O  IDS C   3     150.880  39.377  73.3600  0.00  0.00     0.000 OA
ATOM     50   O  IDS C   3     150.204  40.623  71.4170  0.00  0.00     0.000 OA
ATOM     51   O  IDS C   3     151.863  38.889  71.2220  0.00  0.00     0.000 OA
ENDBRANCH 40 47
BRANCH 43 52
ATOM     52   C  IDS C   3     146.302  35.524  73.7800  0.00  0.00     0.000 C
ATOM     53   O  IDS C   3     146.049  36.370  74.6060  0.00  0.00     0.000 OA
ATOM     54   O  IDS C   3     145.525  34.628  73.5660  0.00  0.00     0.000 OA
ENDBRANCH 43 52
BRANCH 39 55
ATOM     55  O4  SGN C   4     150.564  35.325  73.5690  0.00  0.00     0.000 O
BRANCH 55 59
ATOM     56  C1  SGN C   4     154.152  36.398  75.4340  0.00  0.00     0.000 C
ATOM     57  C2  SGN C   4     154.242  35.324  74.3370  0.00  0.00     0.000 C
ATOM     58  C3  SGN C   4     152.976  35.312  73.4850  0.00  0.00     0.000 C
ATOM     59  C4  SGN C   4     151.735  35.229  74.3670  0.00  0.00     0.000 C
ATOM     60  C5  SGN C   4     151.773  36.374  75.3770  0.00  0.00     0.000 C
ATOM     61  O5  SGN C   4     152.959  36.228  76.1830  0.00  0.00     0.000 O
ATOM     62   O  SGN C   4     153.021  34.218  72.5790  0.00  0.00     0.000 O
ATOM     64  HD  SGN C   4     153.852  34.419  72.7190  0.00  0.00     0.000 HD
BRANCH 57 66
ATOM     64   N  SGN C   4     155.583  35.731  73.8870  0.00  0.00     0.000 N
ATOM     66  HD  SGN C   4     156.387  35.695  74.2060  0.00  0.00     0.000 HD
ATOM     66   S  SGN C   4     156.782  34.679  73.8530  0.00  0.00     0.000 S
ATOM     67   O  SGN C   4     157.946  35.374  73.4390  0.00  0.00     0.000 OA
ATOM     68   O  SGN C   4     156.778  34.003  75.1040  0.00  0.00     0.000 OA
ATOM     69   O  SGN C   4     156.357  33.670  72.7380  0.00  0.00     0.000 OA
ENDBRANCH 57 66
BRANCH 60 70
ATOM     70   C  SGN C   4     150.581  36.405  76.3100  0.00  0.00     0.000 C
ATOM     71   O  SGN C   4     149.391  39.323  78.3530  0.00  0.00     0.000 OA
ATOM     72   O  SGN C   4     148.475  38.512  76.2670  0.00  0.00     0.000 OA
ATOM     73   O  SGN C   4     150.567  37.629  77.0700  0.00  0.00     0.000 O
ATOM     74   S  SGN C   4     149.132  38.179  77.5100  0.00  0.00     0.000 S
ATOM     75   O  SGN C   4     148.511  37.073  78.2130  0.00  0.00     0.000 OA
ENDBRANCH 60 70
BRANCH 56 76
ATOM     76  O4  IDS C   5     154.526  37.685  75.5530  0.00  0.00     0.000 O
BRANCH 76 80
ATOM     77  C1  IDS C   5     154.303  41.622  74.5000  0.00  0.00     0.000 C
ATOM     78  C2  IDS C   5     154.616  40.673  73.3440  0.00  0.00     0.000 C
ATOM     79  C3  IDS C   5     154.248  39.254  73.7290  0.00  0.00     0.000 C
ATOM     80  C4  IDS C   5     155.147  38.785  74.8700  0.00  0.00     0.000 C
ATOM     81  C5  IDS C   5     155.389  39.951  75.8380  0.00  0.00     0.000 C
ATOM     82  O5  IDS C   5     154.336  40.914  75.7390  0.00  0.00     0.000 O
BRANCH 78 83
ATOM     83   O  IDS C   5     153.844  41.046  72.1360  0.00  0.00     0.000 O
ATOM     84   S  IDS C   5     154.606  41.327  70.7630  0.00  0.00     0.000 S
ATOM     85   O  IDS C   5     155.681  42.227  71.0840  0.00  0.00     0.000 OA
ATOM     86   O  IDS C   5     155.063  40.033  70.3120  0.00  0.00     0.000 OA
ATOM     87   O  IDS C   5     153.621  41.906  69.8810  0.00  0.00     0.000 OA
ENDBRANCH 78 83
BRANCH 81 88
ATOM     88   C  IDS C   5     155.490  39.531  77.2940  0.00  0.00     0.000 C
ATOM     89   O  IDS C   5     154.551  39.686  78.0280  0.00  0.00     0.000 OA
ATOM     90   O  IDS C   5     156.517  39.042  77.7060  0.00  0.00     0.000 OA
ENDBRANCH 81 88
ENDBRANCH 76 80
ENDBRANCH 56 76
ENDBRANCH 55 59
ENDBRANCH 39 55
ENDBRANCH 38 42
ENDBRANCH 18 38
ENDBRANCH 17 21
ENDBRANCH 1 17
TORSDOF 18
ENDMDL
MODEL 83
REMARK VINA RESULT:      -6.8     28.643     33.058
ROOT
ATOM      1  C1  IDS C   1     143.363  21.817  86.2020  0.00  0.00     0.000 C
ATOM      2  C2  IDS C   1     144.132  23.140  86.1460  0.00  0.00     0.000 C
ATOM      3  C3  IDS C   1     143.483  24.181  87.0470  0.00  0.00     0.000 C
ATOM      4  C4  IDS C   1     142.038  24.422  86.6350  0.00  0.00     0.000 C
ATOM      5  C5  IDS C   1     141.379  23.105  86.2380  0.00  0.00     0.000 C
ATOM      6  O5  IDS C   1     142.092  22.008  86.8100  0.00  0.00     0.000 O
ATOM      7   O  IDS C   1     144.223  25.408  86.9820  0.00  0.00     0.000 O
ATOM      9  HD  IDS C   1     145.064  25.216  86.9130  0.00  0.00     0.000 HD
ENDROOT
BRANCH 2 9
ATOM      9   O  IDS C   1     145.527  22.959  86.6060  0.00  0.00     0.000 O
ATOM     10   S  IDS C   1     146.729  23.357  85.6370  0.00  0.00     0.000 S
ATOM     11   O  IDS C   1     147.942  23.077  86.3740  0.00  0.00     0.000 OA
ATOM     12   O  IDS C   1     146.577  22.521  84.4640  0.00  0.00     0.000 OA
ATOM     13   O  IDS C   1     146.558  24.764  85.3530  0.00  0.00     0.000 OA
ENDBRANCH 2 9
BRANCH 5 14
ATOM     14   C  IDS C   1     139.932  23.027  86.6920  0.00  0.00     0.000 C
ATOM     15   O  IDS C   1     139.514  22.002  87.1720  0.00  0.00     0.000 OA
ATOM     16   O  IDS C   1     139.205  23.998  86.5650  0.00  0.00     0.000 OA
ENDBRANCH 5 14
BRANCH 1 17
ATOM     17  O4  SGN C   2     143.966  20.628  86.2760  0.00  0.00     0.000 O
BRANCH 17 21
ATOM     18  C1  SGN C   2     145.170  17.178  88.3200  0.00  0.00     0.000 C
ATOM     19  C2  SGN C   2     144.259  18.147  89.0840  0.00  0.00     0.000 C
ATOM     20  C3  SGN C   2     143.577  19.105  88.1000  0.00  0.00     0.000 C
ATOM     21  C4  SGN C   2     144.620  19.793  87.2270  0.00  0.00     0.000 C
ATOM     22  C5  SGN C   2     145.456  18.730  86.5190  0.00  0.00     0.000 C
ATOM     23  O5  SGN C   2     146.085  17.871  87.4970  0.00  0.00     0.000 O
ATOM     24   O  SGN C   2     142.803  20.056  88.8110  0.00  0.00     0.000 O
ATOM     26  HD  SGN C   2     142.981  19.490  88.1800  0.00  0.00     0.000 HD
BRANCH 19 28
ATOM     26   N  SGN C   2     143.736  17.278  90.1480  0.00  0.00     0.000 N
ATOM     28  HD  SGN C   2     144.531  16.968  90.0000  0.00  0.00     0.000 HD
ATOM     28   O  SGN C   2     142.307  17.005  92.1740  0.00  0.00     0.000 OA
ATOM     29   S  SGN C   2     143.566  17.784  91.6640  0.00  0.00     0.000 S
ATOM     30   O  SGN C   2     144.695  17.342  92.3890  0.00  0.00     0.000 OA
ATOM     31   O  SGN C   2     143.256  19.171  91.6250  0.00  0.00     0.000 OA
ENDBRANCH 19 28
BRANCH 22 32
ATOM     32   C  SGN C   2     146.562  19.307  85.6700  0.00  0.00     0.000 C
ATOM     33   S  SGN C   2     148.212  18.532  83.8480  0.00  0.00     0.000 S
ATOM     34   O  SGN C   2     149.065  17.873  84.8050  0.00  0.00     0.000 OA
ATOM     35   O  SGN C   2     148.071  17.809  82.6010  0.00  0.00     0.000 OA
ATOM     36   O  SGN C   2     148.500  19.935  83.6700  0.00  0.00     0.000 OA
ATOM     37   O  SGN C   2     146.762  18.483  84.5150  0.00  0.00     0.000 O
ENDBRANCH 22 32
BRANCH 18 38
ATOM     38  O4  IDS C   3     144.868  16.084  87.6180  0.00  0.00     0.000 O
BRANCH 38 42
ATOM     39  C1  IDS C   3     143.920  12.964  86.3960  0.00  0.00     0.000 C
ATOM     40  C2  IDS C   3     145.335  13.513  86.1520  0.00  0.00     0.000 C
ATOM     41  C3  IDS C   3     145.286  14.917  85.5500  0.00  0.00     0.000 C
ATOM     42  C4  IDS C   3     144.327  15.814  86.3200  0.00  0.00     0.000 C
ATOM     43  C5  IDS C   3     142.964  15.124  86.4540  0.00  0.00     0.000 C
ATOM     44  O5  IDS C   3     143.135  13.883  87.1360  0.00  0.00     0.000 O
ATOM     45   O  IDS C   3     144.875  14.832  84.1840  0.00  0.00     0.000 O
ATOM     47  HD  IDS C   3     144.195  14.492  83.7700  0.00  0.00     0.000 HD
BRANCH 40 47
ATOM     47   O  IDS C   3     146.085  13.602  87.4270  0.00  0.00     0.000 O
ATOM     48   S  IDS C   3     147.349  12.654  87.6750  0.00  0.00     0.000 S
ATOM     49   O  IDS C   3     146.810  11.350  87.9980  0.00  0.00     0.000 OA
ATOM     50   O  IDS C   3     148.060  13.249  88.7850  0.00  0.00     0.000 OA
ATOM     51   O  IDS C   3     148.105  12.657  86.4510  0.00  0.00     0.000 OA
ENDBRANCH 40 47
BRANCH 43 52
ATOM     52   C  IDS C   3     141.948  15.971  87.1860  0.00  0.00     0.000 C
ATOM     53   O  IDS C   3     141.359  16.849  86.5990  0.00  0.00     0.000 OA
ATOM     54   O  IDS C   3     141.730  15.766  88.3530  0.00  0.00     0.000 OA
ENDBRANCH 43 52
BRANCH 39 55
ATOM     55  O4  SGN C   4     143.232  12.268  85.4900  0.00  0.00     0.000 O
BRANCH 55 59
ATOM     56  C1  SGN C   4     140.491   9.306  84.3850  0.00  0.00     0.000 C
ATOM     57  C2  SGN C   4     139.908  10.683  84.7450  0.00  0.00     0.000 C
ATOM     58  C3  SGN C   4     140.998  11.752  84.7390  0.00  0.00     0.000 C
ATOM     59  C4  SGN C   4     142.184  11.314  85.5890  0.00  0.00     0.000 C
ATOM     60  C5  SGN C   4     142.670   9.954  85.0920  0.00  0.00     0.000 C
ATOM     61  O5  SGN C   4     141.590   9.009  85.2320  0.00  0.00     0.000 O
ATOM     62   O  SGN C   4     140.464  12.979  85.2170  0.00  0.00     0.000 O
ATOM     64  HD  SGN C   4     139.786  12.570  84.8660  0.00  0.00     0.000 HD
BRANCH 57 66
ATOM     64   N  SGN C   4     138.668   9.962  84.4160  0.00  0.00     0.000 N
ATOM     66  HD  SGN C   4     137.878   9.884  84.7630  0.00  0.00     0.000 HD
ATOM     66   S  SGN C   4     137.281  10.744  84.2970  0.00  0.00     0.000 S
ATOM     67   O  SGN C   4     136.273   9.782  84.0350  0.00  0.00     0.000 OA
ATOM     68   O  SGN C   4     137.172  11.575  85.4460  0.00  0.00     0.000 OA
ATOM     69   O  SGN C   4     137.473  11.650  83.0390  0.00  0.00     0.000 OA
ENDBRANCH 57 66
BRANCH 60 70
ATOM     70   C  SGN C   4     143.859   9.412  85.8560  0.00  0.00     0.000 C
ATOM     71   O  SGN C   4     144.661   5.804  86.5200  0.00  0.00     0.000 OA
ATOM     72   O  SGN C   4     145.650   7.252  84.8550  0.00  0.00     0.000 OA
ATOM     73   O  SGN C   4     143.714   7.997  86.0790  0.00  0.00     0.000 O
ATOM     74   S  SGN C   4     145.065   7.147  86.1720  0.00  0.00     0.000 S
ATOM     75   O  SGN C   4     145.844   7.801  87.2040  0.00  0.00     0.000 OA
ENDBRANCH 60 70
BRANCH 56 76
ATOM     76  O4  IDS C   5     140.643   8.591  83.2550  0.00  0.00     0.000 O
BRANCH 76 80
ATOM     77  C1  IDS C   5     137.333   8.493  80.8700  0.00  0.00     0.000 C
ATOM     78  C2  IDS C   5     137.660   7.167  81.5560  0.00  0.00     0.000 C
ATOM     79  C3  IDS C   5     138.598   7.409  82.7220  0.00  0.00     0.000 C
ATOM     80  C4  IDS C   5     139.939   7.917  82.2020  0.00  0.00     0.000 C
ATOM     81  C5  IDS C   5     139.699   8.869  81.0220  0.00  0.00     0.000 C
ATOM     82  O5  IDS C   5     138.386   9.432  81.0890  0.00  0.00     0.000 O
BRANCH 78 83
ATOM     83   O  IDS C   5     136.427   6.526  82.0720  0.00  0.00     0.000 O
ATOM     84   S  IDS C   5     136.088   5.020  81.6670  0.00  0.00     0.000 S
ATOM     85   O  IDS C   5     136.244   4.950  80.2390  0.00  0.00     0.000 OA
ATOM     86   O  IDS C   5     137.046   4.211  82.3830  0.00  0.00     0.000 OA
ATOM     87   O  IDS C   5     134.732   4.795  82.1050  0.00  0.00     0.000 OA
ENDBRANCH 78 83
BRANCH 81 88
ATOM     88   C  IDS C   5     140.686  10.020  80.9480  0.00  0.00     0.000 C
ATOM     89   O  IDS C   5     141.819   9.816  80.6000  0.00  0.00     0.000 OA
ATOM     90   O  IDS C   5     140.326  11.137  81.2400  0.00  0.00     0.000 OA
ENDBRANCH 81 88
ENDBRANCH 76 80
ENDBRANCH 56 76
ENDBRANCH 55 59
ENDBRANCH 39 55
ENDBRANCH 38 42
ENDBRANCH 18 38
ENDBRANCH 17 21
ENDBRANCH 1 17
TORSDOF 18
ENDMDL
MODEL 84
REMARK VINA RESULT:      -6.8     25.236     32.917
ROOT
ATOM      1  C1  IDS C   1     155.401  37.329  73.3950  0.00  0.00     0.000 C
ATOM      2  C2  IDS C   1     156.660  36.670  73.9660  0.00  0.00     0.000 C
ATOM      3  C3  IDS C   1     157.474  37.669  74.7730  0.00  0.00     0.000 C
ATOM      4  C4  IDS C   1     157.877  38.856  73.9090  0.00  0.00     0.000 C
ATOM      5  C5  IDS C   1     156.730  39.240  72.9790  0.00  0.00     0.000 C
ATOM      6  O5  IDS C   1     155.494  38.744  73.4940  0.00  0.00     0.000 O
ATOM      7   O  IDS C   1     158.644  37.028  75.3010  0.00  0.00     0.000 O
ATOM      9  HD  IDS C   1     158.435  36.216  75.5170  0.00  0.00     0.000 HD
ENDROOT
BRANCH 2 9
ATOM      9   O  IDS C   1     156.305  35.550  74.8680  0.00  0.00     0.000 O
ATOM     10   S  IDS C   1     156.763  34.069  74.4960  0.00  0.00     0.000 S
ATOM     11   O  IDS C   1     156.282  33.225  75.5660  0.00  0.00     0.000 OA
ATOM     12   O  IDS C   1     156.138  33.776  73.2220  0.00  0.00     0.000 OA
ATOM     13   O  IDS C   1     158.207  34.109  74.4190  0.00  0.00     0.000 OA
ENDBRANCH 2 9
BRANCH 5 14
ATOM     14   C  IDS C   1     156.610  40.744  72.8060  0.00  0.00     0.000 C
ATOM     15   O  IDS C   1     156.233  41.193  71.7510  0.00  0.00     0.000 OA
ATOM     16   O  IDS C   1     156.898  41.485  73.7320  0.00  0.00     0.000 OA
ENDBRANCH 5 14
BRANCH 1 17
ATOM     17  O4  SGN C   2     154.203  36.737  73.4010  0.00  0.00     0.000 O
BRANCH 17 21
ATOM     18  C1  SGN C   2     150.454  36.148  75.1690  0.00  0.00     0.000 C
ATOM     19  C2  SGN C   2     151.438  37.046  75.9280  0.00  0.00     0.000 C
ATOM     20  C3  SGN C   2     152.559  37.501  74.9870  0.00  0.00     0.000 C
ATOM     21  C4  SGN C   2     153.209  36.293  74.3210  0.00  0.00     0.000 C
ATOM     22  C5  SGN C   2     152.136  35.486  73.5980  0.00  0.00     0.000 C
ATOM     23  O5  SGN C   2     151.118  35.072  74.5380  0.00  0.00     0.000 O
ATOM     24   O  SGN C   2     153.516  38.260  75.7070  0.00  0.00     0.000 O
ATOM     26  HD  SGN C   2     153.000  38.061  75.0410  0.00  0.00     0.000 HD
BRANCH 19 28
ATOM     26   N  SGN C   2     150.530  37.800  76.8040  0.00  0.00     0.000 N
ATOM     28  HD  SGN C   2     150.124  37.044  76.6890  0.00  0.00     0.000 HD
ATOM     28   O  SGN C   2     150.221  39.474  78.6280  0.00  0.00     0.000 OA
ATOM     29   S  SGN C   2     150.859  38.070  78.3540  0.00  0.00     0.000 S
ATOM     30   O  SGN C   2     150.163  37.102  79.1120  0.00  0.00     0.000 OA
ATOM     31   O  SGN C   2     152.271  38.181  78.4830  0.00  0.00     0.000 OA
ENDBRANCH 19 28
BRANCH 22 32
ATOM     32   C  SGN C   2     152.666  34.230  72.9500  0.00  0.00     0.000 C
ATOM     33   S  SGN C   2     151.760  32.039  71.9400  0.00  0.00     0.000 S
ATOM     34   O  SGN C   2     151.513  31.463  73.2380  0.00  0.00     0.000 OA
ATOM     35   O  SGN C   2     150.740  31.725  70.9620  0.00  0.00     0.000 OA
ATOM     36   O  SGN C   2     153.105  31.839  71.4540  0.00  0.00     0.000 OA
ATOM     37   O  SGN C   2     151.630  33.612  72.1770  0.00  0.00     0.000 O
ENDBRANCH 22 32
BRANCH 18 38
ATOM     38  O4  IDS C   3     149.476  36.468  74.3190  0.00  0.00     0.000 O
BRANCH 38 42
ATOM     39  C1  IDS C   3     146.678  37.682  72.6380  0.00  0.00     0.000 C
ATOM     40  C2  IDS C   3     146.931  36.171  72.7660  0.00  0.00     0.000 C
ATOM     41  C3  IDS C   3     148.339  35.805  72.2980  0.00  0.00     0.000 C
ATOM     42  C4  IDS C   3     149.381  36.728  72.9140  0.00  0.00     0.000 C
ATOM     43  C5  IDS C   3     148.985  38.190  72.6780  0.00  0.00     0.000 C
ATOM     44  O5  IDS C   3     147.707  38.428  73.2650  0.00  0.00     0.000 O
ATOM     45   O  IDS C   3     148.401  35.890  70.8730  0.00  0.00     0.000 O
ATOM     47  HD  IDS C   3     148.229  36.506  70.2890  0.00  0.00     0.000 HD
BRANCH 40 47
ATOM     47   O  IDS C   3     146.806  35.741  74.1790  0.00  0.00     0.000 O
ATOM     48   S  IDS C   3     145.447  35.067  74.6880  0.00  0.00     0.000 S
ATOM     49   O  IDS C   3     144.505  36.152  74.8590  0.00  0.00     0.000 OA
ATOM     50   O  IDS C   3     145.787  34.426  75.9400  0.00  0.00     0.000 OA
ATOM     51   O  IDS C   3     145.047  34.137  73.6670  0.00  0.00     0.000 OA
ENDBRANCH 40 47
BRANCH 43 52
ATOM     52   C  IDS C   3     149.993  39.168  73.2400  0.00  0.00     0.000 C
ATOM     53   O  IDS C   3     150.998  39.424  72.6170  0.00  0.00     0.000 OA
ATOM     54   O  IDS C   3     149.788  39.689  74.3070  0.00  0.00     0.000 OA
ENDBRANCH 43 52
BRANCH 39 55
ATOM     55  O4  SGN C   4     146.180  38.257  71.5430  0.00  0.00     0.000 O
BRANCH 55 59
ATOM     56  C1  SGN C   4     144.590  42.127  71.5560  0.00  0.00     0.000 C
ATOM     57  C2  SGN C   4     143.906  41.099  72.4750  0.00  0.00     0.000 C
ATOM     58  C3  SGN C   4     144.798  39.877  72.6780  0.00  0.00     0.000 C
ATOM     59  C4  SGN C   4     145.270  39.327  71.3360  0.00  0.00     0.000 C
ATOM     60  C5  SGN C   4     145.953  40.450  70.5590  0.00  0.00     0.000 C
ATOM     61  O5  SGN C   4     144.993  41.504  70.3470  0.00  0.00     0.000 O
ATOM     62   O  SGN C   4     144.086  38.884  73.4040  0.00  0.00     0.000 O
ATOM     64  HD  SGN C   4     143.738  39.634  73.6630  0.00  0.00     0.000 HD
BRANCH 57 66
ATOM     64   N  SGN C   4     143.164  42.315  72.8430  0.00  0.00     0.000 N
ATOM     66  HD  SGN C   4     142.331  42.548  72.8960  0.00  0.00     0.000 HD
ATOM     66   S  SGN C   4     142.029  42.265  73.9640  0.00  0.00     0.000 S
ATOM     67   O  SGN C   4     141.460  43.560  74.0510  0.00  0.00     0.000 OA
ATOM     68   O  SGN C   4     141.194  41.153  73.6620  0.00  0.00     0.000 OA
ATOM     69   O  SGN C   4     142.818  41.955  75.2770  0.00  0.00     0.000 OA
ENDBRANCH 57 66
BRANCH 60 70
ATOM     70   C  SGN C   4     146.477  40.024  69.2050  0.00  0.00     0.000 C
ATOM     71   O  SGN C   4     146.532  42.076  66.0590  0.00  0.00     0.000 OA
ATOM     72   O  SGN C   4     148.375  41.631  67.5610  0.00  0.00     0.000 OA
ATOM     73   O  SGN C   4     146.139  41.002  68.2020  0.00  0.00     0.000 O
ATOM     74   S  SGN C   4     147.150  41.141  66.9710  0.00  0.00     0.000 S
ATOM     75   O  SGN C   4     147.265  39.800  66.4320  0.00  0.00     0.000 OA
ENDBRANCH 60 70
BRANCH 56 76
ATOM     76  O4  IDS C   5     145.370  43.209  71.7360  0.00  0.00     0.000 O
BRANCH 76 80
ATOM     77  C1  IDS C   5     146.429  44.892  68.1720  0.00  0.00     0.000 C
ATOM     78  C2  IDS C   5     147.565  44.795  69.1900  0.00  0.00     0.000 C
ATOM     79  C3  IDS C   5     147.205  43.791  70.2670  0.00  0.00     0.000 C
ATOM     80  C4  IDS C   5     146.012  44.304  71.0670  0.00  0.00     0.000 C
ATOM     81  C5  IDS C   5     145.028  45.004  70.1180  0.00  0.00     0.000 C
ATOM     82  O5  IDS C   5     145.191  44.524  68.7810  0.00  0.00     0.000 O
BRANCH 78 83
ATOM     83   O  IDS C   5     148.818  44.352  68.5360  0.00  0.00     0.000 O
ATOM     84   S  IDS C   5     150.109  45.289  68.5780  0.00  0.00     0.000 S
ATOM     85   O  IDS C   5     149.661  46.597  68.1830  0.00  0.00     0.000 OA
ATOM     86   O  IDS C   5     150.570  45.235  69.9460  0.00  0.00     0.000 OA
ATOM     87   O  IDS C   5     151.047  44.704  67.6520  0.00  0.00     0.000 OA
ENDBRANCH 78 83
BRANCH 81 88
ATOM     88   C  IDS C   5     143.570  44.817  70.4970  0.00  0.00     0.000 C
ATOM     89   O  IDS C   5     142.822  44.259  69.7390  0.00  0.00     0.000 OA
ATOM     90   O  IDS C   5     143.169  45.231  71.5610  0.00  0.00     0.000 OA
ENDBRANCH 81 88
ENDBRANCH 76 80
ENDBRANCH 56 76
ENDBRANCH 55 59
ENDBRANCH 39 55
ENDBRANCH 38 42
ENDBRANCH 18 38
ENDBRANCH 17 21
ENDBRANCH 1 17
TORSDOF 18
ENDMDL
MODEL 85
REMARK VINA RESULT:      -6.7     26.479     29.869
ROOT
ATOM      1  C1  IDS C   1     144.723  13.714  84.6300  0.00  0.00     0.000 C
ATOM      2  C2  IDS C   1     143.632  14.787  84.5620  0.00  0.00     0.000 C
ATOM      3  C3  IDS C   1     142.383  14.334  85.3040  0.00  0.00     0.000 C
ATOM      4  C4  IDS C   1     141.849  13.036  84.7140  0.00  0.00     0.000 C
ATOM      5  C5  IDS C   1     143.006  12.114  84.3450  0.00  0.00     0.000 C
ATOM      6  O5  IDS C   1     144.177  12.479  85.0750  0.00  0.00     0.000 O
ATOM      7   O  IDS C   1     141.378  15.355  85.2300  0.00  0.00     0.000 O
ATOM      9  HD  IDS C   1     141.770  16.126  85.2730  0.00  0.00     0.000 HD
ENDROOT
BRANCH 2 9
ATOM      9   O  IDS C   1     144.092  16.046  85.1900  0.00  0.00     0.000 O
ATOM     10   S  IDS C   1     144.123  17.386  84.3260  0.00  0.00     0.000 S
ATOM     11   O  IDS C   1     144.598  18.421  85.2170  0.00  0.00     0.000 OA
ATOM     12   O  IDS C   1     145.034  17.123  83.2310  0.00  0.00     0.000 OA
ATOM     13   O  IDS C   1     142.762  17.605  83.8870  0.00  0.00     0.000 OA
ENDBRANCH 2 9
BRANCH 5 14
ATOM     14   C  IDS C   1     142.693  10.656  84.6360  0.00  0.00     0.000 C
ATOM     15   O  IDS C   1     143.587   9.845  84.6370  0.00  0.00     0.000 OA
ATOM     16   O  IDS C   1     141.543  10.318  84.8620  0.00  0.00     0.000 OA
ENDBRANCH 5 14
BRANCH 1 17
ATOM     17  O4  SGN C   2     146.008  13.997  84.8610  0.00  0.00     0.000 O
BRANCH 17 21
ATOM     18  C1  SGN C   2     149.304  14.695  87.3460  0.00  0.00     0.000 C
ATOM     19  C2  SGN C   2     148.027  14.187  88.0260  0.00  0.00     0.000 C
ATOM     20  C3  SGN C   2     147.083  13.587  86.9770  0.00  0.00     0.000 C
ATOM     21  C4  SGN C   2     146.833  14.593  85.8590  0.00  0.00     0.000 C
ATOM     22  C5  SGN C   2     148.171  15.017  85.2620  0.00  0.00     0.000 C
ATOM     23  O5  SGN C   2     149.008  15.589  86.2930  0.00  0.00     0.000 O
ATOM     24   O  SGN C   2     145.866  13.196  87.5900  0.00  0.00     0.000 O
ATOM     26  HD  SGN C   2     146.547  13.123  87.0600  0.00  0.00     0.000 HD
BRANCH 19 28
ATOM     26   N  SGN C   2     148.554  13.688  89.3040  0.00  0.00     0.000 N
ATOM     28  HD  SGN C   2     149.059  14.369  89.1240  0.00  0.00     0.000 HD
ATOM     28   O  SGN C   2     148.138  12.595  91.5070  0.00  0.00     0.000 OA
ATOM     29   S  SGN C   2     147.766  13.880  90.6920  0.00  0.00     0.000 S
ATOM     30   O  SGN C   2     148.320  15.004  91.3440  0.00  0.00     0.000 OA
ATOM     31   O  SGN C   2     146.374  13.849  90.4060  0.00  0.00     0.000 OA
ENDBRANCH 19 28
BRANCH 22 32
ATOM     32   C  SGN C   2     148.039  16.061  84.1800  0.00  0.00     0.000 C
ATOM     33   S  SGN C   2     149.547  17.671  82.8460  0.00  0.00     0.000 S
ATOM     34   O  SGN C   2     149.658  18.591  83.9500  0.00  0.00     0.000 OA
ATOM     35   O  SGN C   2     150.775  17.513  82.0950  0.00  0.00     0.000 OA
ATOM     36   O  SGN C   2     148.387  17.887  82.0130  0.00  0.00     0.000 OA
ATOM     37   O  SGN C   2     149.306  16.253  83.5390  0.00  0.00     0.000 O
ENDBRANCH 22 32
BRANCH 18 38
ATOM     38  O4  IDS C   3     150.374  14.025  86.9120  0.00  0.00     0.000 O
BRANCH 38 42
ATOM     39  C1  IDS C   3     153.494  12.701  86.1120  0.00  0.00     0.000 C
ATOM     40  C2  IDS C   3     152.608  13.346  85.0350  0.00  0.00     0.000 C
ATOM     41  C3  IDS C   3     151.202  12.746  85.0430  0.00  0.00     0.000 C
ATOM     42  C4  IDS C   3     150.634  12.694  86.4550  0.00  0.00     0.000 C
ATOM     43  C5  IDS C   3     151.633  12.005  87.3920  0.00  0.00     0.000 C
ATOM     44  O5  IDS C   3     152.861  12.731  87.3800  0.00  0.00     0.000 O
ATOM     45   O  IDS C   3     151.247  11.428  84.4920  0.00  0.00     0.000 O
ATOM     47  HD  IDS C   3     151.694  10.707  84.6660  0.00  0.00     0.000 HD
BRANCH 40 47
ATOM     47   O  IDS C   3     152.471  14.802  85.2760  0.00  0.00     0.000 O
ATOM     48   S  IDS C   3     153.307  15.838  84.3900  0.00  0.00     0.000 S
ATOM     49   O  IDS C   3     154.658  15.805  84.9090  0.00  0.00     0.000 OA
ATOM     50   O  IDS C   3     152.667  17.119  84.5960  0.00  0.00     0.000 OA
ATOM     51   O  IDS C   3     153.220  15.373  83.0310  0.00  0.00     0.000 OA
ENDBRANCH 40 47
BRANCH 43 52
ATOM     52   C  IDS C   3     151.123  11.891  88.8110  0.00  0.00     0.000 C
ATOM     53   O  IDS C   3     150.287  11.062  89.0870  0.00  0.00     0.000 OA
ATOM     54   O  IDS C   3     151.554  12.628  89.6610  0.00  0.00     0.000 OA
ENDBRANCH 43 52
BRANCH 39 55
ATOM     55  O4  SGN C   4     154.239  11.616  85.9030  0.00  0.00     0.000 O
BRANCH 55 59
ATOM     56  C1  SGN C   4     157.804  11.136  88.0400  0.00  0.00     0.000 C
ATOM     57  C2  SGN C   4     157.792  12.231  86.9600  0.00  0.00     0.000 C
ATOM     58  C3  SGN C   4     156.362  12.567  86.5450  0.00  0.00     0.000 C
ATOM     59  C4  SGN C   4     155.595  11.300  86.1850  0.00  0.00     0.000 C
ATOM     60  C5  SGN C   4     155.670  10.330  87.3620  0.00  0.00     0.000 C
ATOM     61  O5  SGN C   4     157.056  10.014  87.6010  0.00  0.00     0.000 O
ATOM     62   O  SGN C   4     156.385  13.469  85.4470  0.00  0.00     0.000 O
ATOM     64  HD  SGN C   4     157.119  13.632  85.8760  0.00  0.00     0.000 HD
BRANCH 57 66
ATOM     64   N  SGN C   4     158.966  12.706  87.7100  0.00  0.00     0.000 N
ATOM     66  HD  SGN C   4     159.826  12.682  87.6070  0.00  0.00     0.000 HD
ATOM     66   S  SGN C   4     160.063  13.626  87.0030  0.00  0.00     0.000 S
ATOM     67   O  SGN C   4     161.090  13.866  87.9500  0.00  0.00     0.000 OA
ATOM     68   O  SGN C   4     160.386  13.011  85.7630  0.00  0.00     0.000 OA
ATOM     69   O  SGN C   4     159.299  14.959  86.7170  0.00  0.00     0.000 OA
ENDBRANCH 57 66
BRANCH 60 70
ATOM     70   C  SGN C   4     154.933   9.029  87.1290  0.00  0.00     0.000 C
ATOM     71   O  SGN C   4     151.489   8.139  88.3330  0.00  0.00     0.000 OA
ATOM     72   O  SGN C   4     152.138   8.846  86.1130  0.00  0.00     0.000 OA
ATOM     73   O  SGN C   4     153.729   8.982  87.9170  0.00  0.00     0.000 O
ATOM     74   S  SGN C   4     152.513   8.136  87.3150  0.00  0.00     0.000 S
ATOM     75   O  SGN C   4     153.068   6.821  87.0580  0.00  0.00     0.000 OA
ENDBRANCH 60 70
BRANCH 56 76
ATOM     76  O4  IDS C   5     157.822  11.112  89.3860  0.00  0.00     0.000 O
BRANCH 76 80
ATOM     77  C1  IDS C   5     154.311  11.530  91.4250  0.00  0.00     0.000 C
ATOM     78  C2  IDS C   5     155.127  12.816  91.2960  0.00  0.00     0.000 C
ATOM     79  C3  IDS C   5     156.147  12.669  90.1850  0.00  0.00     0.000 C
ATOM     80  C4  IDS C   5     157.167  11.600  90.5660  0.00  0.00     0.000 C
ATOM     81  C5  IDS C   5     156.453  10.453  91.2960  0.00  0.00     0.000 C
ATOM     82  O5  IDS C   5     155.067  10.419  90.9440  0.00  0.00     0.000 O
BRANCH 78 83
ATOM     83   O  IDS C   5     154.247  13.964  90.9760  0.00  0.00     0.000 O
ATOM     84   S  IDS C   5     154.151  15.195  91.9850  0.00  0.00     0.000 S
ATOM     85   O  IDS C   5     153.932  14.623  93.2870  0.00  0.00     0.000 OA
ATOM     86   O  IDS C   5     155.417  15.879  91.8710  0.00  0.00     0.000 OA
ATOM     87   O  IDS C   5     153.043  15.995  91.5220  0.00  0.00     0.000 OA
ENDBRANCH 78 83
BRANCH 81 88
ATOM     88   C  IDS C   5     157.034   9.081  91.0040  0.00  0.00     0.000 C
ATOM     89   O  IDS C   5     156.424   8.307  90.3160  0.00  0.00     0.000 OA
ATOM     90   O  IDS C   5     158.109   8.776  91.4660  0.00  0.00     0.000 OA
ENDBRANCH 81 88
ENDBRANCH 76 80
ENDBRANCH 56 76
ENDBRANCH 55 59
ENDBRANCH 39 55
ENDBRANCH 38 42
ENDBRANCH 18 38
ENDBRANCH 17 21
ENDBRANCH 1 17
TORSDOF 18
ENDMDL
MODEL 86
REMARK VINA RESULT:      -6.7     38.567     42.956
ROOT
ATOM      1  C1  IDS C   1     121.109  31.140  60.1520  0.00  0.00     0.000 C
ATOM      2  C2  IDS C   1     120.961  31.566  58.6880  0.00  0.00     0.000 C
ATOM      3  C3  IDS C   1     119.812  30.823  58.0230  0.00  0.00     0.000 C
ATOM      4  C4  IDS C   1     120.036  29.319  58.0870  0.00  0.00     0.000 C
ATOM      5  C5  IDS C   1     120.634  28.936  59.4370  0.00  0.00     0.000 C
ATOM      6  O5  IDS C   1     120.364  29.955  60.4000  0.00  0.00     0.000 O
ATOM      7   O  IDS C   1     119.691  31.242  56.6560  0.00  0.00     0.000 O
ATOM      9  HD  IDS C   1     119.871  32.088  56.6130  0.00  0.00     0.000 HD
ENDROOT
BRANCH 2 9
ATOM      9   O  IDS C   1     120.674  33.015  58.5880  0.00  0.00     0.000 O
ATOM     10   S  IDS C   1     121.604  33.937  57.6790  0.00  0.00     0.000 S
ATOM     11   O  IDS C   1     121.059  35.273  57.7810  0.00  0.00     0.000 OA
ATOM     12   O  IDS C   1     122.934  33.826  58.2430  0.00  0.00     0.000 OA
ATOM     13   O  IDS C   1     121.512  33.394  56.3410  0.00  0.00     0.000 OA
ENDBRANCH 2 9
BRANCH 5 14
ATOM     14   C  IDS C   1     120.079  27.621  59.9580  0.00  0.00     0.000 C
ATOM     15   O  IDS C   1     118.975  27.594  60.4450  0.00  0.00     0.000 OA
ATOM     16   O  IDS C   1     120.753  26.608  59.8830  0.00  0.00     0.000 OA
ENDBRANCH 5 14
BRANCH 1 17
ATOM     17  O4  SGN C   2     121.334  32.007  61.1430  0.00  0.00     0.000 O
BRANCH 17 21
ATOM     18  C1  SGN C   2     120.254  34.482  64.3420  0.00  0.00     0.000 C
ATOM     19  C2  SGN C   2     119.224  33.431  63.9090  0.00  0.00     0.000 C
ATOM     20  C3  SGN C   2     119.906  32.359  63.0500  0.00  0.00     0.000 C
ATOM     21  C4  SGN C   2     120.652  33.010  61.8910  0.00  0.00     0.000 C
ATOM     22  C5  SGN C   2     121.645  34.027  62.4470  0.00  0.00     0.000 C
ATOM     23  O5  SGN C   2     120.942  35.018  63.2310  0.00  0.00     0.000 O
ATOM     24   O  SGN C   2     118.941  31.434  62.5770  0.00  0.00     0.000 O
ATOM     26  HD  SGN C   2     119.699  31.690  62.9090  0.00  0.00     0.000 HD
BRANCH 19 28
ATOM     26   N  SGN C   2     118.357  33.367  65.0930  0.00  0.00     0.000 N
ATOM     28  HD  SGN C   2     118.602  34.196  65.0620  0.00  0.00     0.000 HD
ATOM     28   O  SGN C   2     116.382  32.367  66.2430  0.00  0.00     0.000 OA
ATOM     29   S  SGN C   2     116.760  33.213  64.9810  0.00  0.00     0.000 S
ATOM     30   O  SGN C   2     116.198  34.503  65.1160  0.00  0.00     0.000 OA
ATOM     31   O  SGN C   2     116.481  32.444  63.8190  0.00  0.00     0.000 OA
ENDBRANCH 19 28
BRANCH 22 32
ATOM     32   C  SGN C   2     122.399  34.774  61.3750  0.00  0.00     0.000 C
ATOM     33   S  SGN C   2     123.157  37.183  60.8590  0.00  0.00     0.000 S
ATOM     34   O  SGN C   2     121.836  37.582  60.4400  0.00  0.00     0.000 OA
ATOM     35   O  SGN C   2     123.860  38.202  61.6100  0.00  0.00     0.000 OA
ATOM     36   O  SGN C   2     123.953  36.589  59.8110  0.00  0.00     0.000 OA
ATOM     37   O  SGN C   2     122.898  36.007  61.9070  0.00  0.00     0.000 O
ENDBRANCH 22 32
BRANCH 18 38
ATOM     38  O4  IDS C   3     121.176  34.439  65.3050  0.00  0.00     0.000 O
BRANCH 38 42
ATOM     39  C1  IDS C   3     122.896  33.311  68.1160  0.00  0.00     0.000 C
ATOM     40  C2  IDS C   3     121.362  33.235  68.0430  0.00  0.00     0.000 C
ATOM     41  C3  IDS C   3     120.759  34.590  67.6750  0.00  0.00     0.000 C
ATOM     42  C4  IDS C   3     121.471  35.205  66.4780  0.00  0.00     0.000 C
ATOM     43  C5  IDS C   3     122.985  35.220  66.7260  0.00  0.00     0.000 C
ATOM     44  O5  IDS C   3     123.437  33.884  66.9380  0.00  0.00     0.000 O
ATOM     45   O  IDS C   3     120.855  35.470  68.7970  0.00  0.00     0.000 O
ATOM     47  HD  IDS C   3     121.500  35.751  69.3010  0.00  0.00     0.000 HD
BRANCH 40 47
ATOM     47   O  IDS C   3     120.938  32.264  67.0060  0.00  0.00     0.000 O
ATOM     48   S  IDS C   3     119.995  31.036  67.4050  0.00  0.00     0.000 S
ATOM     49   O  IDS C   3     120.854  30.072  68.0600  0.00  0.00     0.000 OA
ATOM     50   O  IDS C   3     119.464  30.542  66.1530  0.00  0.00     0.000 OA
ATOM     51   O  IDS C   3     118.984  31.566  68.2790  0.00  0.00     0.000 OA
ENDBRANCH 40 47
BRANCH 43 52
ATOM     52   C  IDS C   3     123.759  35.844  65.5870  0.00  0.00     0.000 C
ATOM     53   O  IDS C   3     123.812  37.048  65.4820  0.00  0.00     0.000 OA
ATOM     54   O  IDS C   3     124.319  35.138  64.7880  0.00  0.00     0.000 OA
ENDBRANCH 43 52
BRANCH 39 55
ATOM     55  O4  SGN C   4     123.567  33.617  69.2260  0.00  0.00     0.000 O
BRANCH 55 59
ATOM     56  C1  SGN C   4     123.804  35.206  73.0890  0.00  0.00     0.000 C
ATOM     57  C2  SGN C   4     122.618  34.270  72.8020  0.00  0.00     0.000 C
ATOM     58  C3  SGN C   4     122.859  33.465  71.5280  0.00  0.00     0.000 C
ATOM     59  C4  SGN C   4     123.245  34.386  70.3760  0.00  0.00     0.000 C
ATOM     60  C5  SGN C   4     124.451  35.222  70.7990  0.00  0.00     0.000 C
ATOM     61  O5  SGN C   4     124.077  36.006  71.9500  0.00  0.00     0.000 O
ATOM     62   O  SGN C   4     121.691  32.722  71.2060  0.00  0.00     0.000 O
ATOM     64  HD  SGN C   4     121.662  32.808  72.0670  0.00  0.00     0.000 HD
BRANCH 57 66
ATOM     64   N  SGN C   4     122.587  33.812  74.2010  0.00  0.00     0.000 N
ATOM     66  HD  SGN C   4     122.316  34.132  74.9580  0.00  0.00     0.000 HD
ATOM     66   S  SGN C   4     121.220  33.807  75.0240  0.00  0.00     0.000 S
ATOM     67   O  SGN C   4     121.519  33.378  76.3410  0.00  0.00     0.000 OA
ATOM     68   O  SGN C   4     120.610  35.076  74.8240  0.00  0.00     0.000 OA
ATOM     69   O  SGN C   4     120.359  32.719  74.3060  0.00  0.00     0.000 OA
ENDBRANCH 57 66
BRANCH 60 70
ATOM     70   C  SGN C   4     124.938  36.176  69.7290  0.00  0.00     0.000 C
ATOM     71   O  SGN C   4     128.422  36.427  68.3490  0.00  0.00     0.000 OA
ATOM     72   O  SGN C   4     126.510  35.347  67.3370  0.00  0.00     0.000 OA
ATOM     73   O  SGN C   4     126.373  36.116  69.6160  0.00  0.00     0.000 O
ATOM     74   S  SGN C   4     126.988  36.425  68.1730  0.00  0.00     0.000 S
ATOM     75   O  SGN C   4     126.449  37.720  67.8090  0.00  0.00     0.000 OA
ENDBRANCH 60 70
BRANCH 56 76
ATOM     76  O4  IDS C   5     124.935  35.131  73.8140  0.00  0.00     0.000 O
BRANCH 76 80
ATOM     77  C1  IDS C   5     128.379  33.633  72.2150  0.00  0.00     0.000 C
ATOM     78  C2  IDS C   5     127.533  32.609  72.9710  0.00  0.00     0.000 C
ATOM     79  C3  IDS C   5     126.118  33.130  73.1330  0.00  0.00     0.000 C
ATOM     80  C4  IDS C   5     126.129  34.363  74.0320  0.00  0.00     0.000 C
ATOM     81  C5  IDS C   5     127.373  35.208  73.7230  0.00  0.00     0.000 C
ATOM     82  O5  IDS C   5     127.843  34.944  72.3980  0.00  0.00     0.000 O
BRANCH 78 83
ATOM     83   O  IDS C   5     127.477  31.327  72.2310  0.00  0.00     0.000 O
ATOM     84   S  IDS C   5     128.150  30.022  72.8550  0.00  0.00     0.000 S
ATOM     85   O  IDS C   5     129.470  30.415  73.2660  0.00  0.00     0.000 OA
ATOM     86   O  IDS C   5     127.298  29.649  73.9600  0.00  0.00     0.000 OA
ATOM     87   O  IDS C   5     128.151  29.040  71.7980  0.00  0.00     0.000 OA
ENDBRANCH 78 83
BRANCH 81 88
ATOM     88   C  IDS C   5     127.147  36.704  73.8390  0.00  0.00     0.000 C
ATOM     89   O  IDS C   5     127.089  37.219  74.9240  0.00  0.00     0.000 OA
ATOM     90   O  IDS C   5     127.026  37.370  72.8370  0.00  0.00     0.000 OA
ENDBRANCH 81 88
ENDBRANCH 76 80
ENDBRANCH 56 76
ENDBRANCH 55 59
ENDBRANCH 39 55
ENDBRANCH 38 42
ENDBRANCH 18 38
ENDBRANCH 17 21
ENDBRANCH 1 17
TORSDOF 18
ENDMDL
MODEL 87
REMARK VINA RESULT:      -6.6     28.418     32.671
ROOT
ATOM      1  C1  IDS C   1     146.269  19.828  84.9270  0.00  0.00     0.000 C
ATOM      2  C2  IDS C   1     147.734  20.169  84.6420  0.00  0.00     0.000 C
ATOM      3  C3  IDS C   1     148.131  21.468  85.3280  0.00  0.00     0.000 C
ATOM      4  C4  IDS C   1     147.247  22.615  84.8580  0.00  0.00     0.000 C
ATOM      5  C5  IDS C   1     145.808  22.136  84.6990  0.00  0.00     0.000 C
ATOM      6  O5  IDS C   1     145.595  20.955  85.4730  0.00  0.00     0.000 O
ATOM      7   O  IDS C   1     149.507  21.763  85.0500  0.00  0.00     0.000 O
ATOM      9  HD  IDS C   1     149.946  21.017  85.0300  0.00  0.00     0.000 HD
ENDROOT
BRANCH 2 9
ATOM      9   O  IDS C   1     148.631  19.105  85.1470  0.00  0.00     0.000 O
ATOM     10   S  IDS C   1     149.593  18.343  84.1300  0.00  0.00     0.000 S
ATOM     11   O  IDS C   1     150.336  17.390  84.9250  0.00  0.00     0.000 OA
ATOM     12   O  IDS C   1     148.717  17.710  83.1650  0.00  0.00     0.000 OA
ATOM     13   O  IDS C   1     150.435  19.362  83.5430  0.00  0.00     0.000 OA
ENDBRANCH 2 9
BRANCH 5 14
ATOM     14   C  IDS C   1     144.802  23.187  85.1390  0.00  0.00     0.000 C
ATOM     15   O  IDS C   1     144.281  23.893  84.3100  0.00  0.00     0.000 OA
ATOM     16   O  IDS C   1     144.533  23.310  86.3220  0.00  0.00     0.000 OA
ENDBRANCH 5 14
BRANCH 1 17
ATOM     17  O4  SGN C   2     145.854  18.594  85.2260  0.00  0.00     0.000 O
BRANCH 17 21
ATOM     18  C1  SGN C   2     143.816  15.825  87.6150  0.00  0.00     0.000 C
ATOM     19  C2  SGN C   2     143.668  17.303  87.9980  0.00  0.00     0.000 C
ATOM     20  C3  SGN C   2     144.097  18.190  86.8230  0.00  0.00     0.000 C
ATOM     21  C4  SGN C   2     145.497  17.807  86.3590  0.00  0.00     0.000 C
ATOM     22  C5  SGN C   2     145.516  16.323  86.0040  0.00  0.00     0.000 C
ATOM     23  O5  SGN C   2     145.120  15.540  87.1530  0.00  0.00     0.000 O
ATOM     24   O  SGN C   2     144.044  19.554  87.2040  0.00  0.00     0.000 O
ATOM     26  HD  SGN C   2     143.933  18.871  86.6840  0.00  0.00     0.000 HD
BRANCH 19 28
ATOM     26   N  SGN C   2     142.910  17.663  89.2040  0.00  0.00     0.000 N
ATOM     28  HD  SGN C   2     143.725  17.876  89.4030  0.00  0.00     0.000 HD
ATOM     28   O  SGN C   2     140.791  18.490  90.2290  0.00  0.00     0.000 OA
ATOM     29   S  SGN C   2     141.932  18.939  89.2550  0.00  0.00     0.000 S
ATOM     30   O  SGN C   2     142.647  19.999  89.8560  0.00  0.00     0.000 OA
ATOM     31   O  SGN C   2     141.380  19.111  87.9570  0.00  0.00     0.000 OA
ENDBRANCH 19 28
BRANCH 22 32
ATOM     32   C  SGN C   2     146.877  15.825  85.5860  0.00  0.00     0.000 C
ATOM     33   S  SGN C   2     147.990  13.624  84.8360  0.00  0.00     0.000 S
ATOM     34   O  SGN C   2     148.031  13.107  86.1810  0.00  0.00     0.000 OA
ATOM     35   O  SGN C   2     147.675  12.623  83.8390  0.00  0.00     0.000 OA
ATOM     36   O  SGN C   2     149.124  14.447  84.4870  0.00  0.00     0.000 OA
ATOM     37   O  SGN C   2     146.737  14.613  84.8340  0.00  0.00     0.000 O
ENDBRANCH 22 32
BRANCH 18 38
ATOM     38  O4  IDS C   3     143.030  15.046  86.8690  0.00  0.00     0.000 O
BRANCH 38 42
ATOM     39  C1  IDS C   3     141.022  12.626  85.3730  0.00  0.00     0.000 C
ATOM     40  C2  IDS C   3     142.481  12.825  84.9340  0.00  0.00     0.000 C
ATOM     41  C3  IDS C   3     142.761  14.289  84.5950  0.00  0.00     0.000 C
ATOM     42  C4  IDS C   3     142.242  15.216  85.6860  0.00  0.00     0.000 C
ATOM     43  C5  IDS C   3     140.773  14.895  85.9840  0.00  0.00     0.000 C
ATOM     44  O5  IDS C   3     140.668  13.535  86.4020  0.00  0.00     0.000 O
ATOM     45   O  IDS C   3     142.140  14.614  83.3500  0.00  0.00     0.000 O
ATOM     47  HD  IDS C   3     141.334  14.563  83.0360  0.00  0.00     0.000 HD
BRANCH 40 47
ATOM     47   O  IDS C   3     143.409  12.435  86.0220  0.00  0.00     0.000 O
ATOM     48   S  IDS C   3     144.289  11.107  85.8790  0.00  0.00     0.000 S
ATOM     49   O  IDS C   3     143.391  10.005  86.1510  0.00  0.00     0.000 OA
ATOM     50   O  IDS C   3     145.330  11.231  86.8760  0.00  0.00     0.000 OA
ATOM     51   O  IDS C   3     144.793  11.096  84.5320  0.00  0.00     0.000 OA
ENDBRANCH 40 47
BRANCH 43 52
ATOM     52   C  IDS C   3     140.179  15.798  87.0420  0.00  0.00     0.000 C
ATOM     53   O  IDS C   3     140.441  15.614  88.2090  0.00  0.00     0.000 OA
ATOM     54   O  IDS C   3     139.448  16.699  86.7170  0.00  0.00     0.000 OA
ENDBRANCH 43 52
BRANCH 39 55
ATOM     55  O4  SGN C   4     140.028  12.349  84.5280  0.00  0.00     0.000 O
BRANCH 55 59
ATOM     56  C1  SGN C   4     138.488  10.528  81.0910  0.00  0.00     0.000 C
ATOM     57  C2  SGN C   4     139.349   9.644  82.0100  0.00  0.00     0.000 C
ATOM     58  C3  SGN C   4     139.509  10.288  83.3850  0.00  0.00     0.000 C
ATOM     59  C4  SGN C   4     139.984  11.730  83.2500  0.00  0.00     0.000 C
ATOM     60  C5  SGN C   4     139.015  12.483  82.3410  0.00  0.00     0.000 C
ATOM     61  O5  SGN C   4     139.016  11.843  81.0490  0.00  0.00     0.000 O
ATOM     62   O  SGN C   4     140.426   9.529  84.1610  0.00  0.00     0.000 O
ATOM     64  HD  SGN C   4     140.074   8.954  83.6180  0.00  0.00     0.000 HD
BRANCH 57 66
ATOM     64   N  SGN C   4     139.545   8.684  80.9120  0.00  0.00     0.000 N
ATOM     66  HD  SGN C   4     140.020   7.972  80.7810  0.00  0.00     0.000 HD
ATOM     66   S  SGN C   4     139.356   7.119  81.1580  0.00  0.00     0.000 S
ATOM     67   O  SGN C   4     139.670   6.457  79.9450  0.00  0.00     0.000 OA
ATOM     68   O  SGN C   4     140.078   6.793  82.3390  0.00  0.00     0.000 OA
ATOM     69   O  SGN C   4     137.828   6.971  81.4490  0.00  0.00     0.000 OA
ENDBRANCH 57 66
BRANCH 60 70
ATOM     70   C  SGN C   4     139.375  13.939  82.1360  0.00  0.00     0.000 C
ATOM     71   O  SGN C   4     137.319  16.546  80.3800  0.00  0.00     0.000 OA
ATOM     72   O  SGN C   4     137.561  16.218  82.7630  0.00  0.00     0.000 OA
ATOM     73   O  SGN C   4     138.438  14.570  81.2410  0.00  0.00     0.000 O
ATOM     74   S  SGN C   4     138.183  16.133  81.4620  0.00  0.00     0.000 S
ATOM     75   O  SGN C   4     139.501  16.734  81.4110  0.00  0.00     0.000 OA
ENDBRANCH 60 70
BRANCH 56 76
ATOM     76  O4  IDS C   5     137.181  10.604  80.7780  0.00  0.00     0.000 O
BRANCH 76 80
ATOM     77  C1  IDS C   5     133.219  10.598  79.8000  0.00  0.00     0.000 C
ATOM     78  C2  IDS C   5     133.795   9.219  80.1190  0.00  0.00     0.000 C
ATOM     79  C3  IDS C   5     135.100   9.370  80.8770  0.00  0.00     0.000 C
ATOM     80  C4  IDS C   5     136.141  10.026  79.9750  0.00  0.00     0.000 C
ATOM     81  C5  IDS C   5     135.464  11.104  79.1170  0.00  0.00     0.000 C
ATOM     82  O5  IDS C   5     134.266  11.567  79.7450  0.00  0.00     0.000 O
BRANCH 78 83
ATOM     83   O  IDS C   5     132.854   8.439  80.9560  0.00  0.00     0.000 O
ATOM     84   S  IDS C   5     132.383   6.991  80.4810  0.00  0.00     0.000 S
ATOM     85   O  IDS C   5     131.978   7.138  79.1080  0.00  0.00     0.000 OA
ATOM     86   O  IDS C   5     133.541   6.144  80.6430  0.00  0.00     0.000 OA
ATOM     87   O  IDS C   5     131.299   6.626  81.3590  0.00  0.00     0.000 OA
ENDBRANCH 78 83
BRANCH 81 88
ATOM     88   C  IDS C   5     136.338  12.316  78.8480  0.00  0.00     0.000 C
ATOM     89   O  IDS C   5     137.271  12.227  78.0960  0.00  0.00     0.000 OA
ATOM     90   O  IDS C   5     136.089  13.366  79.3940  0.00  0.00     0.000 OA
ENDBRANCH 81 88
ENDBRANCH 76 80
ENDBRANCH 56 76
ENDBRANCH 55 59
ENDBRANCH 39 55
ENDBRANCH 38 42
ENDBRANCH 18 38
ENDBRANCH 17 21
ENDBRANCH 1 17
TORSDOF 18
ENDMDL
MODEL 88
REMARK VINA RESULT:      -6.5     20.035     25.851
ROOT
ATOM      1  C1  IDS C   1     164.849  26.856  73.5210  0.00  0.00     0.000 C
ATOM      2  C2  IDS C   1     164.160  28.015  72.7970  0.00  0.00     0.000 C
ATOM      3  C3  IDS C   1     162.646  27.877  72.8730  0.00  0.00     0.000 C
ATOM      4  C4  IDS C   1     162.196  26.560  72.2560  0.00  0.00     0.000 C
ATOM      5  C5  IDS C   1     163.176  25.449  72.6190  0.00  0.00     0.000 C
ATOM      6  O5  IDS C   1     163.920  25.812  73.7830  0.00  0.00     0.000 O
ATOM      7   O  IDS C   1     162.024  28.975  72.1920  0.00  0.00     0.000 O
ATOM      9  HD  IDS C   1     162.499  29.686  72.3300  0.00  0.00     0.000 HD
ENDROOT
BRANCH 2 9
ATOM      9   O  IDS C   1     164.521  29.312  73.4140  0.00  0.00     0.000 O
ATOM     10   S  IDS C   1     165.087  30.486  72.4960  0.00  0.00     0.000 S
ATOM     11   O  IDS C   1     165.326  31.603  73.3830  0.00  0.00     0.000 OA
ATOM     12   O  IDS C   1     166.303  29.966  71.9050  0.00  0.00     0.000 OA
ATOM     13   O  IDS C   1     164.056  30.756  71.5190  0.00  0.00     0.000 OA
ENDBRANCH 2 9
BRANCH 5 14
ATOM     14   C  IDS C   1     162.473  24.130  72.8890  0.00  0.00     0.000 C
ATOM     15   O  IDS C   1     163.126  23.120  72.9950  0.00  0.00     0.000 OA
ATOM     16   O  IDS C   1     161.258  24.102  72.9940  0.00  0.00     0.000 OA
ENDBRANCH 5 14
BRANCH 1 17
ATOM     17  O4  SGN C   2     165.906  27.023  74.3210  0.00  0.00     0.000 O
BRANCH 17 21
ATOM     18  C1  SGN C   2     167.894  27.186  78.0020  0.00  0.00     0.000 C
ATOM     19  C2  SGN C   2     166.517  26.510  77.9940  0.00  0.00     0.000 C
ATOM     20  C3  SGN C   2     166.122  26.153  76.5560  0.00  0.00     0.000 C
ATOM     21  C4  SGN C   2     166.212  27.386  75.6650  0.00  0.00     0.000 C
ATOM     22  C5  SGN C   2     167.622  27.962  75.7530  0.00  0.00     0.000 C
ATOM     23  O5  SGN C   2     167.930  28.294  77.1270  0.00  0.00     0.000 O
ATOM     24   O  SGN C   2     164.813  25.608  76.5370  0.00  0.00     0.000 O
ATOM     26  HD  SGN C   2     165.649  25.672  76.3210  0.00  0.00     0.000 HD
BRANCH 19 28
ATOM     26   N  SGN C   2     166.543  25.773  79.2650  0.00  0.00     0.000 N
ATOM     28  HD  SGN C   2     166.940  26.520  79.4520  0.00  0.00     0.000 HD
ATOM     28   O  SGN C   2     165.453  24.156  80.8200  0.00  0.00     0.000 OA
ATOM     29   S  SGN C   2     165.225  25.558  80.1610  0.00  0.00     0.000 S
ATOM     30   O  SGN C   2     165.235  26.541  81.1750  0.00  0.00     0.000 OA
ATOM     31   O  SGN C   2     164.114  25.469  79.2790  0.00  0.00     0.000 OA
ENDBRANCH 19 28
BRANCH 22 32
ATOM     32   C  SGN C   2     167.804  29.226  74.9490  0.00  0.00     0.000 C
ATOM     33   S  SGN C   2     169.714  30.777  74.1810  0.00  0.00     0.000 S
ATOM     34   O  SGN C   2     169.830  31.390  75.4800  0.00  0.00     0.000 OA
ATOM     35   O  SGN C   2     170.986  30.561  73.5240  0.00  0.00     0.000 OA
ATOM     36   O  SGN C   2     168.723  31.389  73.3280  0.00  0.00     0.000 OA
ATOM     37   O  SGN C   2     169.157  29.312  74.4860  0.00  0.00     0.000 O
ENDBRANCH 22 32
BRANCH 18 38
ATOM     38  O4  IDS C   3     169.115  26.655  77.9040  0.00  0.00     0.000 O
BRANCH 38 42
ATOM     39  C1  IDS C   3     172.472  25.735  77.9930  0.00  0.00     0.000 C
ATOM     40  C2  IDS C   3     171.982  26.854  77.0610  0.00  0.00     0.000 C
ATOM     41  C3  IDS C   3     170.805  26.386  76.2060  0.00  0.00     0.000 C
ATOM     42  C4  IDS C   3     169.749  25.692  77.0550  0.00  0.00     0.000 C
ATOM     43  C5  IDS C   3     170.403  24.596  77.9050  0.00  0.00     0.000 C
ATOM     44  O5  IDS C   3     171.399  25.185  78.7390  0.00  0.00     0.000 O
ATOM     45   O  IDS C   3     171.279  25.490  75.1990  0.00  0.00     0.000 O
ATOM     47  HD  IDS C   3     171.736  24.754  75.2000  0.00  0.00     0.000 HD
BRANCH 40 47
ATOM     47   O  IDS C   3     171.523  28.024  77.8470  0.00  0.00     0.000 O
ATOM     48   S  IDS C   3     172.289  29.421  77.7170  0.00  0.00     0.000 S
ATOM     49   O  IDS C   3     173.503  29.283  78.4940  0.00  0.00     0.000 OA
ATOM     50   O  IDS C   3     171.386  30.404  78.2730  0.00  0.00     0.000 OA
ATOM     51   O  IDS C   3     172.544  29.616  76.3140  0.00  0.00     0.000 OA
ENDBRANCH 40 47
BRANCH 43 52
ATOM     52   C  IDS C   3     169.407  23.843  78.7570  0.00  0.00     0.000 C
ATOM     53   O  IDS C   3     169.146  24.237  79.8700  0.00  0.00     0.000 OA
ATOM     54   O  IDS C   3     168.877  22.852  78.3220  0.00  0.00     0.000 OA
ENDBRANCH 43 52
BRANCH 39 55
ATOM     55  O4  SGN C   4     173.409  24.849  77.6550  0.00  0.00     0.000 O
BRANCH 55 59
ATOM     56  C1  SGN C   4     176.812  26.491  75.8600  0.00  0.00     0.000 C
ATOM     57  C2  SGN C   4     176.197  25.262  75.1700  0.00  0.00     0.000 C
ATOM     58  C3  SGN C   4     174.778  25.011  75.6750  0.00  0.00     0.000 C
ATOM     59  C4  SGN C   4     174.748  24.977  77.1980  0.00  0.00     0.000 C
ATOM     60  C5  SGN C   4     175.358  26.272  77.7310  0.00  0.00     0.000 C
ATOM     61  O5  SGN C   4     176.721  26.354  77.2690  0.00  0.00     0.000 O
ATOM     62   O  SGN C   4     174.290  23.790  75.1360  0.00  0.00     0.000 O
ATOM     64  HD  SGN C   4     174.858  24.075  74.5470  0.00  0.00     0.000 HD
BRANCH 57 66
ATOM     64   N  SGN C   4     177.373  25.444  74.3040  0.00  0.00     0.000 N
ATOM     66  HD  SGN C   4     177.931  24.927  73.8900  0.00  0.00     0.000 HD
ATOM     66   S  SGN C   4     177.441  24.747  72.8710  0.00  0.00     0.000 S
ATOM     67   O  SGN C   4     178.705  25.054  72.3080  0.00  0.00     0.000 OA
ATOM     68   O  SGN C   4     177.069  23.386  73.0520  0.00  0.00     0.000 OA
ATOM     69   O  SGN C   4     176.321  25.467  72.0540  0.00  0.00     0.000 OA
ENDBRANCH 57 66
BRANCH 60 70
ATOM     70   C  SGN C   4     175.376  26.362  79.2420  0.00  0.00     0.000 C
ATOM     71   O  SGN C   4     176.963  23.935  81.6280  0.00  0.00     0.000 OA
ATOM     72   O  SGN C   4     177.830  26.074  80.9070  0.00  0.00     0.000 OA
ATOM     73   O  SGN C   4     175.894  25.146  79.8140  0.00  0.00     0.000 O
ATOM     74   S  SGN C   4     176.659  25.284  81.2120  0.00  0.00     0.000 S
ATOM     75   O  SGN C   4     175.718  25.959  82.0830  0.00  0.00     0.000 OA
ENDBRANCH 60 70
BRANCH 56 76
ATOM     76  O4  IDS C   5     176.899  27.806  75.5850  0.00  0.00     0.000 O
BRANCH 76 80
ATOM     77  C1  IDS C   5     174.945  30.968  73.8980  0.00  0.00     0.000 C
ATOM     78  C2  IDS C   5     175.313  29.854  72.9180  0.00  0.00     0.000 C
ATOM     79  C3  IDS C   5     175.618  28.579  73.6800  0.00  0.00     0.000 C
ATOM     80  C4  IDS C   5     176.870  28.778  74.5280  0.00  0.00     0.000 C
ATOM     81  C5  IDS C   5     176.872  30.200  75.1080  0.00  0.00     0.000 C
ATOM     82  O5  IDS C   5     175.540  30.717  75.1710  0.00  0.00     0.000 O
BRANCH 78 83
ATOM     83   O  IDS C   5     174.194  29.586  71.9850  0.00  0.00     0.000 O
ATOM     84   S  IDS C   5     174.382  29.853  70.4240  0.00  0.00     0.000 S
ATOM     85   O  IDS C   5     174.948  31.171  70.3130  0.00  0.00     0.000 OA
ATOM     86   O  IDS C   5     175.274  28.812  69.9670  0.00  0.00     0.000 OA
ATOM     87   O  IDS C   5     173.064  29.748  69.8480  0.00  0.00     0.000 OA
ENDBRANCH 78 83
BRANCH 81 88
ATOM     88   C  IDS C   5     177.467  30.296  76.5010  0.00  0.00     0.000 C
ATOM     89   O  IDS C   5     176.743  30.375  77.4570  0.00  0.00     0.000 OA
ATOM     90   O  IDS C   5     178.669  30.293  76.6400  0.00  0.00     0.000 OA
ENDBRANCH 81 88
ENDBRANCH 76 80
ENDBRANCH 56 76
ENDBRANCH 55 59
ENDBRANCH 39 55
ENDBRANCH 38 42
ENDBRANCH 18 38
ENDBRANCH 17 21
ENDBRANCH 1 17
TORSDOF 18
ENDMDL
MODEL 89
REMARK VINA RESULT:      -6.5     27.148     35.251
ROOT
ATOM      1  C1  IDS C   1     142.876  49.267  55.2410  0.00  0.00     0.000 C
ATOM      2  C2  IDS C   1     141.371  49.453  55.4550  0.00  0.00     0.000 C
ATOM      3  C3  IDS C   1     141.089  50.740  56.2160  0.00  0.00     0.000 C
ATOM      4  C4  IDS C   1     141.791  50.731  57.5670  0.00  0.00     0.000 C
ATOM      5  C5  IDS C   1     143.175  50.102  57.4330  0.00  0.00     0.000 C
ATOM      6  O5  IDS C   1     143.609  50.156  56.0740  0.00  0.00     0.000 O
ATOM      7   O  IDS C   1     139.675  50.894  56.4000  0.00  0.00     0.000 O
ATOM      9  HD  IDS C   1     139.274  50.597  55.6920  0.00  0.00     0.000 HD
ENDROOT
BRANCH 2 9
ATOM      9   O  IDS C   1     140.661  49.535  54.1590  0.00  0.00     0.000 O
ATOM     10   S  IDS C   1     139.471  48.519  53.8520  0.00  0.00     0.000 S
ATOM     11   O  IDS C   1     138.985  48.864  52.5350  0.00  0.00     0.000 OA
ATOM     12   O  IDS C   1     140.063  47.198  53.9070  0.00  0.00     0.000 OA
ATOM     13   O  IDS C   1     138.486  48.738  54.8890  0.00  0.00     0.000 OA
ENDBRANCH 2 9
BRANCH 5 14
ATOM     14   C  IDS C   1     144.209  50.803  58.2970  0.00  0.00     0.000 C
ATOM     15   O  IDS C   1     144.815  50.172  59.1280  0.00  0.00     0.000 OA
ATOM     16   O  IDS C   1     144.416  51.995  58.1460  0.00  0.00     0.000 OA
ENDBRANCH 5 14
BRANCH 1 17
ATOM     17  O4  SGN C   2     143.400  48.852  54.0840  0.00  0.00     0.000 O
BRANCH 17 21
ATOM     18  C1  SGN C   2     145.517  49.328  50.5040  0.00  0.00     0.000 C
ATOM     19  C2  SGN C   2     145.644  50.459  51.5330  0.00  0.00     0.000 C
ATOM     20  C3  SGN C   2     145.185  49.962  52.9090  0.00  0.00     0.000 C
ATOM     21  C4  SGN C   2     143.785  49.367  52.8130  0.00  0.00     0.000 C
ATOM     22  C5  SGN C   2     143.787  48.256  51.7660  0.00  0.00     0.000 C
ATOM     23  O5  SGN C   2     144.212  48.788  50.4900  0.00  0.00     0.000 O
ATOM     24   O  SGN C   2     145.219  51.029  53.8420  0.00  0.00     0.000 O
ATOM     26  HD  SGN C   2     145.335  50.219  53.5580  0.00  0.00     0.000 HD
BRANCH 19 28
ATOM     26   N  SGN C   2     146.865  51.135  51.0740  0.00  0.00     0.000 N
ATOM     28  HD  SGN C   2     146.505  50.842  50.3430  0.00  0.00     0.000 HD
ATOM     28   O  SGN C   2     148.530  52.970  51.3650  0.00  0.00     0.000 OA
ATOM     29   S  SGN C   2     147.010  52.736  51.0680  0.00  0.00     0.000 S
ATOM     30   O  SGN C   2     146.732  53.183  49.7570  0.00  0.00     0.000 OA
ATOM     31   O  SGN C   2     146.252  53.242  52.1590  0.00  0.00     0.000 OA
ENDBRANCH 19 28
BRANCH 22 32
ATOM     32   C  SGN C   2     142.429  47.636  51.5490  0.00  0.00     0.000 C
ATOM     33   S  SGN C   2     140.784  47.199  49.6140  0.00  0.00     0.000 S
ATOM     34   O  SGN C   2     140.344  48.572  49.5880  0.00  0.00     0.000 OA
ATOM     35   O  SGN C   2     140.908  46.603  48.3000  0.00  0.00     0.000 OA
ATOM     36   O  SGN C   2     140.070  46.370  50.5560  0.00  0.00     0.000 OA
ATOM     37   O  SGN C   2     142.278  47.276  50.1710  0.00  0.00     0.000 O
ENDBRANCH 22 32
BRANCH 18 38
ATOM     38  O4  IDS C   3     146.306  48.276  50.2780  0.00  0.00     0.000 O
BRANCH 38 42
ATOM     39  C1  IDS C   3     147.975  45.428  49.1690  0.00  0.00     0.000 C
ATOM     40  C2  IDS C   3     146.542  45.342  49.7190  0.00  0.00     0.000 C
ATOM     41  C3  IDS C   3     146.436  46.009  51.0900  0.00  0.00     0.000 C
ATOM     42  C4  IDS C   3     147.085  47.386  51.0850  0.00  0.00     0.000 C
ATOM     43  C5  IDS C   3     148.510  47.286  50.5270  0.00  0.00     0.000 C
ATOM     44  O5  IDS C   3     148.457  46.761  49.2020  0.00  0.00     0.000 O
ATOM     45   O  IDS C   3     147.067  45.181  52.0690  0.00  0.00     0.000 O
ATOM     47  HD  IDS C   3     147.854  44.832  52.1580  0.00  0.00     0.000 HD
BRANCH 40 47
ATOM     47   O  IDS C   3     145.595  46.034  48.8120  0.00  0.00     0.000 O
ATOM     48   S  IDS C   3     145.123  45.322  47.4610  0.00  0.00     0.000 S
ATOM     49   O  IDS C   3     146.225  45.460  46.5330  0.00  0.00     0.000 OA
ATOM     50   O  IDS C   3     143.948  46.052  47.0370  0.00  0.00     0.000 OA
ATOM     51   O  IDS C   3     144.846  43.951  47.7980  0.00  0.00     0.000 OA
ENDBRANCH 40 47
BRANCH 43 52
ATOM     52   C  IDS C   3     149.230  48.616  50.5180  0.00  0.00     0.000 C
ATOM     53   O  IDS C   3     149.049  49.393  49.6090  0.00  0.00     0.000 OA
ATOM     54   O  IDS C   3     149.981  48.895  51.4180  0.00  0.00     0.000 OA
ENDBRANCH 43 52
BRANCH 39 55
ATOM     55  O4  SGN C   4     148.911  44.506  49.3990  0.00  0.00     0.000 O
BRANCH 55 59
ATOM     56  C1  SGN C   4     150.076  40.490  49.2770  0.00  0.00     0.000 C
ATOM     57  C2  SGN C   4     148.899  40.892  48.3720  0.00  0.00     0.000 C
ATOM     58  C3  SGN C   4     148.835  42.409  48.2090  0.00  0.00     0.000 C
ATOM     59  C4  SGN C   4     148.865  43.097  49.5690  0.00  0.00     0.000 C
ATOM     60  C5  SGN C   4     150.101  42.623  50.3310  0.00  0.00     0.000 C
ATOM     61  O5  SGN C   4     150.006  41.196  50.5050  0.00  0.00     0.000 O
ATOM     62   O  SGN C   4     147.657  42.761  47.4950  0.00  0.00     0.000 O
ATOM     64  HD  SGN C   4     147.851  41.965  47.2140  0.00  0.00     0.000 HD
BRANCH 57 66
ATOM     64   N  SGN C   4     147.922  40.309  47.4380  0.00  0.00     0.000 N
ATOM     66  HD  SGN C   4     147.945  39.963  46.6450  0.00  0.00     0.000 HD
ATOM     66   S  SGN C   4     148.151  38.852  46.8300  0.00  0.00     0.000 S
ATOM     67   O  SGN C   4     147.087  38.595  45.9290  0.00  0.00     0.000 OA
ATOM     68   O  SGN C   4     149.493  38.803  46.3590  0.00  0.00     0.000 OA
ATOM     69   O  SGN C   4     148.021  37.908  48.0680  0.00  0.00     0.000 OA
ENDBRANCH 57 66
BRANCH 60 70
ATOM     70   C  SGN C   4     150.250  43.247  51.7020  0.00  0.00     0.000 C
ATOM     71   O  SGN C   4     153.312  44.908  53.1050  0.00  0.00     0.000 OA
ATOM     72   O  SGN C   4     151.344  45.976  52.1910  0.00  0.00     0.000 OA
ATOM     73   O  SGN C   4     151.625  43.595  51.9520  0.00  0.00     0.000 O
ATOM     74   S  SGN C   4     151.881  44.846  52.9150  0.00  0.00     0.000 S
ATOM     75   O  SGN C   4     151.150  44.536  54.1270  0.00  0.00     0.000 OA
ENDBRANCH 60 70
BRANCH 56 76
ATOM     76  O4  IDS C   5     151.359  40.134  49.0840  0.00  0.00     0.000 O
BRANCH 76 80
ATOM     77  C1  IDS C   5     153.218  37.858  51.9160  0.00  0.00     0.000 C
ATOM     78  C2  IDS C   5     153.515  39.354  52.0100  0.00  0.00     0.000 C
ATOM     79  C3  IDS C   5     152.471  40.135  51.2360  0.00  0.00     0.000 C
ATOM     80  C4  IDS C   5     152.589  39.809  49.7500  0.00  0.00     0.000 C
ATOM     81  C5  IDS C   5     152.914  38.318  49.5800  0.00  0.00     0.000 C
ATOM     82  O5  IDS C   5     152.484  37.577  50.7250  0.00  0.00     0.000 O
BRANCH 78 83
ATOM     83   O  IDS C   5     153.486  39.806  53.4210  0.00  0.00     0.000 O
ATOM     84   S  IDS C   5     154.731  40.599  54.0250  0.00  0.00     0.000 S
ATOM     85   O  IDS C   5     155.897  39.836  53.6680  0.00  0.00     0.000 OA
ATOM     86   O  IDS C   5     154.691  41.901  53.4000  0.00  0.00     0.000 OA
ATOM     87   O  IDS C   5     154.504  40.659  55.4480  0.00  0.00     0.000 OA
ENDBRANCH 78 83
BRANCH 81 88
ATOM     88   C  IDS C   5     152.274  37.684  48.3580  0.00  0.00     0.000 C
ATOM     89   O  IDS C   5     151.276  37.026  48.4780  0.00  0.00     0.000 OA
ATOM     90   O  IDS C   5     152.774  37.847  47.2680  0.00  0.00     0.000 OA
ENDBRANCH 81 88
ENDBRANCH 76 80
ENDBRANCH 56 76
ENDBRANCH 55 59
ENDBRANCH 39 55
ENDBRANCH 38 42
ENDBRANCH 18 38
ENDBRANCH 17 21
ENDBRANCH 1 17
TORSDOF 18
ENDMDL
MODEL 90
REMARK VINA RESULT:      -6.5     34.325     40.869
ROOT
ATOM      1  C1  IDS C   1     136.603  39.419  70.8800  0.00  0.00     0.000 C
ATOM      2  C2  IDS C   1     137.480  38.287  71.4240  0.00  0.00     0.000 C
ATOM      3  C3  IDS C   1     137.068  36.949  70.8280  0.00  0.00     0.000 C
ATOM      4  C4  IDS C   1     135.609  36.649  71.1420  0.00  0.00     0.000 C
ATOM      5  C5  IDS C   1     134.778  37.924  71.0390  0.00  0.00     0.000 C
ATOM      6  O5  IDS C   1     135.455  38.887  70.2320  0.00  0.00     0.000 O
ATOM      7   O  IDS C   1     137.905  35.907  71.3490  0.00  0.00     0.000 O
ATOM      9  HD  IDS C   1     138.707  36.223  71.4410  0.00  0.00     0.000 HD
ENDROOT
BRANCH 2 9
ATOM      9   O  IDS C   1     138.902  38.510  71.0790  0.00  0.00     0.000 O
ATOM     10   S  IDS C   1     139.997  38.529  72.2380  0.00  0.00     0.000 S
ATOM     11   O  IDS C   1     141.266  38.751  71.5810  0.00  0.00     0.000 OA
ATOM     12   O  IDS C   1     139.617  39.617  73.1150  0.00  0.00     0.000 OA
ATOM     13   O  IDS C   1     139.916  37.234  72.8780  0.00  0.00     0.000 OA
ENDBRANCH 2 9
BRANCH 5 14
ATOM     14   C  IDS C   1     133.407  37.668  70.4360  0.00  0.00     0.000 C
ATOM     15   O  IDS C   1     132.977  36.541  70.3960  0.00  0.00     0.000 OA
ATOM     16   O  IDS C   1     132.756  38.600  69.9960  0.00  0.00     0.000 OA
ENDBRANCH 5 14
BRANCH 1 17
ATOM     17  O4  SGN C   2     137.094  40.603  70.5040  0.00  0.00     0.000 O
BRANCH 17 21
ATOM     18  C1  SGN C   2     138.774  43.268  67.7480  0.00  0.00     0.000 C
ATOM     19  C2  SGN C   2     138.260  41.936  67.1890  0.00  0.00     0.000 C
ATOM     20  C3  SGN C   2     137.317  41.276  68.2030  0.00  0.00     0.000 C
ATOM     21  C4  SGN C   2     138.005  41.156  69.5580  0.00  0.00     0.000 C
ATOM     22  C5  SGN C   2     138.464  42.540  70.0070  0.00  0.00     0.000 C
ATOM     23  O5  SGN C   2     139.361  43.102  69.0210  0.00  0.00     0.000 O
ATOM     24   O  SGN C   2     136.909  40.005  67.7260  0.00  0.00     0.000 O
ATOM     26  HD  SGN C   2     136.814  40.780  68.1000  0.00  0.00     0.000 HD
BRANCH 19 28
ATOM     26   N  SGN C   2     138.167  42.236  65.7530  0.00  0.00     0.000 N
ATOM     28  HD  SGN C   2     138.882  42.655  66.0050  0.00  0.00     0.000 HD
ATOM     28   O  SGN C   2     137.514  41.513  63.4570  0.00  0.00     0.000 OA
ATOM     29   S  SGN C   2     138.489  41.137  64.6240  0.00  0.00     0.000 S
ATOM     30   O  SGN C   2     139.816  41.349  64.1900  0.00  0.00     0.000 OA
ATOM     31   O  SGN C   2     138.112  39.866  65.1380  0.00  0.00     0.000 OA
ENDBRANCH 19 28
BRANCH 22 32
ATOM     32   C  SGN C   2     139.213  42.525  71.3180  0.00  0.00     0.000 C
ATOM     33   S  SGN C   2     141.549  43.129  72.2230  0.00  0.00     0.000 S
ATOM     34   O  SGN C   2     142.144  41.933  71.6800  0.00  0.00     0.000 OA
ATOM     35   O  SGN C   2     142.399  44.298  72.1220  0.00  0.00     0.000 OA
ATOM     36   O  SGN C   2     140.964  42.955  73.5320  0.00  0.00     0.000 OA
ATOM     37   O  SGN C   2     140.319  43.433  71.2510  0.00  0.00     0.000 O
ENDBRANCH 22 32
BRANCH 18 38
ATOM     38  O4  IDS C   3     138.177  44.460  67.8190  0.00  0.00     0.000 O
BRANCH 38 42
ATOM     39  C1  IDS C   3     137.063  47.705  67.2200  0.00  0.00     0.000 C
ATOM     40  C2  IDS C   3     137.484  47.260  68.6300  0.00  0.00     0.000 C
ATOM     41  C3  IDS C   3     136.760  45.979  69.0440  0.00  0.00     0.000 C
ATOM     42  C4  IDS C   3     136.830  44.927  67.9460  0.00  0.00     0.000 C
ATOM     43  C5  IDS C   3     136.358  45.531  66.6180  0.00  0.00     0.000 C
ATOM     44  O5  IDS C   3     137.189  46.643  66.2890  0.00  0.00     0.000 O
ATOM     45   O  IDS C   3     135.395  46.281  69.3380  0.00  0.00     0.000 O
ATOM     47  HD  IDS C   3     134.746  46.659  68.9070  0.00  0.00     0.000 HD
BRANCH 40 47
ATOM     47   O  IDS C   3     138.939  46.983  68.6750  0.00  0.00     0.000 O
ATOM     48   S  IDS C   3     139.962  48.160  69.0300  0.00  0.00     0.000 S
ATOM     49   O  IDS C   3     140.078  48.961  67.8300  0.00  0.00     0.000 OA
ATOM     50   O  IDS C   3     141.201  47.497  69.3730  0.00  0.00     0.000 OA
ATOM     51   O  IDS C   3     139.384  48.884  70.1300  0.00  0.00     0.000 OA
ENDBRANCH 40 47
BRANCH 43 52
ATOM     52   C  IDS C   3     136.374  44.533  65.4820  0.00  0.00     0.000 C
ATOM     53   O  IDS C   3     135.589  43.612  65.4770  0.00  0.00     0.000 OA
ATOM     54   O  IDS C   3     137.169  44.660  64.5850  0.00  0.00     0.000 OA
ENDBRANCH 43 52
BRANCH 39 55
ATOM     55  O4  SGN C   4     136.034  48.518  66.9790  0.00  0.00     0.000 O
BRANCH 55 59
ATOM     56  C1  SGN C   4     136.584  51.234  63.8440  0.00  0.00     0.000 C
ATOM     57  C2  SGN C   4     137.068  51.681  65.2340  0.00  0.00     0.000 C
ATOM     58  C3  SGN C   4     137.177  50.488  66.1790  0.00  0.00     0.000 C
ATOM     59  C4  SGN C   4     135.883  49.681  66.1770  0.00  0.00     0.000 C
ATOM     60  C5  SGN C   4     135.554  49.284  64.7400  0.00  0.00     0.000 C
ATOM     61  O5  SGN C   4     135.383  50.488  63.9660  0.00  0.00     0.000 O
ATOM     62   O  SGN C   4     137.481  50.945  67.4900  0.00  0.00     0.000 O
ATOM     64  HD  SGN C   4     137.822  51.545  66.9670  0.00  0.00     0.000 HD
BRANCH 57 66
ATOM     64   N  SGN C   4     137.058  53.097  64.8320  0.00  0.00     0.000 N
ATOM     66  HD  SGN C   4     137.208  53.858  65.2180  0.00  0.00     0.000 HD
ATOM     66   S  SGN C   4     138.334  54.021  65.0850  0.00  0.00     0.000 S
ATOM     67   O  SGN C   4     138.003  55.330  64.6540  0.00  0.00     0.000 OA
ATOM     68   O  SGN C   4     138.740  53.811  66.4320  0.00  0.00     0.000 OA
ATOM     69   O  SGN C   4     139.421  53.422  64.1360  0.00  0.00     0.000 OA
ENDBRANCH 57 66
BRANCH 60 70
ATOM     70   C  SGN C   4     134.288  48.466  64.6070  0.00  0.00     0.000 C
ATOM     71   O  SGN C   4     132.873  46.996  61.4540  0.00  0.00     0.000 OA
ATOM     72   O  SGN C   4     134.123  45.855  63.1810  0.00  0.00     0.000 OA
ATOM     73   O  SGN C   4     133.964  48.258  63.2190  0.00  0.00     0.000 O
ATOM     74   S  SGN C   4     133.186  46.908  62.8610  0.00  0.00     0.000 S
ATOM     75   O  SGN C   4     132.016  46.918  63.7160  0.00  0.00     0.000 OA
ENDBRANCH 60 70
BRANCH 56 76
ATOM     76  O4  IDS C   5     137.174  50.869  62.6910  0.00  0.00     0.000 O
BRANCH 76 80
ATOM     77  C1  IDS C   5     139.702  49.270  59.9130  0.00  0.00     0.000 C
ATOM     78  C2  IDS C   5     140.400  49.913  61.1110  0.00  0.00     0.000 C
ATOM     79  C3  IDS C   5     139.419  50.069  62.2560  0.00  0.00     0.000 C
ATOM     80  C4  IDS C   5     138.331  51.064  61.8630  0.00  0.00     0.000 C
ATOM     81  C5  IDS C   5     137.971  50.866  60.3830  0.00  0.00     0.000 C
ATOM     82  O5  IDS C   5     138.301  49.541  59.9590  0.00  0.00     0.000 O
BRANCH 78 83
ATOM     83   O  IDS C   5     141.528  49.070  61.5730  0.00  0.00     0.000 O
ATOM     84   S  IDS C   5     142.361  49.499  62.8640  0.00  0.00     0.000 S
ATOM     85   O  IDS C   5     142.691  50.887  62.6790  0.00  0.00     0.000 OA
ATOM     86   O  IDS C   5     141.474  49.271  63.9810  0.00  0.00     0.000 OA
ATOM     87   O  IDS C   5     143.518  48.637  62.8880  0.00  0.00     0.000 OA
ENDBRANCH 78 83
BRANCH 81 88
ATOM     88   C  IDS C   5     136.503  51.095  60.0710  0.00  0.00     0.000 C
ATOM     89   O  IDS C   5     136.062  52.213  60.0490  0.00  0.00     0.000 OA
ATOM     90   O  IDS C   5     135.785  50.148  59.8450  0.00  0.00     0.000 OA
ENDBRANCH 81 88
ENDBRANCH 76 80
ENDBRANCH 56 76
ENDBRANCH 55 59
ENDBRANCH 39 55
ENDBRANCH 38 42
ENDBRANCH 18 38
ENDBRANCH 17 21
ENDBRANCH 1 17
TORSDOF 18
ENDMDL
MODEL 91
REMARK VINA RESULT:      -6.4     30.339     37.430
ROOT
ATOM      1  C1  IDS C   1     129.184  40.200  45.7100  0.00  0.00     0.000 C
ATOM      2  C2  IDS C   1     127.771  40.479  46.2300  0.00  0.00     0.000 C
ATOM      3  C3  IDS C   1     127.211  41.753  45.6150  0.00  0.00     0.000 C
ATOM      4  C4  IDS C   1     128.107  42.942  45.9330  0.00  0.00     0.000 C
ATOM      5  C5  IDS C   1     129.573  42.528  45.8570  0.00  0.00     0.000 C
ATOM      6  O5  IDS C   1     129.710  41.351  45.0610  0.00  0.00     0.000 O
ATOM      7   O  IDS C   1     125.887  41.991  46.1130  0.00  0.00     0.000 O
ATOM      9  HD  IDS C   1     125.490  41.227  46.2050  0.00  0.00     0.000 HD
ENDROOT
BRANCH 2 9
ATOM      9   O  IDS C   1     126.853  39.373  45.8780  0.00  0.00     0.000 O
ATOM     10   S  IDS C   1     126.067  38.608  47.0370  0.00  0.00     0.000 S
ATOM     11   O  IDS C   1     125.257  37.611  46.3750  0.00  0.00     0.000 OA
ATOM     12   O  IDS C   1     127.089  38.032  47.8860  0.00  0.00     0.000 OA
ATOM     13   O  IDS C   1     125.277  39.616  47.7090  0.00  0.00     0.000 OA
ENDBRANCH 2 9
BRANCH 5 14
ATOM     14   C  IDS C   1     130.446  43.618  45.2580  0.00  0.00     0.000 C
ATOM     15   O  IDS C   1     131.646  43.487  45.2630  0.00  0.00     0.000 OA
ATOM     16   O  IDS C   1     129.929  44.614  44.7820  0.00  0.00     0.000 OA
ENDBRANCH 5 14
BRANCH 1 17
ATOM     17  O4  SGN C   2     129.600  38.983  45.3500  0.00  0.00     0.000 O
BRANCH 17 21
ATOM     18  C1  SGN C   2     130.306  35.955  42.5450  0.00  0.00     0.000 C
ATOM     19  C2  SGN C   2     129.860  37.315  41.9910  0.00  0.00     0.000 C
ATOM     20  C3  SGN C   2     130.055  38.399  43.0580  0.00  0.00     0.000 C
ATOM     21  C4  SGN C   2     129.354  37.997  44.3500  0.00  0.00     0.000 C
ATOM     22  C5  SGN C   2     129.883  36.638  44.8010  0.00  0.00     0.000 C
ATOM     23  O5  SGN C   2     129.656  35.657  43.7630  0.00  0.00     0.000 O
ATOM     24   O  SGN C   2     129.563  39.640  42.5790  0.00  0.00     0.000 O
ATOM     26  HD  SGN C   2     130.115  39.107  42.9810  0.00  0.00     0.000 HD
BRANCH 19 28
ATOM     26   N  SGN C   2     130.277  37.208  40.5860  0.00  0.00     0.000 N
ATOM     28  HD  SGN C   2     130.058  36.397  40.7980  0.00  0.00     0.000 HD
ATOM     28   O  SGN C   2     130.433  38.238  38.3200  0.00  0.00     0.000 OA
ATOM     29   S  SGN C   2     129.378  37.771  39.3780  0.00  0.00     0.000 S
ATOM     30   O  SGN C   2     128.653  36.683  38.8440  0.00  0.00     0.000 OA
ATOM     31   O  SGN C   2     128.679  38.914  39.8560  0.00  0.00     0.000 OA
ENDBRANCH 19 28
BRANCH 22 32
ATOM     32   C  SGN C   2     129.209  36.117  46.0470  0.00  0.00     0.000 C
ATOM     33   S  SGN C   2     129.798  34.710  48.1250  0.00  0.00     0.000 S
ATOM     34   O  SGN C   2     129.753  33.474  47.3850  0.00  0.00     0.000 OA
ATOM     35   O  SGN C   2     130.859  34.760  49.1090  0.00  0.00     0.000 OA
ATOM     36   O  SGN C   2     128.517  35.136  48.6370  0.00  0.00     0.000 OA
ATOM     37   O  SGN C   2     130.199  35.806  47.0350  0.00  0.00     0.000 O
ENDBRANCH 22 32
BRANCH 18 38
ATOM     38  O4  IDS C   3     131.530  35.447  42.6970  0.00  0.00     0.000 O
BRANCH 38 42
ATOM     39  C1  IDS C   3     134.482  33.610  42.9050  0.00  0.00     0.000 C
ATOM     40  C2  IDS C   3     133.438  33.561  44.0320  0.00  0.00     0.000 C
ATOM     41  C3  IDS C   3     133.061  34.967  44.4980  0.00  0.00     0.000 C
ATOM     42  C4  IDS C   3     132.749  35.874  43.3150  0.00  0.00     0.000 C
ATOM     43  C5  IDS C   3     133.897  35.818  42.3000  0.00  0.00     0.000 C
ATOM     44  O5  IDS C   3     134.066  34.472  41.8590  0.00  0.00     0.000 O
ATOM     45   O  IDS C   3     134.139  35.519  45.2560  0.00  0.00     0.000 O
ATOM     47  HD  IDS C   3     134.983  35.654  45.1130  0.00  0.00     0.000 HD
BRANCH 40 47
ATOM     47   O  IDS C   3     132.196  32.900  43.5640  0.00  0.00     0.000 O
ATOM     48   S  IDS C   3     131.784  31.472  44.1530  0.00  0.00     0.000 S
ATOM     49   O  IDS C   3     132.635  30.508  43.4890  0.00  0.00     0.000 OA
ATOM     50   O  IDS C   3     130.389  31.307  43.8110  0.00  0.00     0.000 OA
ATOM     51   O  IDS C   3     132.015  31.536  45.5720  0.00  0.00     0.000 OA
ENDBRANCH 40 47
BRANCH 43 52
ATOM     52   C  IDS C   3     133.669  36.719  41.1070  0.00  0.00     0.000 C
ATOM     53   O  IDS C   3     134.038  37.870  41.1410  0.00  0.00     0.000 OA
ATOM     54   O  IDS C   3     133.119  36.284  40.1270  0.00  0.00     0.000 OA
ENDBRANCH 43 52
BRANCH 39 55
ATOM     55  O4  SGN C   4     135.798  33.609  43.1160  0.00  0.00     0.000 O
BRANCH 55 59
ATOM     56  C1  SGN C   4     139.577  32.229  41.9680  0.00  0.00     0.000 C
ATOM     57  C2  SGN C   4     138.447  32.078  40.9350  0.00  0.00     0.000 C
ATOM     58  C3  SGN C   4     137.253  32.954  41.3060  0.00  0.00     0.000 C
ATOM     59  C4  SGN C   4     136.839  32.714  42.7530  0.00  0.00     0.000 C
ATOM     60  C5  SGN C   4     138.053  32.933  43.6540  0.00  0.00     0.000 C
ATOM     61  O5  SGN C   4     139.076  31.992  43.2730  0.00  0.00     0.000 O
ATOM     62   O  SGN C   4     136.172  32.685  40.4240  0.00  0.00     0.000 O
ATOM     64  HD  SGN C   4     136.881  32.508  39.9590  0.00  0.00     0.000 HD
BRANCH 57 66
ATOM     64   N  SGN C   4     138.941  30.947  40.1330  0.00  0.00     0.000 N
ATOM     66  HD  SGN C   4     138.747  30.591  39.3680  0.00  0.00     0.000 HD
ATOM     66   S  SGN C   4     139.398  31.163  38.6200  0.00  0.00     0.000 S
ATOM     67   O  SGN C   4     139.760  29.895  38.1000  0.00  0.00     0.000 OA
ATOM     68   O  SGN C   4     138.375  31.916  37.9800  0.00  0.00     0.000 OA
ATOM     69   O  SGN C   4     140.674  32.056  38.7420  0.00  0.00     0.000 OA
ENDBRANCH 57 66
BRANCH 60 70
ATOM     70   C  SGN C   4     137.765  32.732  45.1260  0.00  0.00     0.000 C
ATOM     71   O  SGN C   4     136.733  29.536  46.8070  0.00  0.00     0.000 OA
ATOM     72   O  SGN C   4     138.931  30.542  46.7770  0.00  0.00     0.000 OA
ATOM     73   O  SGN C   4     137.199  31.428  45.3560  0.00  0.00     0.000 O
ATOM     74   S  SGN C   4     137.502  30.758  46.7760  0.00  0.00     0.000 S
ATOM     75   O  SGN C   4     137.066  31.739  47.7500  0.00  0.00     0.000 OA
ENDBRANCH 60 70
BRANCH 56 76
ATOM     76  O4  IDS C   5     140.674  32.999  42.0870  0.00  0.00     0.000 O
BRANCH 76 80
ATOM     77  C1  IDS C   5     140.353  36.915  43.1900  0.00  0.00     0.000 C
ATOM     78  C2  IDS C   5     140.415  36.685  41.6800  0.00  0.00     0.000 C
ATOM     79  C3  IDS C   5     140.092  35.237  41.3680  0.00  0.00     0.000 C
ATOM     80  C4  IDS C   5     141.180  34.335  41.9420  0.00  0.00     0.000 C
ATOM     81  C5  IDS C   5     141.633  34.887  43.3020  0.00  0.00     0.000 C
ATOM     82  O5  IDS C   5     140.605  35.694  43.8840  0.00  0.00     0.000 O
BRANCH 78 83
ATOM     83   O  IDS C   5     139.435  37.546  40.9780  0.00  0.00     0.000 O
ATOM     84   S  IDS C   5     139.874  38.338  39.6650  0.00  0.00     0.000 S
ATOM     85   O  IDS C   5     141.114  38.991  39.9920  0.00  0.00     0.000 OA
ATOM     86   O  IDS C   5     140.016  37.328  38.6430  0.00  0.00     0.000 OA
ATOM     87   O  IDS C   5     138.801  39.261  39.3880  0.00  0.00     0.000 OA
ENDBRANCH 78 83
BRANCH 81 88
ATOM     88   C  IDS C   5     141.999  33.814  44.3110  0.00  0.00     0.000 C
ATOM     89   O  IDS C   5     143.019  33.191  44.1780  0.00  0.00     0.000 OA
ATOM     90   O  IDS C   5     141.262  33.593  45.2440  0.00  0.00     0.000 OA
ENDBRANCH 81 88
ENDBRANCH 76 80
ENDBRANCH 56 76
ENDBRANCH 55 59
ENDBRANCH 39 55
ENDBRANCH 38 42
ENDBRANCH 18 38
ENDBRANCH 17 21
ENDBRANCH 1 17
TORSDOF 18
ENDMDL
MODEL 92
REMARK VINA RESULT:      -6.4     22.740     28.973
ROOT
ATOM      1  C1  IDS C   1     164.530  20.705  80.8760  0.00  0.00     0.000 C
ATOM      2  C2  IDS C   1     165.209  20.555  79.5110  0.00  0.00     0.000 C
ATOM      3  C3  IDS C   1     165.692  21.903  78.9970  0.00  0.00     0.000 C
ATOM      4  C4  IDS C   1     164.531  22.880  78.8760  0.00  0.00     0.000 C
ATOM      5  C5  IDS C   1     163.575  22.705  80.0520  0.00  0.00     0.000 C
ATOM      6  O5  IDS C   1     164.248  22.073  81.1410  0.00  0.00     0.000 O
ATOM      7   O  IDS C   1     166.327  21.736  77.7210  0.00  0.00     0.000 O
ATOM      9  HD  IDS C   1     166.758  20.985  77.7280  0.00  0.00     0.000 HD
ENDROOT
BRANCH 2 9
ATOM      9   O  IDS C   1     166.387  19.664  79.6040  0.00  0.00     0.000 O
ATOM     10   S  IDS C   1     166.488  18.396  78.6420  0.00  0.00     0.000 S
ATOM     11   O  IDS C   1     167.741  17.751  78.9660  0.00  0.00     0.000 OA
ATOM     12   O  IDS C   1     165.335  17.577  78.9540  0.00  0.00     0.000 OA
ATOM     13   O  IDS C   1     166.459  18.919  77.2940  0.00  0.00     0.000 OA
ENDBRANCH 2 9
BRANCH 5 14
ATOM     14   C  IDS C   1     163.015  24.032  80.5370  0.00  0.00     0.000 C
ATOM     15   O  IDS C   1     161.937  24.402  80.1400  0.00  0.00     0.000 OA
ATOM     16   O  IDS C   1     163.658  24.711  81.3190  0.00  0.00     0.000 OA
ENDBRANCH 5 14
BRANCH 1 17
ATOM     17  O4  SGN C   2     164.737  19.858  81.8880  0.00  0.00     0.000 O
BRANCH 17 21
ATOM     18  C1  SGN C   2     165.934  18.784  85.7530  0.00  0.00     0.000 C
ATOM     19  C2  SGN C   2     165.721  20.280  85.4910  0.00  0.00     0.000 C
ATOM     20  C3  SGN C   2     164.897  20.471  84.2110  0.00  0.00     0.000 C
ATOM     21  C4  SGN C   2     165.548  19.725  83.0520  0.00  0.00     0.000 C
ATOM     22  C5  SGN C   2     165.702  18.255  83.4290  0.00  0.00     0.000 C
ATOM     23  O5  SGN C   2     166.499  18.139  84.6310  0.00  0.00     0.000 O
ATOM     24   O  SGN C   2     164.773  21.853  83.9200  0.00  0.00     0.000 O
ATOM     26  HD  SGN C   2     164.509  21.032  84.0000  0.00  0.00     0.000 HD
BRANCH 19 28
ATOM     26   N  SGN C   2     165.556  20.796  86.8570  0.00  0.00     0.000 N
ATOM     28  HD  SGN C   2     166.092  20.123  86.9540  0.00  0.00     0.000 HD
ATOM     28   O  SGN C   2     165.205  22.740  88.3790  0.00  0.00     0.000 OA
ATOM     29   S  SGN C   2     166.232  22.171  87.3440  0.00  0.00     0.000 S
ATOM     30   O  SGN C   2     167.425  21.841  88.0250  0.00  0.00     0.000 OA
ATOM     31   O  SGN C   2     166.281  23.047  86.2250  0.00  0.00     0.000 OA
ENDBRANCH 19 28
BRANCH 22 32
ATOM     32   C  SGN C   2     166.392  17.434  82.3680  0.00  0.00     0.000 C
ATOM     33   S  SGN C   2     168.508  15.985  82.1090  0.00  0.00     0.000 S
ATOM     34   O  SGN C   2     169.369  17.138  82.0110  0.00  0.00     0.000 OA
ATOM     35   O  SGN C   2     169.083  14.894  82.8690  0.00  0.00     0.000 OA
ATOM     36   O  SGN C   2     167.934  15.570  80.8510  0.00  0.00     0.000 OA
ATOM     37   O  SGN C   2     167.274  16.489  82.9870  0.00  0.00     0.000 O
ENDBRANCH 22 32
BRANCH 18 38
ATOM     38  O4  IDS C   3     165.106  17.873  86.2680  0.00  0.00     0.000 O
BRANCH 38 42
ATOM     39  C1  IDS C   3     162.520  16.212  87.9050  0.00  0.00     0.000 C
ATOM     40  C2  IDS C   3     163.304  17.337  88.6000  0.00  0.00     0.000 C
ATOM     41  C3  IDS C   3     164.810  17.087  88.5290  0.00  0.00     0.000 C
ATOM     42  C4  IDS C   3     165.241  16.726  87.1140  0.00  0.00     0.000 C
ATOM     43  C5  IDS C   3     164.373  15.579  86.5830  0.00  0.00     0.000 C
ATOM     44  O5  IDS C   3     163.006  15.985  86.5930  0.00  0.00     0.000 O
ATOM     45   O  IDS C   3     165.157  16.029  89.4240  0.00  0.00     0.000 O
ATOM     47  HD  IDS C   3     164.897  15.210  89.5340  0.00  0.00     0.000 HD
BRANCH 40 47
ATOM     47   O  IDS C   3     163.037  18.639  87.9440  0.00  0.00     0.000 O
ATOM     48   S  IDS C   3     162.319  19.810  88.7620  0.00  0.00     0.000 S
ATOM     49   O  IDS C   3     160.915  19.462  88.8050  0.00  0.00     0.000 OA
ATOM     50   O  IDS C   3     162.566  21.014  88.0000  0.00  0.00     0.000 OA
ATOM     51   O  IDS C   3     162.928  19.829  90.0650  0.00  0.00     0.000 OA
ENDBRANCH 40 47
BRANCH 43 52
ATOM     52   C  IDS C   3     164.764  15.145  85.1880  0.00  0.00     0.000 C
ATOM     53   O  IDS C   3     165.806  14.557  85.0090  0.00  0.00     0.000 OA
ATOM     54   O  IDS C   3     164.035  15.389  84.2600  0.00  0.00     0.000 OA
ENDBRANCH 43 52
BRANCH 39 55
ATOM     55  O4  SGN C   4     162.102  15.110  88.5280  0.00  0.00     0.000 O
BRANCH 55 59
ATOM     56  C1  SGN C   4     157.937  14.717  88.5730  0.00  0.00     0.000 C
ATOM     57  C2  SGN C   4     158.622  14.934  89.9330  0.00  0.00     0.000 C
ATOM     58  C3  SGN C   4     160.047  15.449  89.7460  0.00  0.00     0.000 C
ATOM     59  C4  SGN C   4     160.815  14.561  88.7730  0.00  0.00     0.000 C
ATOM     60  C5  SGN C   4     160.030  14.470  87.4660  0.00  0.00     0.000 C
ATOM     61  O5  SGN C   4     158.743  13.887  87.7510  0.00  0.00     0.000 O
ATOM     62   O  SGN C   4     160.704  15.499  91.0050  0.00  0.00     0.000 O
ATOM     64  HD  SGN C   4     159.866  15.608  91.1940  0.00  0.00     0.000 HD
BRANCH 57 66
ATOM     64   N  SGN C   4     157.392  14.461  90.5880  0.00  0.00     0.000 N
ATOM     66  HD  SGN C   4     157.158  14.236  91.3910  0.00  0.00     0.000 HD
ATOM     66   S  SGN C   4     156.812  15.218  91.8680  0.00  0.00     0.000 S
ATOM     67   O  SGN C   4     155.670  14.500  92.3040  0.00  0.00     0.000 OA
ATOM     68   O  SGN C   4     157.899  15.413  92.7640  0.00  0.00     0.000 OA
ATOM     69   O  SGN C   4     156.368  16.607  91.3080  0.00  0.00     0.000 OA
ENDBRANCH 57 66
BRANCH 60 70
ATOM     70   C  SGN C   4     160.699  13.619  86.4100  0.00  0.00     0.000 C
ATOM     71   O  SGN C   4     160.499   9.884  86.0630  0.00  0.00     0.000 OA
ATOM     72   O  SGN C   4     159.294  11.550  84.7890  0.00  0.00     0.000 OA
ATOM     73   O  SGN C   4     160.560  12.220  86.7260  0.00  0.00     0.000 O
ATOM     74   S  SGN C   4     160.513  11.210  85.4880  0.00  0.00     0.000 S
ATOM     75   O  SGN C   4     161.713  11.497  84.7280  0.00  0.00     0.000 OA
ENDBRANCH 60 70
BRANCH 56 76
ATOM     76  O4  IDS C   5     157.151  15.451  87.7630  0.00  0.00     0.000 O
BRANCH 76 80
ATOM     77  C1  IDS C   5     156.960  19.190  86.1390  0.00  0.00     0.000 C
ATOM     78  C2  IDS C   5     156.740  19.143  87.6510  0.00  0.00     0.000 C
ATOM     79  C3  IDS C   5     157.255  17.830  88.2050  0.00  0.00     0.000 C
ATOM     80  C4  IDS C   5     156.417  16.679  87.6560  0.00  0.00     0.000 C
ATOM     81  C5  IDS C   5     156.060  16.965  86.1900  0.00  0.00     0.000 C
ATOM     82  O5  IDS C   5     157.007  17.866  85.6080  0.00  0.00     0.000 O
BRANCH 78 83
ATOM     83   O  IDS C   5     157.463  20.250  88.3200  0.00  0.00     0.000 O
ATOM     84   S  IDS C   5     156.641  21.431  89.0100  0.00  0.00     0.000 S
ATOM     85   O  IDS C   5     155.668  21.855  88.0400  0.00  0.00     0.000 OA
ATOM     86   O  IDS C   5     156.049  20.841  90.1880  0.00  0.00     0.000 OA
ATOM     87   O  IDS C   5     157.612  22.449  89.3260  0.00  0.00     0.000 OA
ENDBRANCH 78 83
BRANCH 81 88
ATOM     88   C  IDS C   5     156.012  15.725  85.3160  0.00  0.00     0.000 C
ATOM     89   O  IDS C   5     155.035  15.025  85.3220  0.00  0.00     0.000 OA
ATOM     90   O  IDS C   5     156.959  15.449  84.6150  0.00  0.00     0.000 OA
ENDBRANCH 81 88
ENDBRANCH 76 80
ENDBRANCH 56 76
ENDBRANCH 55 59
ENDBRANCH 39 55
ENDBRANCH 38 42
ENDBRANCH 18 38
ENDBRANCH 17 21
ENDBRANCH 1 17
TORSDOF 18
ENDMDL
MODEL 93
REMARK VINA RESULT:      -6.4     25.223     32.694
ROOT
ATOM      1  C1  IDS C   1     157.387  34.000  77.5490  0.00  0.00     0.000 C
ATOM      2  C2  IDS C   1     158.068  33.949  78.9200  0.00  0.00     0.000 C
ATOM      3  C3  IDS C   1     159.486  33.409  78.7990  0.00  0.00     0.000 C
ATOM      4  C4  IDS C   1     159.479  32.014  78.1900  0.00  0.00     0.000 C
ATOM      5  C5  IDS C   1     158.436  31.933  77.0800  0.00  0.00     0.000 C
ATOM      6  O5  IDS C   1     158.126  33.241  76.6000  0.00  0.00     0.000 O
ATOM      7   O  IDS C   1     160.103  33.375  80.0940  0.00  0.00     0.000 O
ATOM      9  HD  IDS C   1     159.835  34.066  80.5420  0.00  0.00     0.000 HD
ENDROOT
BRANCH 2 9
ATOM      9   O  IDS C   1     158.155  35.301  79.5160  0.00  0.00     0.000 O
ATOM     10   S  IDS C   1     157.566  35.553  80.9760  0.00  0.00     0.000 S
ATOM     11   O  IDS C   1     157.815  36.947  81.2690  0.00  0.00     0.000 OA
ATOM     12   O  IDS C   1     156.155  35.238  80.8880  0.00  0.00     0.000 OA
ATOM     13   O  IDS C   1     158.289  34.658  81.8530  0.00  0.00     0.000 OA
ENDBRANCH 2 9
BRANCH 5 14
ATOM     14   C  IDS C   1     158.909  31.090  75.9080  0.00  0.00     0.000 C
ATOM     15   O  IDS C   1     158.934  29.888  76.0130  0.00  0.00     0.000 OA
ATOM     16   O  IDS C   1     159.262  31.633  74.8750  0.00  0.00     0.000 OA
ENDBRANCH 5 14
BRANCH 1 17
ATOM     17  O4  SGN C   2     156.644  35.033  77.1430  0.00  0.00     0.000 O
BRANCH 17 21
ATOM     18  C1  SGN C   2     155.954  38.808  75.4710  0.00  0.00     0.000 C
ATOM     19  C2  SGN C   2     157.305  38.154  75.1550  0.00  0.00     0.000 C
ATOM     20  C3  SGN C   2     157.240  36.653  75.4640  0.00  0.00     0.000 C
ATOM     21  C4  SGN C   2     156.763  36.432  76.8940  0.00  0.00     0.000 C
ATOM     22  C5  SGN C   2     155.415  37.122  77.0830  0.00  0.00     0.000 C
ATOM     23  O5  SGN C   2     155.544  38.533  76.7940  0.00  0.00     0.000 O
ATOM     24   O  SGN C   2     158.511  36.062  75.2550  0.00  0.00     0.000 O
ATOM     26  HD  SGN C   2     157.648  36.121  75.2200  0.00  0.00     0.000 HD
BRANCH 19 28
ATOM     26   N  SGN C   2     157.710  38.886  73.9470  0.00  0.00     0.000 N
ATOM     28  HD  SGN C   2     157.224  39.457  74.3800  0.00  0.00     0.000 HD
ATOM     28   O  SGN C   2     159.420  39.318  72.1830  0.00  0.00     0.000 OA
ATOM     29   S  SGN C   2     159.210  39.424  73.7310  0.00  0.00     0.000 S
ATOM     30   O  SGN C   2     159.229  40.788  74.0970  0.00  0.00     0.000 OA
ATOM     31   O  SGN C   2     160.092  38.512  74.3720  0.00  0.00     0.000 OA
ENDBRANCH 19 28
BRANCH 22 32
ATOM     32   C  SGN C   2     154.878  37.013  78.4890  0.00  0.00     0.000 C
ATOM     33   S  SGN C   2     153.916  38.548  80.3210  0.00  0.00     0.000 S
ATOM     34   O  SGN C   2     155.219  39.050  80.6810  0.00  0.00     0.000 OA
ATOM     35   O  SGN C   2     152.877  39.557  80.3490  0.00  0.00     0.000 OA
ATOM     36   O  SGN C   2     153.548  37.326  80.9960  0.00  0.00     0.000 OA
ATOM     37   O  SGN C   2     154.059  38.151  78.7820  0.00  0.00     0.000 O
ENDBRANCH 22 32
BRANCH 18 38
ATOM     38  O4  IDS C   3     154.816  38.815  74.7730  0.00  0.00     0.000 O
BRANCH 38 42
ATOM     39  C1  IDS C   3     152.399  39.439  72.3450  0.00  0.00     0.000 C
ATOM     40  C2  IDS C   3     153.294  40.569  72.8800  0.00  0.00     0.000 C
ATOM     41  C3  IDS C   3     153.262  40.622  74.4070  0.00  0.00     0.000 C
ATOM     42  C4  IDS C   3     153.470  39.240  75.0120  0.00  0.00     0.000 C
ATOM     43  C5  IDS C   3     152.487  38.245  74.3820  0.00  0.00     0.000 C
ATOM     44  O5  IDS C   3     152.703  38.205  72.9720  0.00  0.00     0.000 O
ATOM     45   O  IDS C   3     152.006  41.152  74.8360  0.00  0.00     0.000 O
ATOM     47  HD  IDS C   3     151.176  40.946  74.6980  0.00  0.00     0.000 HD
BRANCH 40 47
ATOM     47   O  IDS C   3     154.703  40.354  72.4720  0.00  0.00     0.000 O
ATOM     48   S  IDS C   3     155.428  41.421  71.5270  0.00  0.00     0.000 S
ATOM     49   O  IDS C   3     154.928  41.174  70.1920  0.00  0.00     0.000 OA
ATOM     50   O  IDS C   3     156.842  41.138  71.6490  0.00  0.00     0.000 OA
ATOM     51   O  IDS C   3     155.066  42.720  72.0270  0.00  0.00     0.000 OA
ENDBRANCH 40 47
BRANCH 43 52
ATOM     52   C  IDS C   3     152.617  36.852  74.9560  0.00  0.00     0.000 C
ATOM     53   O  IDS C   3     153.187  35.991  74.3250  0.00  0.00     0.000 OA
ATOM     54   O  IDS C   3     152.152  36.606  76.0400  0.00  0.00     0.000 OA
ENDBRANCH 43 52
BRANCH 39 55
ATOM     55  O4  SGN C   4     151.108  39.596  72.0510  0.00  0.00     0.000 O
BRANCH 55 59
ATOM     56  C1  SGN C   4     148.015  40.339  69.3340  0.00  0.00     0.000 C
ATOM     57  C2  SGN C   4     148.329  38.863  69.6310  0.00  0.00     0.000 C
ATOM     58  C3  SGN C   4     149.173  38.733  70.8960  0.00  0.00     0.000 C
ATOM     59  C4  SGN C   4     150.390  39.649  70.8270  0.00  0.00     0.000 C
ATOM     60  C5  SGN C   4     149.916  41.076  70.5620  0.00  0.00     0.000 C
ATOM     61  O5  SGN C   4     149.216  41.094  69.3020  0.00  0.00     0.000 O
ATOM     62   O  SGN C   4     149.573  37.380  71.0650  0.00  0.00     0.000 O
ATOM     64  HD  SGN C   4     148.824  37.332  70.6310  0.00  0.00     0.000 HD
BRANCH 57 66
ATOM     64   N  SGN C   4     147.988  37.529  69.1110  0.00  0.00     0.000 N
ATOM     66  HD  SGN C   4     147.343  36.962  69.2200  0.00  0.00     0.000 HD
ATOM     66   S  SGN C   4     146.569  37.262  68.4310  0.00  0.00     0.000 S
ATOM     67   O  SGN C   4     146.513  35.887  68.0910  0.00  0.00     0.000 OA
ATOM     68   O  SGN C   4     145.583  37.809  69.2980  0.00  0.00     0.000 OA
ATOM     69   O  SGN C   4     146.616  38.118  67.1250  0.00  0.00     0.000 OA
ENDBRANCH 57 66
BRANCH 60 70
ATOM     70   C  SGN C   4     151.039  42.087  70.4800  0.00  0.00     0.000 C
ATOM     71   O  SGN C   4     152.346  43.763  67.3830  0.00  0.00     0.000 OA
ATOM     72   O  SGN C   4     150.849  44.690  69.0410  0.00  0.00     0.000 OA
ATOM     73   O  SGN C   4     151.390  42.343  69.1070  0.00  0.00     0.000 O
ATOM     74   S  SGN C   4     151.957  43.800  68.7740  0.00  0.00     0.000 S
ATOM     75   O  SGN C   4     153.072  43.980  69.6820  0.00  0.00     0.000 OA
ENDBRANCH 60 70
BRANCH 56 76
ATOM     76  O4  IDS C   5     147.010  41.186  69.6250  0.00  0.00     0.000 O
BRANCH 76 80
ATOM     77  C1  IDS C   5     144.139  43.095  71.8100  0.00  0.00     0.000 C
ATOM     78  C2  IDS C   5     144.126  41.571  71.9380  0.00  0.00     0.000 C
ATOM     79  C3  IDS C   5     145.452  41.005  71.4700  0.00  0.00     0.000 C
ATOM     80  C4  IDS C   5     145.621  41.266  69.9760  0.00  0.00     0.000 C
ATOM     81  C5  IDS C   5     145.061  42.655  69.6370  0.00  0.00     0.000 C
ATOM     82  O5  IDS C   5     145.061  43.494  70.7960  0.00  0.00     0.000 O
BRANCH 78 83
ATOM     83   O  IDS C   5     143.914  41.166  73.3470  0.00  0.00     0.000 O
ATOM     84   S  IDS C   5     142.720  40.174  73.7160  0.00  0.00     0.000 S
ATOM     85   O  IDS C   5     141.551  40.704  73.0660  0.00  0.00     0.000 OA
ATOM     86   O  IDS C   5     143.124  38.888  73.1990  0.00  0.00     0.000 OA
ATOM     87   O  IDS C   5     142.629  40.191  75.1560  0.00  0.00     0.000 OA
ENDBRANCH 78 83
BRANCH 81 88
ATOM     88   C  IDS C   5     145.830  43.380  68.5470  0.00  0.00     0.000 C
ATOM     89   O  IDS C   5     145.763  42.996  67.4100  0.00  0.00     0.000 OA
ATOM     90   O  IDS C   5     146.506  44.342  68.8310  0.00  0.00     0.000 OA
ENDBRANCH 81 88
ENDBRANCH 76 80
ENDBRANCH 56 76
ENDBRANCH 55 59
ENDBRANCH 39 55
ENDBRANCH 38 42
ENDBRANCH 18 38
ENDBRANCH 17 21
ENDBRANCH 1 17
TORSDOF 18
ENDMDL
MODEL 94
REMARK VINA RESULT:      -6.3     23.004     28.249
ROOT
ATOM      1  C1  IDS C   1     169.988  30.804  72.3330  0.00  0.00     0.000 C
ATOM      2  C2  IDS C   1     169.080  31.737  73.1390  0.00  0.00     0.000 C
ATOM      3  C3  IDS C   1     167.987  30.949  73.8470  0.00  0.00     0.000 C
ATOM      4  C4  IDS C   1     167.146  30.175  72.8410  0.00  0.00     0.000 C
ATOM      5  C5  IDS C   1     168.038  29.605  71.7430  0.00  0.00     0.000 C
ATOM      6  O5  IDS C   1     169.388  29.522  72.1990  0.00  0.00     0.000 O
ATOM      7   O  IDS C   1     167.153  31.843  74.5980  0.00  0.00     0.000 O
ATOM      9  HD  IDS C   1     167.652  32.470  74.9260  0.00  0.00     0.000 HD
ENDROOT
BRANCH 2 9
ATOM      9   O  IDS C   1     169.852  32.459  74.1760  0.00  0.00     0.000 O
ATOM     10   S  IDS C   1     169.912  34.052  74.1410  0.00  0.00     0.000 S
ATOM     11   O  IDS C   1     170.719  34.443  75.2760  0.00  0.00     0.000 OA
ATOM     12   O  IDS C   1     170.521  34.392  72.8720  0.00  0.00     0.000 OA
ATOM     13   O  IDS C   1     168.541  34.501  74.2470  0.00  0.00     0.000 OA
ENDBRANCH 2 9
BRANCH 5 14
ATOM     14   C  IDS C   1     167.592  28.220  71.3040  0.00  0.00     0.000 C
ATOM     15   O  IDS C   1     168.182  27.662  70.4120  0.00  0.00     0.000 OA
ATOM     16   O  IDS C   1     166.644  27.687  71.8550  0.00  0.00     0.000 OA
ENDBRANCH 5 14
BRANCH 1 17
ATOM     17  O4  SGN C   2     171.318  30.924  72.3130  0.00  0.00     0.000 O
BRANCH 17 21
ATOM     18  C1  SGN C   2     175.123  30.186  73.8970  0.00  0.00     0.000 C
ATOM     19  C2  SGN C   2     173.938  29.540  74.6260  0.00  0.00     0.000 C
ATOM     20  C3  SGN C   2     172.704  29.541  73.7150  0.00  0.00     0.000 C
ATOM     21  C4  SGN C   2     172.426  30.951  73.2090  0.00  0.00     0.000 C
ATOM     22  C5  SGN C   2     173.670  31.481  72.5020  0.00  0.00     0.000 C
ATOM     23  O5  SGN C   2     174.792  31.471  73.4140  0.00  0.00     0.000 O
ATOM     24   O  SGN C   2     171.586  29.024  74.4170  0.00  0.00     0.000 O
ATOM     26  HD  SGN C   2     172.119  29.133  73.7430  0.00  0.00     0.000 HD
BRANCH 19 28
ATOM     26   N  SGN C   2     174.610  28.488  75.4010  0.00  0.00     0.000 N
ATOM     28  HD  SGN C   2     175.190  29.131  75.3810  0.00  0.00     0.000 HD
ATOM     28   O  SGN C   2     174.453  26.582  77.0030  0.00  0.00     0.000 OA
ATOM     29   S  SGN C   2     174.180  28.121  76.9060  0.00  0.00     0.000 S
ATOM     30   O  SGN C   2     175.066  28.793  77.7770  0.00  0.00     0.000 OA
ATOM     31   O  SGN C   2     172.780  28.342  77.0210  0.00  0.00     0.000 OA
ENDBRANCH 19 28
BRANCH 22 32
ATOM     32   C  SGN C   2     173.521  32.900  72.0100  0.00  0.00     0.000 C
ATOM     33   S  SGN C   2     174.869  34.638  70.6680  0.00  0.00     0.000 S
ATOM     34   O  SGN C   2     175.724  34.941  71.7880  0.00  0.00     0.000 OA
ATOM     35   O  SGN C   2     175.563  34.614  69.3970  0.00  0.00     0.000 OA
ATOM     36   O  SGN C   2     173.644  35.402  70.6390  0.00  0.00     0.000 OA
ATOM     37   O  SGN C   2     174.417  33.128  70.9160  0.00  0.00     0.000 O
ENDBRANCH 22 32
BRANCH 18 38
ATOM     38  O4  IDS C   3     175.935  29.687  72.9630  0.00  0.00     0.000 O
BRANCH 38 42
ATOM     39  C1  IDS C   3     178.357  28.951  70.5710  0.00  0.00     0.000 C
ATOM     40  C2  IDS C   3     177.258  29.989  70.2920  0.00  0.00     0.000 C
ATOM     41  C3  IDS C   3     175.870  29.412  70.5680  0.00  0.00     0.000 C
ATOM     42  C4  IDS C   3     175.822  28.713  71.9200  0.00  0.00     0.000 C
ATOM     43  C5  IDS C   3     176.971  27.702  72.0220  0.00  0.00     0.000 C
ATOM     44  O5  IDS C   3     178.212  28.387  71.8640  0.00  0.00     0.000 O
ATOM     45   O  IDS C   3     175.527  28.487  69.5340  0.00  0.00     0.000 O
ATOM     47  HD  IDS C   3     175.896  27.778  69.2010  0.00  0.00     0.000 HD
BRANCH 40 47
ATOM     47   O  IDS C   3     177.429  31.175  71.1650  0.00  0.00     0.000 O
ATOM     48   S  IDS C   3     178.598  32.223  70.8620  0.00  0.00     0.000 S
ATOM     49   O  IDS C   3     179.818  31.606  71.3380  0.00  0.00     0.000 OA
ATOM     50   O  IDS C   3     178.249  33.409  71.6130  0.00  0.00     0.000 OA
ATOM     51   O  IDS C   3     178.598  32.433  69.4390  0.00  0.00     0.000 OA
ENDBRANCH 40 47
BRANCH 43 52
ATOM     52   C  IDS C   3     176.971  26.946  73.3320  0.00  0.00     0.000 C
ATOM     53   O  IDS C   3     175.987  26.331  73.6730  0.00  0.00     0.000 OA
ATOM     54   O  IDS C   3     177.953  26.961  74.0300  0.00  0.00     0.000 OA
ENDBRANCH 43 52
BRANCH 39 55
ATOM     55  O4  SGN C   4     178.816  28.097  69.6560  0.00  0.00     0.000 O
BRANCH 55 59
ATOM     56  C1  SGN C   4     182.892  28.377  68.7550  0.00  0.00     0.000 C
ATOM     57  C2  SGN C   4     181.955  29.345  68.0110  0.00  0.00     0.000 C
ATOM     58  C3  SGN C   4     180.595  29.418  68.7000  0.00  0.00     0.000 C
ATOM     59  C4  SGN C   4     180.030  28.019  68.9220  0.00  0.00     0.000 C
ATOM     60  C5  SGN C   4     181.054  27.193  69.6970  0.00  0.00     0.000 C
ATOM     61  O5  SGN C   4     182.260  27.116  68.9110  0.00  0.00     0.000 O
ATOM     62   O  SGN C   4     179.705  30.199  67.9140  0.00  0.00     0.000 O
ATOM     64  HD  SGN C   4     180.491  30.513  67.7280  0.00  0.00     0.000 HD
BRANCH 57 66
ATOM     64   N  SGN C   4     182.887  30.482  67.9430  0.00  0.00     0.000 N
ATOM     66  HD  SGN C   4     183.645  30.647  67.5590  0.00  0.00     0.000 HD
ATOM     66   S  SGN C   4     183.354  31.065  66.5330  0.00  0.00     0.000 S
ATOM     67   O  SGN C   4     184.286  32.102  66.7890  0.00  0.00     0.000 OA
ATOM     68   O  SGN C   4     183.745  29.956  65.7330  0.00  0.00     0.000 OA
ATOM     69   O  SGN C   4     182.048  31.678  65.9340  0.00  0.00     0.000 OA
ENDBRANCH 57 66
BRANCH 60 70
ATOM     70   C  SGN C   4     180.603  25.779  69.9900  0.00  0.00     0.000 C
ATOM     71   O  SGN C   4     182.123  23.391  72.4580  0.00  0.00     0.000 OA
ATOM     72   O  SGN C   4     180.115  24.710  72.7280  0.00  0.00     0.000 OA
ATOM     73   O  SGN C   4     181.555  25.110  70.8390  0.00  0.00     0.000 O
ATOM     74   S  SGN C   4     180.974  23.987  71.8180  0.00  0.00     0.000 S
ATOM     75   O  SGN C   4     180.257  23.074  70.9500  0.00  0.00     0.000 OA
ENDBRANCH 60 70
BRANCH 56 76
ATOM     76  O4  IDS C   5     183.821  28.489  69.7210  0.00  0.00     0.000 O
BRANCH 76 80
ATOM     77  C1  IDS C   5     182.917  27.992  73.6700  0.00  0.00     0.000 C
ATOM     78  C2  IDS C   5     182.837  29.437  73.1780  0.00  0.00     0.000 C
ATOM     79  C3  IDS C   5     182.752  29.461  71.6650  0.00  0.00     0.000 C
ATOM     80  C4  IDS C   5     184.049  28.921  71.0710  0.00  0.00     0.000 C
ATOM     81  C5  IDS C   5     184.554  27.752  71.9300  0.00  0.00     0.000 C
ATOM     82  O5  IDS C   5     183.473  27.158  72.6540  0.00  0.00     0.000 O
BRANCH 78 83
ATOM     83   O  IDS C   5     181.637  30.112  73.7260  0.00  0.00     0.000 O
ATOM     84   S  IDS C   5     181.797  31.467  74.5530  0.00  0.00     0.000 S
ATOM     85   O  IDS C   5     182.835  31.221  75.5180  0.00  0.00     0.000 OA
ATOM     86   O  IDS C   5     182.156  32.466  73.5750  0.00  0.00     0.000 OA
ATOM     87   O  IDS C   5     180.509  31.713  75.1520  0.00  0.00     0.000 OA
ENDBRANCH 78 83
BRANCH 81 88
ATOM     88   C  IDS C   5     185.232  26.652  71.1350  0.00  0.00     0.000 C
ATOM     89   O  IDS C   5     186.345  26.818  70.7110  0.00  0.00     0.000 OA
ATOM     90   O  IDS C   5     184.648  25.612  70.9330  0.00  0.00     0.000 OA
ENDBRANCH 81 88
ENDBRANCH 76 80
ENDBRANCH 56 76
ENDBRANCH 55 59
ENDBRANCH 39 55
ENDBRANCH 38 42
ENDBRANCH 18 38
ENDBRANCH 17 21
ENDBRANCH 1 17
TORSDOF 18
ENDMDL
MODEL 95
REMARK VINA RESULT:      -6.3     26.168     30.109
ROOT
ATOM      1  C1  IDS C   1     146.123  17.455  85.5630  0.00  0.00     0.000 C
ATOM      2  C2  IDS C   1     144.695  17.428  85.0100  0.00  0.00     0.000 C
ATOM      3  C3  IDS C   1     144.478  18.563  84.0200  0.00  0.00     0.000 C
ATOM      4  C4  IDS C   1     144.734  19.909  84.6830  0.00  0.00     0.000 C
ATOM      5  C5  IDS C   1     145.932  19.811  85.6230  0.00  0.00     0.000 C
ATOM      6  O5  IDS C   1     146.747  18.696  85.2630  0.00  0.00     0.000 O
ATOM      7   O  IDS C   1     143.137  18.514  83.5130  0.00  0.00     0.000 O
ATOM      9  HD  IDS C   1     142.909  17.683  83.4250  0.00  0.00     0.000 HD
ENDROOT
BRANCH 2 9
ATOM      9   O  IDS C   1     144.430  16.157  84.2970  0.00  0.00     0.000 O
ATOM     10   S  IDS C   1     143.235  15.220  84.7830  0.00  0.00     0.000 S
ATOM     11   O  IDS C   1     143.232  14.085  83.8870  0.00  0.00     0.000 OA
ATOM     12   O  IDS C   1     143.554  14.859  86.1490  0.00  0.00     0.000 OA
ATOM     13   O  IDS C   1     142.036  16.022  84.6770  0.00  0.00     0.000 OA
ENDBRANCH 2 9
BRANCH 5 14
ATOM     14   C  IDS C   1     146.789  21.065  85.5920  0.00  0.00     0.000 C
ATOM     15   O  IDS C   1     146.511  21.992  86.3130  0.00  0.00     0.000 OA
ATOM     16   O  IDS C   1     147.747  21.124  84.8390  0.00  0.00     0.000 OA
ENDBRANCH 5 14
BRANCH 1 17
ATOM     17  O4  SGN C   2     146.864  16.354  85.7170  0.00  0.00     0.000 O
BRANCH 17 21
ATOM     18  C1  SGN C   2     150.204  14.037  84.7140  0.00  0.00     0.000 C
ATOM     19  C2  SGN C   2     150.012  15.341  83.9290  0.00  0.00     0.000 C
ATOM     20  C3  SGN C   2     149.033  16.257  84.6750  0.00  0.00     0.000 C
ATOM     21  C4  SGN C   2     147.736  15.512  84.9670  0.00  0.00     0.000 C
ATOM     22  C5  SGN C   2     148.056  14.243  85.7520  0.00  0.00     0.000 C
ATOM     23  O5  SGN C   2     148.967  13.415  84.9930  0.00  0.00     0.000 O
ATOM     24   O  SGN C   2     148.787  17.424  83.9090  0.00  0.00     0.000 O
ATOM     26  HD  SGN C   2     148.945  16.963  84.6250  0.00  0.00     0.000 HD
BRANCH 19 28
ATOM     26   N  SGN C   2     150.976  15.617  82.8560  0.00  0.00     0.000 N
ATOM     28  HD  SGN C   2     150.260  15.378  82.4320  0.00  0.00     0.000 HD
ATOM     28   O  SGN C   2     152.915  16.942  82.0130  0.00  0.00     0.000 OA
ATOM     29   S  SGN C   2     151.426  17.111  82.4680  0.00  0.00     0.000 S
ATOM     30   O  SGN C   2     150.656  17.512  81.3540  0.00  0.00     0.000 OA
ATOM     31   O  SGN C   2     151.401  17.891  83.6570  0.00  0.00     0.000 OA
ENDBRANCH 19 28
BRANCH 22 32
ATOM     32   C  SGN C   2     146.841  13.398  86.0440  0.00  0.00     0.000 C
ATOM     33   S  SGN C   2     145.745  12.207  88.0500  0.00  0.00     0.000 S
ATOM     34   O  SGN C   2     146.694  11.123  88.0130  0.00  0.00     0.000 OA
ATOM     35   O  SGN C   2     145.382  12.616  89.3910  0.00  0.00     0.000 OA
ATOM     36   O  SGN C   2     144.609  12.025  87.1780  0.00  0.00     0.000 OA
ATOM     37   O  SGN C   2     146.543  13.450  87.4450  0.00  0.00     0.000 O
ENDBRANCH 22 32
BRANCH 18 38
ATOM     38  O4  IDS C   3     150.945  13.784  85.7950  0.00  0.00     0.000 O
BRANCH 38 42
ATOM     39  C1  IDS C   3     153.390  13.071  88.1710  0.00  0.00     0.000 C
ATOM     40  C2  IDS C   3     152.155  12.170  88.0110  0.00  0.00     0.000 C
ATOM     41  C3  IDS C   3     150.864  12.986  88.0700  0.00  0.00     0.000 C
ATOM     42  C4  IDS C   3     150.942  14.207  87.1630  0.00  0.00     0.000 C
ATOM     43  C5  IDS C   3     152.218  15.000  87.4690  0.00  0.00     0.000 C
ATOM     44  O5  IDS C   3     153.351  14.158  87.2620  0.00  0.00     0.000 O
ATOM     45   O  IDS C   3     150.627  13.399  89.4160  0.00  0.00     0.000 O
ATOM     47  HD  IDS C   3     151.080  13.836  90.0110  0.00  0.00     0.000 HD
BRANCH 40 47
ATOM     47   O  IDS C   3     152.183  11.476  86.7010  0.00  0.00     0.000 O
ATOM     48   S  IDS C   3     152.513   9.913  86.6350  0.00  0.00     0.000 S
ATOM     49   O  IDS C   3     153.946   9.802  86.8080  0.00  0.00     0.000 OA
ATOM     50   O  IDS C   3     152.079   9.487  85.3230  0.00  0.00     0.000 OA
ATOM     51   O  IDS C   3     151.774   9.296  87.7040  0.00  0.00     0.000 OA
ENDBRANCH 40 47
BRANCH 43 52
ATOM     52   C  IDS C   3     152.350  16.246  86.6230  0.00  0.00     0.000 C
ATOM     53   O  IDS C   3     151.634  17.198  86.8350  0.00  0.00     0.000 OA
ATOM     54   O  IDS C   3     153.169  16.285  85.7400  0.00  0.00     0.000 OA
ENDBRANCH 43 52
BRANCH 39 55
ATOM     55  O4  SGN C   4     153.939  13.368  89.3490  0.00  0.00     0.000 O
BRANCH 55 59
ATOM     56  C1  SGN C   4     156.233  16.863  89.5150  0.00  0.00     0.000 C
ATOM     57  C2  SGN C   4     156.931  15.608  88.9630  0.00  0.00     0.000 C
ATOM     58  C3  SGN C   4     155.907  14.540  88.5890  0.00  0.00     0.000 C
ATOM     59  C4  SGN C   4     154.948  14.286  89.7460  0.00  0.00     0.000 C
ATOM     60  C5  SGN C   4     154.313  15.612  90.1570  0.00  0.00     0.000 C
ATOM     61  O5  SGN C   4     155.363  16.506  90.5770  0.00  0.00     0.000 O
ATOM     62   O  SGN C   4     156.581  13.342  88.2240  0.00  0.00     0.000 O
ATOM     64  HD  SGN C   4     157.140  13.974  88.0270  0.00  0.00     0.000 HD
BRANCH 57 66
ATOM     64   N  SGN C   4     157.927  16.628  88.5980  0.00  0.00     0.000 N
ATOM     66  HD  SGN C   4     158.747  16.807  88.8130  0.00  0.00     0.000 HD
ATOM     66   S  SGN C   4     159.371  16.200  88.0700  0.00  0.00     0.000 S
ATOM     67   O  SGN C   4     160.117  17.387  87.8620  0.00  0.00     0.000 OA
ATOM     68   O  SGN C   4     159.865  15.211  88.9650  0.00  0.00     0.000 OA
ATOM     69   O  SGN C   4     159.077  15.525  86.6920  0.00  0.00     0.000 OA
ENDBRANCH 57 66
BRANCH 60 70
ATOM     70   C  SGN C   4     153.327  15.489  91.2990  0.00  0.00     0.000 C
ATOM     71   O  SGN C   4     150.511  17.839  92.1100  0.00  0.00     0.000 OA
ATOM     72   O  SGN C   4     150.370  15.701  90.9890  0.00  0.00     0.000 OA
ATOM     73   O  SGN C   4     152.529  16.684  91.4080  0.00  0.00     0.000 O
ATOM     74   S  SGN C   4     151.048  16.504  91.9810  0.00  0.00     0.000 S
ATOM     75   O  SGN C   4     151.222  15.826  93.2510  0.00  0.00     0.000 OA
ENDBRANCH 60 70
BRANCH 56 76
ATOM     76  O4  IDS C   5     155.788  18.023  88.9970  0.00  0.00     0.000 O
BRANCH 76 80
ATOM     77  C1  IDS C   5     154.006  21.468  87.7260  0.00  0.00     0.000 C
ATOM     78  C2  IDS C   5     153.037  20.407  88.2490  0.00  0.00     0.000 C
ATOM     79  C3  IDS C   5     153.790  19.388  89.0810  0.00  0.00     0.000 C
ATOM     80  C4  IDS C   5     154.761  18.619  88.1900  0.00  0.00     0.000 C
ATOM     81  C5  IDS C   5     155.377  19.579  87.1620  0.00  0.00     0.000 C
ATOM     82  O5  IDS C   5     155.324  20.927  87.6380  0.00  0.00     0.000 O
BRANCH 78 83
ATOM     83   O  IDS C   5     151.992  21.026  89.0980  0.00  0.00     0.000 O
ATOM     84   S  IDS C   5     150.452  20.812  88.7420  0.00  0.00     0.000 S
ATOM     85   O  IDS C   5     150.326  21.101  87.3380  0.00  0.00     0.000 OA
ATOM     86   O  IDS C   5     150.177  19.431  89.0650  0.00  0.00     0.000 OA
ATOM     87   O  IDS C   5     149.725  21.734  89.5800  0.00  0.00     0.000 OA
ENDBRANCH 78 83
BRANCH 81 88
ATOM     88   C  IDS C   5     156.823  19.270  86.8200  0.00  0.00     0.000 C
ATOM     89   O  IDS C   5     157.701  19.976  87.2400  0.00  0.00     0.000 OA
ATOM     90   O  IDS C   5     157.083  18.314  86.1260  0.00  0.00     0.000 OA
ENDBRANCH 81 88
ENDBRANCH 76 80
ENDBRANCH 56 76
ENDBRANCH 55 59
ENDBRANCH 39 55
ENDBRANCH 38 42
ENDBRANCH 18 38
ENDBRANCH 17 21
ENDBRANCH 1 17
TORSDOF 18
ENDMDL
MODEL 96
REMARK VINA RESULT:      -6.3     28.955     36.470
ROOT
ATOM      1  C1  IDS C   1     144.542  34.013  79.0610  0.00  0.00     0.000 C
ATOM      2  C2  IDS C   1     145.920  33.346  79.0940  0.00  0.00     0.000 C
ATOM      3  C3  IDS C   1     146.485  33.344  80.5060  0.00  0.00     0.000 C
ATOM      4  C4  IDS C   1     146.603  34.764  81.0410  0.00  0.00     0.000 C
ATOM      5  C5  IDS C   1     145.396  35.589  80.6040  0.00  0.00     0.000 C
ATOM      6  O5  IDS C   1     144.308  34.727  80.2680  0.00  0.00     0.000 O
ATOM      7   O  IDS C   1     147.773  32.710  80.5120  0.00  0.00     0.000 O
ATOM      9  HD  IDS C   1     147.756  32.055  79.9460  0.00  0.00     0.000 HD
ENDROOT
BRANCH 2 9
ATOM      9   O  IDS C   1     145.834  31.938  78.6450  0.00  0.00     0.000 O
ATOM     10   S  IDS C   1     146.721  31.454  77.4110  0.00  0.00     0.000 S
ATOM     11   O  IDS C   1     146.423  30.050  77.2360  0.00  0.00     0.000 OA
ATOM     12   O  IDS C   1     146.300  32.264  76.2870  0.00  0.00     0.000 OA
ATOM     13   O  IDS C   1     148.095  31.693  77.7940  0.00  0.00     0.000 OA
ENDBRANCH 2 9
BRANCH 5 14
ATOM     14   C  IDS C   1     144.934  36.548  81.6880  0.00  0.00     0.000 C
ATOM     15   O  IDS C   1     145.738  37.270  82.2240  0.00  0.00     0.000 OA
ATOM     16   O  IDS C   1     143.757  36.578  82.0080  0.00  0.00     0.000 OA
ENDBRANCH 5 14
BRANCH 1 17
ATOM     17  O4  SGN C   2     143.512  33.522  78.3670  0.00  0.00     0.000 O
BRANCH 17 21
ATOM     18  C1  SGN C   2     139.731  31.765  77.9820  0.00  0.00     0.000 C
ATOM     19  C2  SGN C   2     140.122  32.254  79.3820  0.00  0.00     0.000 C
ATOM     20  C3  SGN C   2     141.304  33.227  79.2810  0.00  0.00     0.000 C
ATOM     21  C4  SGN C   2     142.449  32.583  78.5080  0.00  0.00     0.000 C
ATOM     22  C5  SGN C   2     141.940  32.145  77.1380  0.00  0.00     0.000 C
ATOM     23  O5  SGN C   2     140.840  31.219  77.2980  0.00  0.00     0.000 O
ATOM     24   O  SGN C   2     141.722  33.613  80.5800  0.00  0.00     0.000 O
ATOM     26  HD  SGN C   2     141.524  33.724  79.7440  0.00  0.00     0.000 HD
BRANCH 19 28
ATOM     26   N  SGN C   2     139.233  32.023  80.5290  0.00  0.00     0.000 N
ATOM     28  HD  SGN C   2     139.940  31.559  80.7190  0.00  0.00     0.000 HD
ATOM     28   O  SGN C   2     137.468  32.876  82.0710  0.00  0.00     0.000 OA
ATOM     29   S  SGN C   2     138.947  33.153  81.6360  0.00  0.00     0.000 S
ATOM     30   O  SGN C   2     139.797  32.898  82.7350  0.00  0.00     0.000 OA
ATOM     31   O  SGN C   2     138.999  34.417  80.9860  0.00  0.00     0.000 OA
ENDBRANCH 19 28
BRANCH 22 32
ATOM     32   C  SGN C   2     142.985  31.440  76.3090  0.00  0.00     0.000 C
ATOM     33   S  SGN C   2     143.341  29.153  75.1740  0.00  0.00     0.000 S
ATOM     34   O  SGN C   2     143.657  28.506  76.4220  0.00  0.00     0.000 OA
ATOM     35   O  SGN C   2     142.546  28.336  74.2800  0.00  0.00     0.000 OA
ATOM     36   O  SGN C   2     144.474  29.775  74.5290  0.00  0.00     0.000 OA
ATOM     37   O  SGN C   2     142.380  30.359  75.5880  0.00  0.00     0.000 O
ENDBRANCH 22 32
BRANCH 18 38
ATOM     38  O4  IDS C   3     139.025  32.369  77.0240  0.00  0.00     0.000 O
BRANCH 38 42
ATOM     39  C1  IDS C   3     137.813  34.322  74.4070  0.00  0.00     0.000 C
ATOM     40  C2  IDS C   3     138.392  34.969  75.6760  0.00  0.00     0.000 C
ATOM     41  C3  IDS C   3     137.733  34.404  76.9340  0.00  0.00     0.000 C
ATOM     42  C4  IDS C   3     137.694  32.882  76.8990  0.00  0.00     0.000 C
ATOM     43  C5  IDS C   3     137.072  32.409  75.5800  0.00  0.00     0.000 C
ATOM     44  O5  IDS C   3     137.849  32.908  74.4920  0.00  0.00     0.000 O
ATOM     45   O  IDS C   3     136.405  34.918  77.0450  0.00  0.00     0.000 O
ATOM     47  HD  IDS C   3     135.708  34.929  76.5310  0.00  0.00     0.000 HD
BRANCH 40 47
ATOM     47   O  IDS C   3     139.847  34.704  75.7780  0.00  0.00     0.000 O
ATOM     48   S  IDS C   3     140.892  35.880  75.4930  0.00  0.00     0.000 S
ATOM     49   O  IDS C   3     140.945  36.025  74.0540  0.00  0.00     0.000 OA
ATOM     50   O  IDS C   3     142.145  35.419  76.0490  0.00  0.00     0.000 OA
ATOM     51   O  IDS C   3     140.376  37.051  76.1520  0.00  0.00     0.000 OA
ENDBRANCH 40 47
BRANCH 43 52
ATOM     52   C  IDS C   3     136.974  30.902  75.4850  0.00  0.00     0.000 C
ATOM     53   O  IDS C   3     137.728  30.293  74.7620  0.00  0.00     0.000 OA
ATOM     54   O  IDS C   3     136.144  30.316  76.1330  0.00  0.00     0.000 OA
ENDBRANCH 43 52
BRANCH 39 55
ATOM     55  O4  SGN C   4     136.755  34.800  73.7520  0.00  0.00     0.000 O
BRANCH 55 59
ATOM     56  C1  SGN C   4     134.789  37.854  71.6760  0.00  0.00     0.000 C
ATOM     57  C2  SGN C   4     136.294  37.695  71.4010  0.00  0.00     0.000 C
ATOM     58  C3  SGN C   4     136.793  36.339  71.8940  0.00  0.00     0.000 C
ATOM     59  C4  SGN C   4     136.375  36.106  73.3410  0.00  0.00     0.000 C
ATOM     60  C5  SGN C   4     134.860  36.265  73.4460  0.00  0.00     0.000 C
ATOM     61  O5  SGN C   4     134.517  37.606  73.0460  0.00  0.00     0.000 O
ATOM     62   O  SGN C   4     138.207  36.277  71.7640  0.00  0.00     0.000 O
ATOM     64  HD  SGN C   4     137.956  36.824  71.1410  0.00  0.00     0.000 HD
BRANCH 57 66
ATOM     64   N  SGN C   4     137.237  38.716  70.9180  0.00  0.00     0.000 N
ATOM     66  HD  SGN C   4     137.749  38.818  70.2270  0.00  0.00     0.000 HD
ATOM     66   S  SGN C   4     137.080  39.341  69.4590  0.00  0.00     0.000 S
ATOM     67   O  SGN C   4     138.159  40.239  69.2620  0.00  0.00     0.000 OA
ATOM     68   O  SGN C   4     136.900  38.255  68.5580  0.00  0.00     0.000 OA
ATOM     69   O  SGN C   4     135.744  40.147  69.5430  0.00  0.00     0.000 OA
ENDBRANCH 57 66
BRANCH 60 70
ATOM     70   C  SGN C   4     134.318  36.046  74.8420  0.00  0.00     0.000 C
ATOM     71   O  SGN C   4     133.670  38.672  77.4470  0.00  0.00     0.000 OA
ATOM     72   O  SGN C   4     132.052  37.582  76.0190  0.00  0.00     0.000 OA
ATOM     73   O  SGN C   4     134.404  37.260  75.6130  0.00  0.00     0.000 O
ATOM     74   S  SGN C   4     133.295  37.466  76.7460  0.00  0.00     0.000 S
ATOM     75   O  SGN C   4     133.376  36.273  77.5650  0.00  0.00     0.000 OA
ENDBRANCH 60 70
BRANCH 56 76
ATOM     76  O4  IDS C   5     133.655  37.622  70.9880  0.00  0.00     0.000 O
BRANCH 76 80
ATOM     77  C1  IDS C   5     130.126  37.173  68.9890  0.00  0.00     0.000 C
ATOM     78  C2  IDS C   5     130.277  38.508  69.7170  0.00  0.00     0.000 C
ATOM     79  C3  IDS C   5     131.737  38.756  70.0390  0.00  0.00     0.000 C
ATOM     80  C4  IDS C   5     132.224  37.712  71.0400  0.00  0.00     0.000 C
ATOM     81  C5  IDS C   5     131.589  36.354  70.7080  0.00  0.00     0.000 C
ATOM     82  O5  IDS C   5     131.205  36.303  69.3310  0.00  0.00     0.000 O
BRANCH 78 83
ATOM     83   O  IDS C   5     129.787  39.623  68.8730  0.00  0.00     0.000 O
ATOM     84   S  IDS C   5     128.504  40.455  69.3250  0.00  0.00     0.000 S
ATOM     85   O  IDS C   5     127.501  39.482  69.6660  0.00  0.00     0.000 OA
ATOM     86   O  IDS C   5     128.941  41.241  70.4550  0.00  0.00     0.000 OA
ATOM     87   O  IDS C   5     128.145  41.268  68.1890  0.00  0.00     0.000 OA
ENDBRANCH 78 83
BRANCH 81 88
ATOM     88   C  IDS C   5     132.498  35.168  70.9740  0.00  0.00     0.000 C
ATOM     89   O  IDS C   5     133.397  34.921  70.2160  0.00  0.00     0.000 OA
ATOM     90   O  IDS C   5     132.311  34.478  71.9490  0.00  0.00     0.000 OA
ENDBRANCH 81 88
ENDBRANCH 76 80
ENDBRANCH 56 76
ENDBRANCH 55 59
ENDBRANCH 39 55
ENDBRANCH 38 42
ENDBRANCH 18 38
ENDBRANCH 17 21
ENDBRANCH 1 17
TORSDOF 18
ENDMDL
MODEL 97
REMARK VINA RESULT:      -6.3     30.538     35.447
ROOT
ATOM      1  C1  IDS C   1     140.627  23.692  86.4720  0.00  0.00     0.000 C
ATOM      2  C2  IDS C   1     140.592  24.387  87.8360  0.00  0.00     0.000 C
ATOM      3  C3  IDS C   1     141.670  25.457  87.9270  0.00  0.00     0.000 C
ATOM      4  C4  IDS C   1     143.049  24.849  87.7080  0.00  0.00     0.000 C
ATOM      5  C5  IDS C   1     142.986  23.788  86.6150  0.00  0.00     0.000 C
ATOM      6  O5  IDS C   1     141.838  23.998  85.7920  0.00  0.00     0.000 O
ATOM      7   O  IDS C   1     141.614  26.095  89.2100  0.00  0.00     0.000 O
ATOM      9  HD  IDS C   1     140.783  26.158  89.4470  0.00  0.00     0.000 HD
ENDROOT
BRANCH 2 9
ATOM      9   O  IDS C   1     139.286  25.049  88.0560  0.00  0.00     0.000 O
ATOM     10   S  IDS C   1     138.386  24.613  89.2980  0.00  0.00     0.000 S
ATOM     11   O  IDS C   1     137.203  25.444  89.2410  0.00  0.00     0.000 OA
ATOM     12   O  IDS C   1     138.098  23.208  89.0970  0.00  0.00     0.000 OA
ATOM     13   O  IDS C   1     139.189  24.861  90.4750  0.00  0.00     0.000 OA
ENDBRANCH 2 9
BRANCH 5 14
ATOM     14   C  IDS C   1     144.221  23.802  85.7300  0.00  0.00     0.000 C
ATOM     15   O  IDS C   1     145.239  24.304  86.1400  0.00  0.00     0.000 OA
ATOM     16   O  IDS C   1     144.173  23.310  84.6150  0.00  0.00     0.000 OA
ENDBRANCH 5 14
BRANCH 1 17
ATOM     17  O4  SGN C   2     139.526  23.401  85.7750  0.00  0.00     0.000 O
BRANCH 17 21
ATOM     18  C1  SGN C   2     136.527  24.392  83.0270  0.00  0.00     0.000 C
ATOM     19  C2  SGN C   2     137.605  25.454  83.2800  0.00  0.00     0.000 C
ATOM     20  C3  SGN C   2     138.823  24.808  83.9510  0.00  0.00     0.000 C
ATOM     21  C4  SGN C   2     138.393  24.049  85.2020  0.00  0.00     0.000 C
ATOM     22  C5  SGN C   2     137.329  23.024  84.8210  0.00  0.00     0.000 C
ATOM     23  O5  SGN C   2     136.202  23.694  84.2100  0.00  0.00     0.000 O
ATOM     24   O  SGN C   2     139.784  25.801  84.2650  0.00  0.00     0.000 O
ATOM     26  HD  SGN C   2     139.499  25.035  83.9800  0.00  0.00     0.000 HD
BRANCH 19 28
ATOM     26   N  SGN C   2     137.507  26.272  82.0640  0.00  0.00     0.000 N
ATOM     28  HD  SGN C   2     136.719  25.920  82.1390  0.00  0.00     0.000 HD
ATOM     28   O  SGN C   2     138.186  28.313  80.8010  0.00  0.00     0.000 OA
ATOM     29   S  SGN C   2     137.447  27.878  82.1110  0.00  0.00     0.000 S
ATOM     30   O  SGN C   2     136.090  28.257  82.0120  0.00  0.00     0.000 OA
ATOM     31   O  SGN C   2     138.216  28.306  83.2290  0.00  0.00     0.000 OA
ENDBRANCH 19 28
BRANCH 22 32
ATOM     32   C  SGN C   2     136.790  22.255  86.0020  0.00  0.00     0.000 C
ATOM     33   S  SGN C   2     134.622  22.096  87.3870  0.00  0.00     0.000 S
ATOM     34   O  SGN C   2     134.908  23.315  88.1010  0.00  0.00     0.000 OA
ATOM     35   O  SGN C   2     133.223  21.932  87.0540  0.00  0.00     0.000 OA
ATOM     36   O  SGN C   2     135.215  20.917  87.9730  0.00  0.00     0.000 OA
ATOM     37   O  SGN C   2     135.358  22.282  85.9830  0.00  0.00     0.000 O
ENDBRANCH 22 32
BRANCH 18 38
ATOM     38  O4  IDS C   3     136.439  23.466  82.0700  0.00  0.00     0.000 O
BRANCH 38 42
ATOM     39  C1  IDS C   3     135.673  20.891  79.8530  0.00  0.00     0.000 C
ATOM     40  C2  IDS C   3     136.865  20.778  80.8160  0.00  0.00     0.000 C
ATOM     41  C3  IDS C   3     137.781  21.997  80.7080  0.00  0.00     0.000 C
ATOM     42  C4  IDS C   3     136.983  23.292  80.7570  0.00  0.00     0.000 C
ATOM     43  C5  IDS C   3     135.851  23.244  79.7230  0.00  0.00     0.000 C
ATOM     44  O5  IDS C   3     135.005  22.132  80.0090  0.00  0.00     0.000 O
ATOM     45   O  IDS C   3     138.516  21.929  79.4840  0.00  0.00     0.000 O
ATOM     47  HD  IDS C   3     138.305  21.853  78.6470  0.00  0.00     0.000 HD
BRANCH 40 47
ATOM     47   O  IDS C   3     136.394  20.699  82.2190  0.00  0.00     0.000 O
ATOM     48   S  IDS C   3     136.042  19.278  82.8620  0.00  0.00     0.000 S
ATOM     49   O  IDS C   3     134.747  18.912  82.3300  0.00  0.00     0.000 OA
ATOM     50   O  IDS C   3     136.010  19.503  84.2900  0.00  0.00     0.000 OA
ATOM     51   O  IDS C   3     137.087  18.377  82.4540  0.00  0.00     0.000 OA
ENDBRANCH 40 47
BRANCH 43 52
ATOM     52   C  IDS C   3     135.029  24.514  79.6950  0.00  0.00     0.000 C
ATOM     53   O  IDS C   3     133.822  24.450  79.6830  0.00  0.00     0.000 OA
ATOM     54   O  IDS C   3     135.583  25.584  79.6850  0.00  0.00     0.000 OA
ENDBRANCH 43 52
BRANCH 39 55
ATOM     55  O4  SGN C   4     135.691  20.439  78.5990  0.00  0.00     0.000 O
BRANCH 55 59
ATOM     56  C1  SGN C   4     133.118  17.261  77.7140  0.00  0.00     0.000 C
ATOM     57  C2  SGN C   4     134.456  16.897  78.3810  0.00  0.00     0.000 C
ATOM     58  C3  SGN C   4     135.106  18.132  78.9990  0.00  0.00     0.000 C
ATOM     59  C4  SGN C   4     135.181  19.266  77.9820  0.00  0.00     0.000 C
ATOM     60  C5  SGN C   4     133.779  19.530  77.4380  0.00  0.00     0.000 C
ATOM     61  O5  SGN C   4     133.307  18.328  76.7990  0.00  0.00     0.000 O
ATOM     62   O  SGN C   4     136.403  17.799  79.4750  0.00  0.00     0.000 O
ATOM     64  HD  SGN C   4     135.957  17.059  79.5260  0.00  0.00     0.000 HD
BRANCH 57 66
ATOM     64   N  SGN C   4     133.826  15.719  78.9990  0.00  0.00     0.000 N
ATOM     66  HD  SGN C   4     133.612  14.919  78.7440  0.00  0.00     0.000 HD
ATOM     66   S  SGN C   4     134.549  14.297  78.9560  0.00  0.00     0.000 S
ATOM     67   O  SGN C   4     133.681  13.360  79.5700  0.00  0.00     0.000 OA
ATOM     68   O  SGN C   4     134.971  14.084  77.6150  0.00  0.00     0.000 OA
ATOM     69   O  SGN C   4     135.814  14.497  79.8520  0.00  0.00     0.000 OA
ENDBRANCH 57 66
BRANCH 60 70
ATOM     70   C  SGN C   4     133.720  20.648  76.4190  0.00  0.00     0.000 C
ATOM     71   O  SGN C   4     134.664  20.444  72.7890  0.00  0.00     0.000 OA
ATOM     72   O  SGN C   4     132.440  20.407  73.7390  0.00  0.00     0.000 OA
ATOM     73   O  SGN C   4     134.356  20.246  75.1910  0.00  0.00     0.000 O
ATOM     74   S  SGN C   4     133.793  20.904  73.8470  0.00  0.00     0.000 S
ATOM     75   O  SGN C   4     133.866  22.333  74.0750  0.00  0.00     0.000 OA
ENDBRANCH 60 70
BRANCH 56 76
ATOM     76  O4  IDS C   5     131.827  17.273  78.0930  0.00  0.00     0.000 O
BRANCH 76 80
ATOM     77  C1  IDS C   5     130.360  20.552  80.0310  0.00  0.00     0.000 C
ATOM     78  C2  IDS C   5     130.762  19.399  80.9500  0.00  0.00     0.000 C
ATOM     79  C3  IDS C   5     131.676  18.444  80.2070  0.00  0.00     0.000 C
ATOM     80  C4  IDS C   5     130.905  17.781  79.0690  0.00  0.00     0.000 C
ATOM     81  C5  IDS C   5     129.958  18.807  78.4310  0.00  0.00     0.000 C
ATOM     82  O5  IDS C   5     130.427  20.138  78.6660  0.00  0.00     0.000 O
BRANCH 78 83
ATOM     83   O  IDS C   5     131.483  19.906  82.1410  0.00  0.00     0.000 O
ATOM     84   S  IDS C   5     131.054  19.413  83.5970  0.00  0.00     0.000 S
ATOM     85   O  IDS C   5     129.624  19.559  83.6580  0.00  0.00     0.000 OA
ATOM     86   O  IDS C   5     131.488  18.038  83.6730  0.00  0.00     0.000 OA
ATOM     87   O  IDS C   5     131.755  20.270  84.5220  0.00  0.00     0.000 OA
ENDBRANCH 78 83
BRANCH 81 88
ATOM     88   C  IDS C   5     129.790  18.640  76.9320  0.00  0.00     0.000 C
ATOM     89   O  IDS C   5     129.145  17.723  76.5000  0.00  0.00     0.000 OA
ATOM     90   O  IDS C   5     130.306  19.434  76.1790  0.00  0.00     0.000 OA
ENDBRANCH 81 88
ENDBRANCH 76 80
ENDBRANCH 56 76
ENDBRANCH 55 59
ENDBRANCH 39 55
ENDBRANCH 38 42
ENDBRANCH 18 38
ENDBRANCH 17 21
ENDBRANCH 1 17
TORSDOF 18
ENDMDL
MODEL 98
REMARK VINA RESULT:      -6.3     25.814     29.633
ROOT
ATOM      1  C1  IDS C   1     143.158  17.081  87.4030  0.00  0.00     0.000 C
ATOM      2  C2  IDS C   1     141.898  16.311  87.0000  0.00  0.00     0.000 C
ATOM      3  C3  IDS C   1     140.649  17.136  87.2740  0.00  0.00     0.000 C
ATOM      4  C4  IDS C   1     140.562  17.505  88.7480  0.00  0.00     0.000 C
ATOM      5  C5  IDS C   1     141.949  17.847  89.2850  0.00  0.00     0.000 C
ATOM      6  O5  IDS C   1     142.818  18.201  88.2090  0.00  0.00     0.000 O
ATOM      7   O  IDS C   1     139.483  16.397  86.8840  0.00  0.00     0.000 O
ATOM      9  HD  IDS C   1     139.674  15.944  86.1710  0.00  0.00     0.000 HD
ENDROOT
BRANCH 2 9
ATOM      9   O  IDS C   1     141.914  15.993  85.5540  0.00  0.00     0.000 O
ATOM     10   S  IDS C   1     141.699  14.485  85.0800  0.00  0.00     0.000 S
ATOM     11   O  IDS C   1     141.755  14.512  83.6360  0.00  0.00     0.000 OA
ATOM     12   O  IDS C   1     142.785  13.732  85.6730  0.00  0.00     0.000 OA
ATOM     13   O  IDS C   1     140.401  14.094  85.5850  0.00  0.00     0.000 OA
ENDBRANCH 2 9
BRANCH 5 14
ATOM     14   C  IDS C   1     141.913  18.999  90.2740  0.00  0.00     0.000 C
ATOM     15   O  IDS C   1     140.964  19.121  91.0100  0.00  0.00     0.000 OA
ATOM     16   O  IDS C   1     142.840  19.791  90.3150  0.00  0.00     0.000 OA
ENDBRANCH 5 14
BRANCH 1 17
ATOM     17  O4  SGN C   2     144.264  17.109  86.6530  0.00  0.00     0.000 O
BRANCH 17 21
ATOM     18  C1  SGN C   2     147.106  18.948  84.1900  0.00  0.00     0.000 C
ATOM     19  C2  SGN C   2     146.130  19.876  84.9240  0.00  0.00     0.000 C
ATOM     20  C3  SGN C   2     145.460  19.118  86.0770  0.00  0.00     0.000 C
ATOM     21  C4  SGN C   2     144.824  17.833  85.5610  0.00  0.00     0.000 C
ATOM     22  C5  SGN C   2     145.890  16.997  84.8590  0.00  0.00     0.000 C
ATOM     23  O5  SGN C   2     146.472  17.756  83.7750  0.00  0.00     0.000 O
ATOM     24   O  SGN C   2     144.494  19.947  86.7010  0.00  0.00     0.000 O
ATOM     26  HD  SGN C   2     145.141  19.372  86.6630  0.00  0.00     0.000 HD
BRANCH 19 28
ATOM     26   N  SGN C   2     146.833  21.164  84.8400  0.00  0.00     0.000 N
ATOM     28  HD  SGN C   2     147.033  20.771  84.0950  0.00  0.00     0.000 HD
ATOM     28   O  SGN C   2     146.909  23.596  85.3900  0.00  0.00     0.000 OA
ATOM     29   S  SGN C   2     146.058  22.551  84.5930  0.00  0.00     0.000 S
ATOM     30   O  SGN C   2     146.150  22.850  83.2150  0.00  0.00     0.000 OA
ATOM     31   O  SGN C   2     144.779  22.446  85.2050  0.00  0.00     0.000 OA
ENDBRANCH 19 28
BRANCH 22 32
ATOM     32   C  SGN C   2     145.351  15.722  84.2570  0.00  0.00     0.000 C
ATOM     33   S  SGN C   2     146.106  13.287  83.8780  0.00  0.00     0.000 S
ATOM     34   O  SGN C   2     146.950  13.649  82.7680  0.00  0.00     0.000 OA
ATOM     35   O  SGN C   2     146.674  12.263  84.7300  0.00  0.00     0.000 OA
ATOM     36   O  SGN C   2     144.731  13.035  83.5150  0.00  0.00     0.000 OA
ATOM     37   O  SGN C   2     146.066  14.599  84.7870  0.00  0.00     0.000 O
ENDBRANCH 22 32
BRANCH 18 38
ATOM     38  O4  IDS C   3     148.340  18.560  84.5210  0.00  0.00     0.000 O
BRANCH 38 42
ATOM     39  C1  IDS C   3     151.161  17.090  85.9380  0.00  0.00     0.000 C
ATOM     40  C2  IDS C   3     150.106  17.784  86.8140  0.00  0.00     0.000 C
ATOM     41  C3  IDS C   3     149.818  19.200  86.3150  0.00  0.00     0.000 C
ATOM     42  C4  IDS C   3     149.578  19.217  84.8120  0.00  0.00     0.000 C
ATOM     43  C5  IDS C   3     150.730  18.504  84.0940  0.00  0.00     0.000 C
ATOM     44  O5  IDS C   3     150.814  17.160  84.5660  0.00  0.00     0.000 O
ATOM     45   O  IDS C   3     150.923  20.048  86.6370  0.00  0.00     0.000 O
ATOM     47  HD  IDS C   3     151.775  20.029  86.4810  0.00  0.00     0.000 HD
BRANCH 40 47
ATOM     47   O  IDS C   3     148.828  17.034  86.7820  0.00  0.00     0.000 O
ATOM     48   S  IDS C   3     148.343  16.233  88.0780  0.00  0.00     0.000 S
ATOM     49   O  IDS C   3     149.137  15.023  88.1180  0.00  0.00     0.000 OA
ATOM     50   O  IDS C   3     146.939  15.966  87.8570  0.00  0.00     0.000 OA
ATOM     51   O  IDS C   3     148.585  17.096  89.2030  0.00  0.00     0.000 OA
ENDBRANCH 40 47
BRANCH 43 52
ATOM     52   C  IDS C   3     150.574  18.506  82.5900  0.00  0.00     0.000 C
ATOM     53   O  IDS C   3     150.185  19.502  82.0250  0.00  0.00     0.000 OA
ATOM     54   O  IDS C   3     150.838  17.513  81.9610  0.00  0.00     0.000 OA
ENDBRANCH 43 52
BRANCH 39 55
ATOM     55  O4  SGN C   4     152.472  17.157  86.1700  0.00  0.00     0.000 O
BRANCH 55 59
ATOM     56  C1  SGN C   4     155.512  14.689  87.6450  0.00  0.00     0.000 C
ATOM     57  C2  SGN C   4     154.068  14.266  87.9640  0.00  0.00     0.000 C
ATOM     58  C3  SGN C   4     153.078  14.997  87.0610  0.00  0.00     0.000 C
ATOM     59  C4  SGN C   4     153.330  16.500  87.0930  0.00  0.00     0.000 C
ATOM     60  C5  SGN C   4     154.789  16.761  86.7240  0.00  0.00     0.000 C
ATOM     61  O5  SGN C   4     155.626  16.102  87.6950  0.00  0.00     0.000 O
ATOM     62   O  SGN C   4     151.750  14.703  87.4740  0.00  0.00     0.000 O
ATOM     64  HD  SGN C   4     152.209  14.006  87.7060  0.00  0.00     0.000 HD
BRANCH 57 66
ATOM     64   N  SGN C   4     153.430  13.360  88.9330  0.00  0.00     0.000 N
ATOM     66  HD  SGN C   4     153.121  12.552  88.9230  0.00  0.00     0.000 HD
ATOM     66   S  SGN C   4     154.025  11.903  89.1940  0.00  0.00     0.000 S
ATOM     67   O  SGN C   4     153.170  11.255  90.1200  0.00  0.00     0.000 OA
ATOM     68   O  SGN C   4     154.252  11.312  87.9200  0.00  0.00     0.000 OA
ATOM     69   O  SGN C   4     155.406  12.181  89.8700  0.00  0.00     0.000 OA
ENDBRANCH 57 66
BRANCH 60 70
ATOM     70   C  SGN C   4     155.163  18.228  86.7110  0.00  0.00     0.000 C
ATOM     71   O  SGN C   4     157.049  20.098  89.3660  0.00  0.00     0.000 OA
ATOM     72   O  SGN C   4     157.902  19.263  87.2630  0.00  0.00     0.000 OA
ATOM     73   O  SGN C   4     155.696  18.624  87.9890  0.00  0.00     0.000 O
ATOM     74   S  SGN C   4     156.771  19.808  87.9790  0.00  0.00     0.000 S
ATOM     75   O  SGN C   4     156.117  20.896  87.2810  0.00  0.00     0.000 OA
ENDBRANCH 60 70
BRANCH 56 76
ATOM     76  O4  IDS C   5     156.495  14.230  86.8490  0.00  0.00     0.000 O
BRANCH 76 80
ATOM     77  C1  IDS C   5     159.067  11.869  84.7340  0.00  0.00     0.000 C
ATOM     78  C2  IDS C   5     158.755  11.364  86.1420  0.00  0.00     0.000 C
ATOM     79  C3  IDS C   5     157.497  12.033  86.6610  0.00  0.00     0.000 C
ATOM     80  C4  IDS C   5     157.748  13.528  86.8330  0.00  0.00     0.000 C
ATOM     81  C5  IDS C   5     158.630  14.032  85.6820  0.00  0.00     0.000 C
ATOM     82  O5  IDS C   5     158.512  13.171  84.5450  0.00  0.00     0.000 O
BRANCH 78 83
ATOM     83   O  IDS C   5     158.538   9.898  86.1370  0.00  0.00     0.000 O
ATOM     84   S  IDS C   5     159.450   8.959  87.0480  0.00  0.00     0.000 S
ATOM     85   O  IDS C   5     160.808   9.361  86.7970  0.00  0.00     0.000 OA
ATOM     86   O  IDS C   5     159.023   9.216  88.4030  0.00  0.00     0.000 OA
ATOM     87   O  IDS C   5     159.167   7.609  86.6230  0.00  0.00     0.000 OA
ENDBRANCH 78 83
BRANCH 81 88
ATOM     88   C  IDS C   5     158.301  15.441  85.2250  0.00  0.00     0.000 C
ATOM     89   O  IDS C   5     157.604  15.610  84.2610  0.00  0.00     0.000 OA
ATOM     90   O  IDS C   5     158.744  16.387  85.8360  0.00  0.00     0.000 OA
ENDBRANCH 81 88
ENDBRANCH 76 80
ENDBRANCH 56 76
ENDBRANCH 55 59
ENDBRANCH 39 55
ENDBRANCH 38 42
ENDBRANCH 18 38
ENDBRANCH 17 21
ENDBRANCH 1 17
TORSDOF 18
ENDMDL
MODEL 99
REMARK VINA RESULT:      -6.3     23.273     29.186
ROOT
ATOM      1  C1  IDS C   1     164.026  21.855  81.3570  0.00  0.00     0.000 C
ATOM      2  C2  IDS C   1     164.630  21.238  80.0920  0.00  0.00     0.000 C
ATOM      3  C3  IDS C   1     165.326  22.299  79.2530  0.00  0.00     0.000 C
ATOM      4  C4  IDS C   1     164.348  23.398  78.8580  0.00  0.00     0.000 C
ATOM      5  C5  IDS C   1     163.410  23.706  80.0210  0.00  0.00     0.000 C
ATOM      6  O5  IDS C   1     163.992  23.272  81.2500  0.00  0.00     0.000 O
ATOM      7   O  IDS C   1     165.887  21.698  78.0780  0.00  0.00     0.000 O
ATOM      9  HD  IDS C   1     166.181  20.911  78.2890  0.00  0.00     0.000 HD
ENDROOT
BRANCH 2 9
ATOM      9   O  IDS C   1     165.638  20.210  80.4370  0.00  0.00     0.000 O
ATOM     10   S  IDS C   1     165.445  18.717  79.9120  0.00  0.00     0.000 S
ATOM     11   O  IDS C   1     166.587  17.975  80.4000  0.00  0.00     0.000 OA
ATOM     12   O  IDS C   1     164.193  18.262  80.4810  0.00  0.00     0.000 OA
ATOM     13   O  IDS C   1     165.410  18.807  78.4690  0.00  0.00     0.000 OA
ENDBRANCH 2 9
BRANCH 5 14
ATOM     14   C  IDS C   1     163.102  25.189  80.1320  0.00  0.00     0.000 C
ATOM     15   O  IDS C   1     163.748  25.875  80.8850  0.00  0.00     0.000 OA
ATOM     16   O  IDS C   1     162.205  25.673  79.4610  0.00  0.00     0.000 OA
ENDBRANCH 5 14
BRANCH 1 17
ATOM     17  O4  SGN C   2     164.110  21.278  82.5590  0.00  0.00     0.000 O
BRANCH 17 21
ATOM     18  C1  SGN C   2     165.091  21.237  86.6290  0.00  0.00     0.000 C
ATOM     19  C2  SGN C   2     165.198  22.587  85.9110  0.00  0.00     0.000 C
ATOM     20  C3  SGN C   2     164.421  22.536  84.5890  0.00  0.00     0.000 C
ATOM     21  C4  SGN C   2     164.887  21.350  83.7520  0.00  0.00     0.000 C
ATOM     22  C5  SGN C   2     164.727  20.071  84.5690  0.00  0.00     0.000 C
ATOM     23  O5  SGN C   2     165.493  20.173  85.7920  0.00  0.00     0.000 O
ATOM     24   O  SGN C   2     164.591  23.753  83.8830  0.00  0.00     0.000 O
ATOM     26  HD  SGN C   2     164.159  23.071  84.1950  0.00  0.00     0.000 HD
BRANCH 19 28
ATOM     26   N  SGN C   2     165.170  23.524  87.0430  0.00  0.00     0.000 N
ATOM     28  HD  SGN C   2     165.565  22.823  87.3650  0.00  0.00     0.000 HD
ATOM     28   O  SGN C   2     165.247  25.874  87.8750  0.00  0.00     0.000 OA
ATOM     29   S  SGN C   2     166.117  24.822  87.1080  0.00  0.00     0.000 S
ATOM     30   O  SGN C   2     167.236  24.493  87.9040  0.00  0.00     0.000 OA
ATOM     31   O  SGN C   2     166.313  25.280  85.7760  0.00  0.00     0.000 OA
ENDBRANCH 19 28
BRANCH 22 32
ATOM     32   C  SGN C   2     165.216  18.837  83.8510  0.00  0.00     0.000 C
ATOM     33   S  SGN C   2     167.107  17.098  84.0530  0.00  0.00     0.000 S
ATOM     34   O  SGN C   2     168.090  18.003  83.5130  0.00  0.00     0.000 OA
ATOM     35   O  SGN C   2     167.608  16.273  85.1320  0.00  0.00     0.000 OA
ATOM     36   O  SGN C   2     166.378  16.355  83.0520  0.00  0.00     0.000 OA
ATOM     37   O  SGN C   2     166.026  18.054  84.7350  0.00  0.00     0.000 O
ENDBRANCH 22 32
BRANCH 18 38
ATOM     38  O4  IDS C   3     164.093  20.721  87.3500  0.00  0.00     0.000 O
BRANCH 38 42
ATOM     39  C1  IDS C   3     161.116  19.776  88.8910  0.00  0.00     0.000 C
ATOM     40  C2  IDS C   3     161.724  21.167  89.1300  0.00  0.00     0.000 C
ATOM     41  C3  IDS C   3     163.187  21.065  89.5590  0.00  0.00     0.000 C
ATOM     42  C4  IDS C   3     163.964  20.126  88.6460  0.00  0.00     0.000 C
ATOM     43  C5  IDS C   3     163.231  18.784  88.5350  0.00  0.00     0.000 C
ATOM     44  O5  IDS C   3     161.923  19.009  88.0130  0.00  0.00     0.000 O
ATOM     45   O  IDS C   3     163.253  20.592  90.9060  0.00  0.00     0.000 O
ATOM     47  HD  IDS C   3     162.948  19.900  91.3270  0.00  0.00     0.000 HD
BRANCH 40 47
ATOM     47   O  IDS C   3     161.680  21.974  87.8870  0.00  0.00     0.000 O
ATOM     48   S  IDS C   3     160.540  23.079  87.6950  0.00  0.00     0.000 S
ATOM     49   O  IDS C   3     159.337  22.352  87.3520  0.00  0.00     0.000 OA
ATOM     50   O  IDS C   3     161.004  23.922  86.6150  0.00  0.00     0.000 OA
ATOM     51   O  IDS C   3     160.432  23.775  88.9500  0.00  0.00     0.000 OA
ENDBRANCH 40 47
BRANCH 43 52
ATOM     52   C  IDS C   3     163.962  17.787  87.6640  0.00  0.00     0.000 C
ATOM     53   O  IDS C   3     163.381  17.244  86.7520  0.00  0.00     0.000 OA
ATOM     54   O  IDS C   3     165.120  17.539  87.8820  0.00  0.00     0.000 OA
ENDBRANCH 43 52
BRANCH 39 55
ATOM     55  O4  SGN C   4     160.515  19.060  89.8410  0.00  0.00     0.000 O
BRANCH 55 59
ATOM     56  C1  SGN C   4     157.449  16.487  88.6240  0.00  0.00     0.000 C
ATOM     57  C2  SGN C   4     157.079  17.972  88.7790  0.00  0.00     0.000 C
ATOM     58  C3  SGN C   4     158.334  18.839  88.8320  0.00  0.00     0.000 C
ATOM     59  C4  SGN C   4     159.310  18.307  89.8750  0.00  0.00     0.000 C
ATOM     60  C5  SGN C   4     159.604  16.840  89.5690  0.00  0.00     0.000 C
ATOM     61  O5  SGN C   4     158.365  16.107  89.6380  0.00  0.00     0.000 O
ATOM     62   O  SGN C   4     157.971  20.182  89.1240  0.00  0.00     0.000 O
ATOM     64  HD  SGN C   4     157.280  19.855  88.7180  0.00  0.00     0.000 HD
BRANCH 57 66
ATOM     64   N  SGN C   4     155.915  17.539  87.9880  0.00  0.00     0.000 N
ATOM     66  HD  SGN C   4     155.075  17.395  88.1390  0.00  0.00     0.000 HD
ATOM     66   S  SGN C   4     154.580  18.413  87.9640  0.00  0.00     0.000 S
ATOM     67   O  SGN C   4     153.630  17.716  87.1760  0.00  0.00     0.000 OA
ATOM     68   O  SGN C   4     154.269  18.733  89.3140  0.00  0.00     0.000 OA
ATOM     69   O  SGN C   4     155.007  19.722  87.2250  0.00  0.00     0.000 OA
ENDBRANCH 57 66
BRANCH 60 70
ATOM     70   C  SGN C   4     160.576  16.198  90.5350  0.00  0.00     0.000 C
ATOM     71   O  SGN C   4     162.180  12.818  90.2070  0.00  0.00     0.000 OA
ATOM     72   O  SGN C   4     163.171  14.972  89.7340  0.00  0.00     0.000 OA
ATOM     73   O  SGN C   4     160.808  14.822  90.1770  0.00  0.00     0.000 O
ATOM     74   S  SGN C   4     162.242  14.220  90.5480  0.00  0.00     0.000 S
ATOM     75   O  SGN C   4     162.391  14.464  91.9680  0.00  0.00     0.000 OA
ENDBRANCH 60 70
BRANCH 56 76
ATOM     76  O4  IDS C   5     157.610  15.638  87.5920  0.00  0.00     0.000 O
BRANCH 76 80
ATOM     77  C1  IDS C   5     158.513  12.739  84.8640  0.00  0.00     0.000 C
ATOM     78  C2  IDS C   5     159.634  13.048  85.8560  0.00  0.00     0.000 C
ATOM     79  C3  IDS C   5     159.070  13.781  87.0580  0.00  0.00     0.000 C
ATOM     80  C4  IDS C   5     158.549  15.148  86.6230  0.00  0.00     0.000 C
ATOM     81  C5  IDS C   5     157.884  15.025  85.2450  0.00  0.00     0.000 C
ATOM     82  O5  IDS C   5     157.451  13.681  85.0150  0.00  0.00     0.000 O
BRANCH 78 83
ATOM     83   O  IDS C   5     160.274  11.798  86.3290  0.00  0.00     0.000 O
ATOM     84   S  IDS C   5     161.822  11.541  86.0380  0.00  0.00     0.000 S
ATOM     85   O  IDS C   5     162.012  11.816  84.6390  0.00  0.00     0.000 OA
ATOM     86   O  IDS C   5     162.526  12.462  86.8990  0.00  0.00     0.000 OA
ATOM     87   O  IDS C   5     162.061  10.162  86.3850  0.00  0.00     0.000 OA
ENDBRANCH 78 83
BRANCH 81 88
ATOM     88   C  IDS C   5     156.682  15.932  85.0580  0.00  0.00     0.000 C
ATOM     89   O  IDS C   5     155.582  15.456  84.9650  0.00  0.00     0.000 OA
ATOM     90   O  IDS C   5     156.838  17.130  85.0060  0.00  0.00     0.000 OA
ENDBRANCH 81 88
ENDBRANCH 76 80
ENDBRANCH 56 76
ENDBRANCH 55 59
ENDBRANCH 39 55
ENDBRANCH 38 42
ENDBRANCH 18 38
ENDBRANCH 17 21
ENDBRANCH 1 17
TORSDOF 18
ENDMDL
MODEL 100
REMARK VINA RESULT:      -6.3     27.894     34.315
ROOT
ATOM      1  C1  IDS C   1     145.040  32.054  76.1360  0.00  0.00     0.000 C
ATOM      2  C2  IDS C   1     144.912  30.543  75.9260  0.00  0.00     0.000 C
ATOM      3  C3  IDS C   1     145.804  29.785  76.8980  0.00  0.00     0.000 C
ATOM      4  C4  IDS C   1     147.260  30.195  76.7220  0.00  0.00     0.000 C
ATOM      5  C5  IDS C   1     147.354  31.696  76.4680  0.00  0.00     0.000 C
ATOM      6  O5  IDS C   1     146.175  32.349  76.9400  0.00  0.00     0.000 O
ATOM      7   O  IDS C   1     145.664  28.373  76.6850  0.00  0.00     0.000 O
ATOM      9  HD  IDS C   1     144.838  28.209  76.4840  0.00  0.00     0.000 HD
ENDROOT
BRANCH 2 9
ATOM      9   O  IDS C   1     143.520  30.095  76.1550  0.00  0.00     0.000 O
ATOM     10   S  IDS C   1     142.708  29.417  74.9620  0.00  0.00     0.000 S
ATOM     11   O  IDS C   1     141.409  29.086  75.5040  0.00  0.00     0.000 OA
ATOM     12   O  IDS C   1     142.645  30.418  73.9160  0.00  0.00     0.000 OA
ATOM     13   O  IDS C   1     143.470  28.249  74.5790  0.00  0.00     0.000 OA
ENDBRANCH 2 9
BRANCH 5 14
ATOM     14   C  IDS C   1     148.557  32.320  77.1540  0.00  0.00     0.000 C
ATOM     15   O  IDS C   1     148.411  33.316  77.8190  0.00  0.00     0.000 OA
ATOM     16   O  IDS C   1     149.658  31.811  77.0250  0.00  0.00     0.000 OA
ENDBRANCH 5 14
BRANCH 1 17
ATOM     17  O4  SGN C   2     143.990  32.880  76.1370  0.00  0.00     0.000 O
BRANCH 17 21
ATOM     18  C1  SGN C   2     141.406  35.691  77.8530  0.00  0.00     0.000 C
ATOM     19  C2  SGN C   2     142.704  35.397  78.6150  0.00  0.00     0.000 C
ATOM     20  C3  SGN C   2     143.706  34.703  77.6840  0.00  0.00     0.000 C
ATOM     21  C4  SGN C   2     143.069  33.474  77.0480  0.00  0.00     0.000 C
ATOM     22  C5  SGN C   2     141.795  33.894  76.3200  0.00  0.00     0.000 C
ATOM     23  O5  SGN C   2     140.885  34.525  77.2500  0.00  0.00     0.000 O
ATOM     24   O  SGN C   2     144.873  34.352  78.4090  0.00  0.00     0.000 O
ATOM     26  HD  SGN C   2     144.417  34.654  77.7380  0.00  0.00     0.000 HD
BRANCH 19 28
ATOM     26   N  SGN C   2     143.069  36.655  79.2800  0.00  0.00     0.000 N
ATOM     28  HD  SGN C   2     142.362  36.861  78.8240  0.00  0.00     0.000 HD
ATOM     28   O  SGN C   2     144.040  37.824  81.2580  0.00  0.00     0.000 OA
ATOM     29   S  SGN C   2     142.850  36.890  80.8550  0.00  0.00     0.000 S
ATOM     30   O  SGN C   2     141.641  37.604  81.0150  0.00  0.00     0.000 OA
ATOM     31   O  SGN C   2     143.017  35.636  81.5060  0.00  0.00     0.000 OA
ENDBRANCH 19 28
BRANCH 22 32
ATOM     32   C  SGN C   2     141.051  32.737  75.6990  0.00  0.00     0.000 C
ATOM     33   S  SGN C   2     138.841  32.302  74.4470  0.00  0.00     0.000 S
ATOM     34   O  SGN C   2     138.062  32.369  75.6580  0.00  0.00     0.000 OA
ATOM     35   O  SGN C   2     138.192  32.911  73.3050  0.00  0.00     0.000 OA
ATOM     36   O  SGN C   2     139.386  30.994  74.1690  0.00  0.00     0.000 OA
ATOM     37   O  SGN C   2     140.106  33.230  74.7420  0.00  0.00     0.000 O
ENDBRANCH 22 32
BRANCH 18 38
ATOM     38  O4  IDS C   3     141.118  36.662  76.9830  0.00  0.00     0.000 O
BRANCH 38 42
ATOM     39  C1  IDS C   3     141.536  39.221  74.6590  0.00  0.00     0.000 C
ATOM     40  C2  IDS C   3     142.467  39.097  75.8750  0.00  0.00     0.000 C
ATOM     41  C3  IDS C   3     141.668  39.002  77.1750  0.00  0.00     0.000 C
ATOM     42  C4  IDS C   3     140.551  37.974  77.0610  0.00  0.00     0.000 C
ATOM     43  C5  IDS C   3     139.711  38.256  75.8100  0.00  0.00     0.000 C
ATOM     44  O5  IDS C   3     140.553  38.199  74.6600  0.00  0.00     0.000 O
ATOM     45   O  IDS C   3     141.116  40.283  77.4850  0.00  0.00     0.000 O
ATOM     47  HD  IDS C   3     140.611  40.849  77.0670  0.00  0.00     0.000 HD
BRANCH 40 47
ATOM     47   O  IDS C   3     143.297  37.873  75.7720  0.00  0.00     0.000 O
ATOM     48   S  IDS C   3     144.782  37.965  75.1880  0.00  0.00     0.000 S
ATOM     49   O  IDS C   3     144.638  38.076  73.7520  0.00  0.00     0.000 OA
ATOM     50   O  IDS C   3     145.425  36.732  75.5860  0.00  0.00     0.000 OA
ATOM     51   O  IDS C   3     145.380  39.132  75.7800  0.00  0.00     0.000 OA
ENDBRANCH 40 47
BRANCH 43 52
ATOM     52   C  IDS C   3     138.561  37.288  75.6460  0.00  0.00     0.000 C
ATOM     53   O  IDS C   3     138.684  36.321  74.9290  0.00  0.00     0.000 OA
ATOM     54   O  IDS C   3     137.526  37.485  76.2310  0.00  0.00     0.000 OA
ENDBRANCH 43 52
BRANCH 39 55
ATOM     55  O4  SGN C   4     141.106  40.386  74.1730  0.00  0.00     0.000 O
BRANCH 55 59
ATOM     56  C1  SGN C   4     143.708  42.124  71.3970  0.00  0.00     0.000 C
ATOM     57  C2  SGN C   4     143.777  42.664  72.8350  0.00  0.00     0.000 C
ATOM     58  C3  SGN C   4     143.092  41.707  73.8070  0.00  0.00     0.000 C
ATOM     59  C4  SGN C   4     141.691  41.357  73.3170  0.00  0.00     0.000 C
ATOM     60  C5  SGN C   4     141.791  40.806  71.8960  0.00  0.00     0.000 C
ATOM     61  O5  SGN C   4     142.364  41.826  71.0550  0.00  0.00     0.000 O
ATOM     62   O  SGN C   4     143.039  42.297  75.0990  0.00  0.00     0.000 O
ATOM     64  HD  SGN C   4     143.740  42.646  74.7300  0.00  0.00     0.000 HD
BRANCH 57 66
ATOM     64   N  SGN C   4     144.423  43.911  72.3940  0.00  0.00     0.000 N
ATOM     66  HD  SGN C   4     144.689  44.645  72.7700  0.00  0.00     0.000 HD
ATOM     66   S  SGN C   4     145.765  44.421  73.0920  0.00  0.00     0.000 S
ATOM     67   O  SGN C   4     146.106  45.663  72.4990  0.00  0.00     0.000 OA
ATOM     68   O  SGN C   4     145.556  44.351  74.4970  0.00  0.00     0.000 OA
ATOM     69   O  SGN C   4     146.824  43.346  72.6880  0.00  0.00     0.000 OA
ENDBRANCH 57 66
BRANCH 60 70
ATOM     70   C  SGN C   4     140.458  40.410  71.3000  0.00  0.00     0.000 C
ATOM     71   O  SGN C   4     138.637  37.163  71.7990  0.00  0.00     0.000 OA
ATOM     72   O  SGN C   4     138.188  39.285  72.8690  0.00  0.00     0.000 OA
ATOM     73   O  SGN C   4     140.186  39.018  71.5500  0.00  0.00     0.000 O
ATOM     74   S  SGN C   4     138.647  38.603  71.6800  0.00  0.00     0.000 S
ATOM     75   O  SGN C   4     138.029  39.086  70.4620  0.00  0.00     0.000 OA
ENDBRANCH 60 70
BRANCH 56 76
ATOM     76  O4  IDS C   5     144.504  41.375  70.6110  0.00  0.00     0.000 O
BRANCH 76 80
ATOM     77  C1  IDS C   5     147.750  40.586  68.2660  0.00  0.00     0.000 C
ATOM     78  C2  IDS C   5     146.971  41.841  67.8700  0.00  0.00     0.000 C
ATOM     79  C3  IDS C   5     146.089  42.283  69.0220  0.00  0.00     0.000 C
ATOM     80  C4  IDS C   5     145.018  41.227  69.2790  0.00  0.00     0.000 C
ATOM     81  C5  IDS C   5     145.626  39.830  69.0910  0.00  0.00     0.000 C
ATOM     82  O5  IDS C   5     147.043  39.869  69.2780  0.00  0.00     0.000 O
BRANCH 78 83
ATOM     83   O  IDS C   5     147.897  42.948  67.5370  0.00  0.00     0.000 O
ATOM     84   S  IDS C   5     147.319  44.314  66.9480  0.00  0.00     0.000 S
ATOM     85   O  IDS C   5     146.429  43.940  65.8820  0.00  0.00     0.000 OA
ATOM     86   O  IDS C   5     146.644  44.948  68.0550  0.00  0.00     0.000 OA
ATOM     87   O  IDS C   5     148.467  45.061  66.4950  0.00  0.00     0.000 OA
ENDBRANCH 78 83
BRANCH 81 88
ATOM     88   C  IDS C   5     145.068  38.783  70.0380  0.00  0.00     0.000 C
ATOM     89   O  IDS C   5     143.898  38.511  70.0070  0.00  0.00     0.000 OA
ATOM     90   O  IDS C   5     145.806  38.228  70.8190  0.00  0.00     0.000 OA
ENDBRANCH 81 88
ENDBRANCH 76 80
ENDBRANCH 56 76
ENDBRANCH 55 59
ENDBRANCH 39 55
ENDBRANCH 38 42
ENDBRANCH 18 38
ENDBRANCH 17 21
ENDBRANCH 1 17
TORSDOF 18
ENDMDL
