MODEL 1
REMARK VINA RESULT:      -9.0      0.000      0.000
ROOT
ATOM      1  C1  BDP B   1      22.020   4.468  20.9870  0.00  0.00     0.000 C
ATOM      2  C2  BDP B   1      20.639   3.840  20.9280  0.00  0.00     0.000 C
ATOM      3  C3  BDP B   1      20.357   2.969  22.1340  0.00  0.00     0.000 C
ATOM      4  C4  BDP B   1      21.327   3.177  23.2910  0.00  0.00     0.000 C
ATOM      5  C5  BDP B   1      22.785   3.200  22.8430  0.00  0.00     0.000 C
ATOM      6  O5  BDP B   1      22.915   3.461  21.4350  0.00  0.00     0.000 O
ATOM      7   O  BDP B   1      19.642   4.863  20.8300  0.00  0.00     0.000 O
ATOM      9  HD  BDP B   1      19.345   5.605  20.4960  0.00  0.00     0.000 HD
ATOM      9   O  BDP B   1      20.414   1.583  21.7610  0.00  0.00     0.000 O
ATOM     11  HD  BDP B   1      20.117   2.325  21.4270  0.00  0.00     0.000 HD
ATOM     11   O  BDP B   1      21.017   4.389  23.9900  0.00  0.00     0.000 O
ATOM     13  HD  BDP B   1      20.720   5.131  23.6570  0.00  0.00     0.000 HD
ENDROOT
BRANCH 5 13
ATOM     13   C  BDP B   1      23.365   1.867  23.1620  0.00  0.00     0.000 C
ATOM     14   O  BDP B   1      22.966   0.879  22.5100  0.00  0.00     0.000 OA
ATOM     15   O  BDP B   1      24.244   1.782  24.0460  0.00  0.00     0.000 OA
ENDBRANCH 5 13
BRANCH 1 16
ATOM     16  O3  NAG B   2      22.416   5.838  20.9750  0.00  0.00     0.000 O
BRANCH 16 19
ATOM     17  C1  NAG B   2      22.279   8.548  23.4030  0.00  0.00     0.000 C
ATOM     18  C2  NAG B   2      22.644   7.108  23.0420  0.00  0.00     0.000 C
ATOM     19  C3  NAG B   2      23.000   7.000  21.5660  0.00  0.00     0.000 C
ATOM     20  C4  NAG B   2      22.574   8.247  20.7870  0.00  0.00     0.000 C
ATOM     21  C5  NAG B   2      21.267   8.897  21.2620  0.00  0.00     0.000 C
ATOM     22  O5  NAG B   2      21.077   8.822  22.6800  0.00  0.00     0.000 O
ATOM     23   O  NAG B   2      23.638   9.202  20.8400  0.00  0.00     0.000 O
ATOM     25  HD  NAG B   2      23.826   9.051  21.6720  0.00  0.00     0.000 HD
ATOM     25   C  NAG B   2      20.058   8.250  20.5710  0.00  0.00     0.000 C
ATOM     26   O  NAG B   2      19.797   8.845  19.2920  0.00  0.00     0.000 O
ATOM     28  HD  NAG B   2      19.985   8.693  20.1230  0.00  0.00     0.000 HD
BRANCH 18 30
ATOM     28   N  NAG B   2      23.753   7.776  23.7210  0.00  0.00     0.000 N
ATOM     30  HD  NAG B   2      24.387   8.353  23.5910  0.00  0.00     0.000 HD
ATOM     30   C  NAG B   2      24.880   7.174  24.1270  0.00  0.00     0.000 C
ATOM     31   C  NAG B   2      25.868   8.076  24.8120  0.00  0.00     0.000 C
ATOM     32   O  NAG B   2      25.106   5.999  23.9570  0.00  0.00     0.000 OA
ENDBRANCH 18 30
BRANCH 17 33
ATOM     33  O4  BDP B   3      21.628   9.529  24.2390  0.00  0.00     0.000 O
BRANCH 33 37
ATOM     34  C1  BDP B   3      19.611  10.620  27.8420  0.00  0.00     0.000 C
ATOM     35  C2  BDP B   3      20.526  11.663  27.2130  0.00  0.00     0.000 C
ATOM     36  C3  BDP B   3      20.865  11.378  25.7540  0.00  0.00     0.000 C
ATOM     37  C4  BDP B   3      21.247   9.899  25.5970  0.00  0.00     0.000 C
ATOM     38  C5  BDP B   3      20.068   9.062  26.1300  0.00  0.00     0.000 C
ATOM     39  O5  BDP B   3      20.041   9.288  27.5390  0.00  0.00     0.000 O
ATOM     40   O  BDP B   3      19.871  12.922  27.3800  0.00  0.00     0.000 O
ATOM     42  HD  BDP B   3      20.228  12.828  28.1630  0.00  0.00     0.000 HD
ATOM     42   O  BDP B   3      21.943  12.245  25.4070  0.00  0.00     0.000 O
ATOM     44  HD  BDP B   3      22.300  12.151  26.1900  0.00  0.00     0.000 HD
BRANCH 38 44
ATOM     44   C  BDP B   3      20.175   7.595  25.8530  0.00  0.00     0.000 C
ATOM     45   O  BDP B   3      21.095   6.959  26.4150  0.00  0.00     0.000 OA
ATOM     46   O  BDP B   3      19.358   7.050  25.0800  0.00  0.00     0.000 OA
ENDBRANCH 38 44
BRANCH 34 47
ATOM     47  O3  NAG B   4      19.956  10.357  29.2010  0.00  0.00     0.000 O
BRANCH 47 50
ATOM     48  C1  NAG B   4      17.000   9.879  31.4770  0.00  0.00     0.000 C
ATOM     49  C2  NAG B   4      17.910  10.600  30.4990  0.00  0.00     0.000 C
ATOM     50  C3  NAG B   4      19.042   9.669  30.0790  0.00  0.00     0.000 C
ATOM     51  C4  NAG B   4      19.801   9.134  31.2830  0.00  0.00     0.000 C
ATOM     52  C5  NAG B   4      18.825   8.482  32.2640  0.00  0.00     0.000 C
ATOM     53  O5  NAG B   4      17.768   9.391  32.5950  0.00  0.00     0.000 O
ATOM     54   O  NAG B   4      20.775   8.187  30.8360  0.00  0.00     0.000 O
ATOM     56  HD  NAG B   4      20.904   8.437  31.6550  0.00  0.00     0.000 HD
ATOM     56   C  NAG B   4      19.534   8.045  33.5410  0.00  0.00     0.000 C
ATOM     57   O  NAG B   4      20.120   9.194  34.1670  0.00  0.00     0.000 O
ATOM     59  HD  NAG B   4      20.249   9.444  34.9860  0.00  0.00     0.000 HD
BRANCH 49 61
ATOM     59   N  NAG B   4      16.858  11.196  29.6740  0.00  0.00     0.000 N
ATOM     61  HD  NAG B   4      17.352  11.411  30.3520  0.00  0.00     0.000 HD
ATOM     61   O  NAG B   4      17.781  13.250  29.4990  0.00  0.00     0.000 OA
ATOM     62   C  NAG B   4      16.920  12.441  29.1860  0.00  0.00     0.000 C
ATOM     63   C  NAG B   4      15.861  12.800  28.1930  0.00  0.00     0.000 C
ENDBRANCH 49 61
BRANCH 48 64
ATOM     64  O4  BDP B   5      15.611   9.991  31.7730  0.00  0.00     0.000 O
BRANCH 64 68
ATOM     65  C1  BDP B   5      13.232   6.902  33.2460  0.00  0.00     0.000 C
ATOM     66  C2  BDP B   5      12.742   7.569  31.9680  0.00  0.00     0.000 C
ATOM     67  C3  BDP B   5      13.884   8.347  31.3260  0.00  0.00     0.000 C
ATOM     68  C4  BDP B   5      14.460   9.349  32.3200  0.00  0.00     0.000 C
ATOM     69  C5  BDP B   5      14.851   8.691  33.6370  0.00  0.00     0.000 C
ATOM     70  O5  BDP B   5      13.771   7.887  34.1420  0.00  0.00     0.000 O
ATOM     71   O  BDP B   5      12.211   6.575  31.0780  0.00  0.00     0.000 O
ATOM     73  HD  BDP B   5      11.922   5.934  30.5720  0.00  0.00     0.000 HD
ATOM     73   O  BDP B   5      13.424   9.047  30.1630  0.00  0.00     0.000 O
ATOM     75  HD  BDP B   5      13.135   8.406  29.6580  0.00  0.00     0.000 HD
BRANCH 69 75
ATOM     75   C  BDP B   5      15.177   9.777  34.6310  0.00  0.00     0.000 C
ATOM     76   O  BDP B   5      14.543  10.851  34.5750  0.00  0.00     0.000 OA
ATOM     77   O  BDP B   5      16.063   9.572  35.4810  0.00  0.00     0.000 OA
ENDBRANCH 69 75
BRANCH 65 78
ATOM     78  O3  NAG B   6      12.447   6.607  34.4040  0.00  0.00     0.000 O
BRANCH 78 81
ATOM     79  C1  NAG B   6      11.397   3.534  36.3510  0.00  0.00     0.000 C
ATOM     80  C2  NAG B   6      11.385   4.569  35.2140  0.00  0.00     0.000 C
ATOM     81  C3  NAG B   6      12.540   5.544  35.3780  0.00  0.00     0.000 C
ATOM     82  C4  NAG B   6      12.562   6.131  36.7930  0.00  0.00     0.000 C
ATOM     83  C5  NAG B   6      12.586   4.997  37.8110  0.00  0.00     0.000 C
ATOM     84  O5  NAG B   6      11.405   4.217  37.6170  0.00  0.00     0.000 O
BRANCH 80 87
ATOM     85   N  NAG B   6      10.396   4.521  34.1410  0.00  0.00     0.000 N
ATOM     87  HD  NAG B   6      10.095   4.822  33.3870  0.00  0.00     0.000 HD
ATOM     87   C  NAG B   6      10.676   4.168  32.8800  0.00  0.00     0.000 C
ATOM     88   C  NAG B   6       9.514   4.149  31.9390  0.00  0.00     0.000 C
ATOM     89   O  NAG B   6      11.802   3.862  32.5060  0.00  0.00     0.000 OA
ENDBRANCH 80 87
ATOM     90   O  NAG B   6      13.907   5.138  39.8320  0.00  0.00     0.000 O
ATOM     92  HD  NAG B   6      13.571   4.613  39.2300  0.00  0.00     0.000 HD
ATOM     92   O  NAG B   6      13.907   5.138  39.8320  0.00  0.00     0.000 O
ATOM     94  HD  NAG B   6      13.571   4.613  39.2300  0.00  0.00     0.000 HD
ENDBRANCH 78 81
ENDBRANCH 65 78
ENDBRANCH 64 68
ENDBRANCH 48 64
ENDBRANCH 47 50
ENDBRANCH 34 47
ENDBRANCH 33 37
ENDBRANCH 17 33
ENDBRANCH 16 19
ENDBRANCH 1 16
TORSDOF 16
ENDMDL
MODEL 2
REMARK VINA RESULT:      -8.5      9.123     17.573
ROOT
ATOM      1  C1  BDP B   1      21.631   4.614  22.9720  0.00  0.00     0.000 C
ATOM      2  C2  BDP B   1      22.884   4.284  23.7630  0.00  0.00     0.000 C
ATOM      3  C3  BDP B   1      23.469   2.944  23.3720  0.00  0.00     0.000 C
ATOM      4  C4  BDP B   1      22.918   2.382  22.0670  0.00  0.00     0.000 C
ATOM      5  C5  BDP B   1      21.397   2.468  21.9830  0.00  0.00     0.000 C
ATOM      6  O5  BDP B   1      20.856   3.425  22.9090  0.00  0.00     0.000 O
ATOM      7   O  BDP B   1      23.864   5.311  23.5720  0.00  0.00     0.000 O
ATOM      9  HD  BDP B   1      24.089   6.145  23.5160  0.00  0.00     0.000 HD
ATOM      9   O  BDP B   1      23.214   1.978  24.4050  0.00  0.00     0.000 O
ATOM     11  HD  BDP B   1      23.439   2.813  24.3480  0.00  0.00     0.000 HD
ATOM     11   O  BDP B   1      23.503   3.057  20.9460  0.00  0.00     0.000 O
ATOM     13  HD  BDP B   1      23.728   3.891  20.8900  0.00  0.00     0.000 HD
ENDROOT
BRANCH 5 13
ATOM     13   C  BDP B   1      20.862   1.113  22.2900  0.00  0.00     0.000 C
ATOM     14   O  BDP B   1      21.677   0.193  22.5070  0.00  0.00     0.000 OA
ATOM     15   O  BDP B   1      19.625   0.947  22.3480  0.00  0.00     0.000 OA
ENDBRANCH 5 13
BRANCH 1 16
ATOM     16  O3  NAG B   2      21.336   5.718  22.1190  0.00  0.00     0.000 O
BRANCH 16 19
ATOM     17  C1  NAG B   2      22.120   8.520  19.9310  0.00  0.00     0.000 C
ATOM     18  C2  NAG B   2      22.496   7.172  20.5450  0.00  0.00     0.000 C
ATOM     19  C3  NAG B   2      21.249   6.352  20.8420  0.00  0.00     0.000 C
ATOM     20  C4  NAG B   2      19.980   7.207  20.7760  0.00  0.00     0.000 C
ATOM     21  C5  NAG B   2      20.140   8.651  21.2700  0.00  0.00     0.000 C
ATOM     22  O5  NAG B   2      21.418   9.219  20.9630  0.00  0.00     0.000 O
ATOM     23   O  NAG B   2      19.501   7.205  19.4270  0.00  0.00     0.000 O
ATOM     25  HD  NAG B   2      20.289   7.274  19.0730  0.00  0.00     0.000 HD
ATOM     25   C  NAG B   2      19.920   8.732  22.7870  0.00  0.00     0.000 C
ATOM     26   O  NAG B   2      18.529   8.858  23.1160  0.00  0.00     0.000 O
ATOM     28  HD  NAG B   2      19.316   8.926  22.7620  0.00  0.00     0.000 HD
BRANCH 18 30
ATOM     28   N  NAG B   2      22.627   7.123  19.0890  0.00  0.00     0.000 N
ATOM     30  HD  NAG B   2      22.169   6.989  18.3660  0.00  0.00     0.000 HD
ATOM     30   C  NAG B   2      23.291   6.177  18.4100  0.00  0.00     0.000 C
ATOM     31   C  NAG B   2      23.290   6.353  16.9170  0.00  0.00     0.000 C
ATOM     32   O  NAG B   2      23.847   5.243  18.9390  0.00  0.00     0.000 OA
ENDBRANCH 18 30
BRANCH 17 33
ATOM     33  O4  BDP B   3      22.397   9.902  19.6170  0.00  0.00     0.000 O
BRANCH 33 37
ATOM     34  C1  BDP B   3      22.620  12.083  15.9510  0.00  0.00     0.000 C
ATOM     35  C2  BDP B   3      23.936  11.663  16.5930  0.00  0.00     0.000 C
ATOM     36  C3  BDP B   3      23.784  10.556  17.6300  0.00  0.00     0.000 C
ATOM     37  C4  BDP B   3      22.605  10.884  18.5590  0.00  0.00     0.000 C
ATOM     38  C5  BDP B   3      21.361  11.069  17.6700  0.00  0.00     0.000 C
ATOM     39  O5  BDP B   3      21.590  12.268  16.9300  0.00  0.00     0.000 O
ATOM     40   O  BDP B   3      24.800  11.283  15.5200  0.00  0.00     0.000 O
ATOM     42  HD  BDP B   3      24.888  12.144  15.4910  0.00  0.00     0.000 HD
ATOM     42   O  BDP B   3      25.018  10.490  18.3430  0.00  0.00     0.000 O
ATOM     44  HD  BDP B   3      25.106  11.351  18.3150  0.00  0.00     0.000 HD
BRANCH 38 44
ATOM     44   C  BDP B   3      20.072  11.178  18.4240  0.00  0.00     0.000 C
ATOM     45   O  BDP B   3      19.296  10.198  18.4010  0.00  0.00     0.000 OA
ATOM     46   O  BDP B   3      19.807  12.230  19.0470  0.00  0.00     0.000 OA
ENDBRANCH 38 44
BRANCH 34 47
ATOM     47  O3  NAG B   4      22.565  13.489  15.7170  0.00  0.00     0.000 O
BRANCH 47 50
ATOM     48  C1  NAG B   4      21.231  14.786  12.4480  0.00  0.00     0.000 C
ATOM     49  C2  NAG B   4      22.221  14.128  13.3930  0.00  0.00     0.000 C
ATOM     50  C3  NAG B   4      21.614  14.051  14.7890  0.00  0.00     0.000 C
ATOM     51  C4  NAG B   4      21.171  15.419  15.2820  0.00  0.00     0.000 C
ATOM     52  C5  NAG B   4      20.233  16.061  14.2600  0.00  0.00     0.000 C
ATOM     53  O5  NAG B   4      20.843  16.075  12.9630  0.00  0.00     0.000 O
ATOM     54   O  NAG B   4      20.515  15.269  16.5440  0.00  0.00     0.000 O
ATOM     56  HD  NAG B   4      20.719  16.092  16.3700  0.00  0.00     0.000 HD
ATOM     56   C  NAG B   4      19.867  17.485  14.6610  0.00  0.00     0.000 C
ATOM     57   O  NAG B   4      21.064  18.269  14.7460  0.00  0.00     0.000 O
ATOM     59  HD  NAG B   4      21.269  19.093  14.5720  0.00  0.00     0.000 HD
BRANCH 49 61
ATOM     59   N  NAG B   4      22.618  12.993  12.5580  0.00  0.00     0.000 N
ATOM     61  HD  NAG B   4      22.880  13.802  12.7220  0.00  0.00     0.000 HD
ATOM     61   O  NAG B   4      24.843  13.164  12.9070  0.00  0.00     0.000 OA
ATOM     62   C  NAG B   4      23.882  12.566  12.4460  0.00  0.00     0.000 C
ATOM     63   C  NAG B   4      24.065  11.269  11.7240  0.00  0.00     0.000 C
ENDBRANCH 49 61
BRANCH 48 64
ATOM     64  O4  BDP B   5      20.994  14.659  11.0490  0.00  0.00     0.000 O
BRANCH 64 68
ATOM     65  C1  BDP B   5      17.821  12.598   9.3010  0.00  0.00     0.000 C
ATOM     66  C2  BDP B   5      19.203  12.297   8.7370  0.00  0.00     0.000 C
ATOM     67  C3  BDP B   5      20.270  12.764   9.7190  0.00  0.00     0.000 C
ATOM     68  C4  BDP B   5      20.081  14.244  10.0340  0.00  0.00     0.000 C
ATOM     69  C5  BDP B   5      18.664  14.556  10.4980  0.00  0.00     0.000 C
ATOM     70  O5  BDP B   5      17.699  14.000   9.5880  0.00  0.00     0.000 O
ATOM     71   O  BDP B   5      19.316  10.892   8.4610  0.00  0.00     0.000 O
ATOM     73  HD  BDP B   5      19.337  10.036   8.3310  0.00  0.00     0.000 HD
ATOM     73   O  BDP B   5      21.579  12.561   9.1730  0.00  0.00     0.000 O
ATOM     75  HD  BDP B   5      21.601  11.705   9.0440  0.00  0.00     0.000 HD
BRANCH 69 75
ATOM     75   C  BDP B   5      18.502  16.054  10.5510  0.00  0.00     0.000 C
ATOM     76   O  BDP B   5      17.938  16.562  11.5410  0.00  0.00     0.000 OA
ATOM     77   O  BDP B   5      18.938  16.741   9.6090  0.00  0.00     0.000 OA
ENDBRANCH 69 75
BRANCH 65 78
ATOM     78  O3  NAG B   6      16.640  12.880   8.5470  0.00  0.00     0.000 O
BRANCH 78 81
ATOM     79  C1  NAG B   6      12.961  12.299   9.2270  0.00  0.00     0.000 C
ATOM     80  C2  NAG B   6      14.428  11.938   8.9440  0.00  0.00     0.000 C
ATOM     81  C3  NAG B   6      15.291  13.189   8.9620  0.00  0.00     0.000 C
ATOM     82  C4  NAG B   6      14.700  14.273   8.0540  0.00  0.00     0.000 C
ATOM     83  C5  NAG B   6      13.253  14.536   8.4560  0.00  0.00     0.000 C
ATOM     84  O5  NAG B   6      12.532  13.312   8.3010  0.00  0.00     0.000 O
BRANCH 80 87
ATOM     85   N  NAG B   6      14.833  10.932   9.9230  0.00  0.00     0.000 N
ATOM     87  HD  NAG B   6      14.799  10.119  10.2180  0.00  0.00     0.000 HD
ATOM     87   C  NAG B   6      15.581   9.861   9.6300  0.00  0.00     0.000 C
ATOM     88   C  NAG B   6      15.916   8.969  10.7830  0.00  0.00     0.000 C
ATOM     89   O  NAG B   6      15.987   9.618   8.5000  0.00  0.00     0.000 OA
ENDBRANCH 80 87
ATOM     90   O  NAG B   6      12.325  16.769   8.4510  0.00  0.00     0.000 O
ATOM     92  HD  NAG B   6      12.301  15.983   8.8150  0.00  0.00     0.000 HD
ATOM     92   O  NAG B   6      12.325  16.769   8.4510  0.00  0.00     0.000 O
ATOM     94  HD  NAG B   6      12.301  15.983   8.8150  0.00  0.00     0.000 HD
ENDBRANCH 78 81
ENDBRANCH 65 78
ENDBRANCH 64 68
ENDBRANCH 48 64
ENDBRANCH 47 50
ENDBRANCH 34 47
ENDBRANCH 33 37
ENDBRANCH 17 33
ENDBRANCH 16 19
ENDBRANCH 1 16
TORSDOF 16
ENDMDL
MODEL 3
REMARK VINA RESULT:      -8.3      4.020     15.610
ROOT
ATOM      1  C1  BDP B   1      14.602   9.799  32.1250  0.00  0.00     0.000 C
ATOM      2  C2  BDP B   1      13.540   9.838  33.2080  0.00  0.00     0.000 C
ATOM      3  C3  BDP B   1      13.396   8.507  33.9140  0.00  0.00     0.000 C
ATOM      4  C4  BDP B   1      14.546   7.540  33.6570  0.00  0.00     0.000 C
ATOM      5  C5  BDP B   1      14.920   7.446  32.1810  0.00  0.00     0.000 C
ATOM      6  O5  BDP B   1      14.439   8.572  31.4280  0.00  0.00     0.000 O
ATOM      7   O  BDP B   1      13.856  10.857  34.1630  0.00  0.00     0.000 O
ATOM      9  HD  BDP B   1      14.122  11.658  34.3600  0.00  0.00     0.000 HD
ATOM      9   O  BDP B   1      12.182   7.861  33.4990  0.00  0.00     0.000 O
ATOM     11  HD  BDP B   1      12.448   8.661  33.6960  0.00  0.00     0.000 HD
ATOM     11   O  BDP B   1      15.696   7.916  34.4250  0.00  0.00     0.000 O
ATOM     13  HD  BDP B   1      15.962   8.716  34.6220  0.00  0.00     0.000 HD
ENDROOT
BRANCH 5 13
ATOM     13   C  BDP B   1      14.317   6.193  31.6520  0.00  0.00     0.000 C
ATOM     14   O  BDP B   1      14.981   5.139  31.7330  0.00  0.00     0.000 OA
ATOM     15   O  BDP B   1      13.163   6.229  31.1720  0.00  0.00     0.000 OA
ENDBRANCH 5 13
BRANCH 1 16
ATOM     16  O3  NAG B   2      15.788  10.574  31.9600  0.00  0.00     0.000 O
BRANCH 16 19
ATOM     17  C1  NAG B   2      18.193  10.694  29.2290  0.00  0.00     0.000 C
ATOM     18  C2  NAG B   2      16.756  10.811  29.7360  0.00  0.00     0.000 C
ATOM     19  C3  NAG B   2      16.734  11.303  31.1760  0.00  0.00     0.000 C
ATOM     20  C4  NAG B   2      18.118  11.218  31.8250  0.00  0.00     0.000 C
ATOM     21  C5  NAG B   2      18.970  10.017  31.3900  0.00  0.00     0.000 C
ATOM     22  O5  NAG B   2      18.785   9.657  30.0150  0.00  0.00     0.000 O
ATOM     23   O  NAG B   2      18.822  12.435  31.5560  0.00  0.00     0.000 O
ATOM     25  HD  NAG B   2      18.547  12.495  30.7370  0.00  0.00     0.000 HD
ATOM     25   C  NAG B   2      18.664   8.792  32.2620  0.00  0.00     0.000 C
ATOM     26   O  NAG B   2      19.433   8.797  33.4730  0.00  0.00     0.000 O
ATOM     28  HD  NAG B   2      19.158   8.857  32.6540  0.00  0.00     0.000 HD
BRANCH 18 30
ATOM     28   N  NAG B   2      17.109  12.070  29.0830  0.00  0.00     0.000 N
ATOM     30  HD  NAG B   2      17.377  12.876  29.2530  0.00  0.00     0.000 HD
ATOM     30   C  NAG B   2      16.243  12.880  28.4570  0.00  0.00     0.000 C
ATOM     31   C  NAG B   2      16.853  14.114  27.8550  0.00  0.00     0.000 C
ATOM     32   O  NAG B   2      15.057  12.655  28.3800  0.00  0.00     0.000 OA
ENDBRANCH 18 30
BRANCH 17 33
ATOM     33  O4  BDP B   3      19.193  10.157  28.3360  0.00  0.00     0.000 O
BRANCH 33 37
ATOM     34  C1  BDP B   3      20.518   8.707  24.5430  0.00  0.00     0.000 C
ATOM     35  C2  BDP B   3      19.057   9.126  24.6580  0.00  0.00     0.000 C
ATOM     36  C3  BDP B   3      18.767  10.006  25.8680  0.00  0.00     0.000 C
ATOM     37  C4  BDP B   3      19.442   9.407  27.1110  0.00  0.00     0.000 C
ATOM     38  C5  BDP B   3      20.944   9.271  26.7950  0.00  0.00     0.000 C
ATOM     39  O5  BDP B   3      21.037   8.252  25.7990  0.00  0.00     0.000 O
ATOM     40   O  BDP B   3      18.729   9.773  23.4260  0.00  0.00     0.000 O
ATOM     42  HD  BDP B   3      18.655   8.943  23.1900  0.00  0.00     0.000 HD
ATOM     42   O  BDP B   3      17.348  10.057  26.0060  0.00  0.00     0.000 O
ATOM     44  HD  BDP B   3      17.273   9.228  25.7700  0.00  0.00     0.000 HD
BRANCH 38 44
ATOM     44   C  BDP B   3      21.793   8.907  27.9720  0.00  0.00     0.000 C
ATOM     45   O  BDP B   3      22.810   9.601  28.1970  0.00  0.00     0.000 OA
ATOM     46   O  BDP B   3      21.472   7.935  28.6900  0.00  0.00     0.000 OA
ENDBRANCH 38 44
BRANCH 34 47
ATOM     47  O3  NAG B   4      20.655   7.368  24.0710  0.00  0.00     0.000 O
BRANCH 47 50
ATOM     48  C1  NAG B   4      23.135   6.978  21.2700  0.00  0.00     0.000 C
ATOM     49  C2  NAG B   4      21.900   7.501  21.9830  0.00  0.00     0.000 C
ATOM     50  C3  NAG B   4      21.856   6.937  23.3990  0.00  0.00     0.000 C
ATOM     51  C4  NAG B   4      21.920   5.418  23.3980  0.00  0.00     0.000 C
ATOM     52  C5  NAG B   4      23.142   4.950  22.6080  0.00  0.00     0.000 C
ATOM     53  O5  NAG B   4      23.147   5.538  21.3010  0.00  0.00     0.000 O
ATOM     54   O  NAG B   4      21.984   4.954  24.7490  0.00  0.00     0.000 O
ATOM     56  HD  NAG B   4      21.800   4.321  24.1880  0.00  0.00     0.000 HD
ATOM     56   C  NAG B   4      23.171   3.432  22.4800  0.00  0.00     0.000 C
ATOM     57   O  NAG B   4      21.987   2.998  21.7980  0.00  0.00     0.000 O
ATOM     59  HD  NAG B   4      21.802   2.365  21.2360  0.00  0.00     0.000 HD
BRANCH 49 61
ATOM     59   N  NAG B   4      20.823   7.174  21.0480  0.00  0.00     0.000 N
ATOM     61  HD  NAG B   4      20.931   7.609  21.7890  0.00  0.00     0.000 HD
ATOM     61   O  NAG B   4      19.837   9.205  21.0480  0.00  0.00     0.000 OA
ATOM     62   C  NAG B   4      19.932   8.069  20.6070  0.00  0.00     0.000 C
ATOM     63   C  NAG B   4      19.043   7.605  19.4970  0.00  0.00     0.000 C
ENDBRANCH 49 61
BRANCH 48 64
ATOM     64  O4  BDP B   5      23.957   7.513  20.2370  0.00  0.00     0.000 O
BRANCH 64 68
ATOM     65  C1  BDP B   5      24.641   5.700  16.5470  0.00  0.00     0.000 C
ATOM     66  C2  BDP B   5      25.792   5.642  17.5420  0.00  0.00     0.000 C
ATOM     67  C3  BDP B   5      25.274   5.939  18.9430  0.00  0.00     0.000 C
ATOM     68  C4  BDP B   5      24.557   7.285  18.9620  0.00  0.00     0.000 C
ATOM     69  C5  BDP B   5      23.476   7.376  17.8930  0.00  0.00     0.000 C
ATOM     70  O5  BDP B   5      23.998   6.983  16.6120  0.00  0.00     0.000 O
ATOM     71   O  BDP B   5      26.424   4.354  17.4720  0.00  0.00     0.000 O
ATOM     73  HD  BDP B   5      26.755   3.557  17.4040  0.00  0.00     0.000 HD
ATOM     73   O  BDP B   5      26.354   5.965  19.8840  0.00  0.00     0.000 O
ATOM     75  HD  BDP B   5      26.684   5.167  19.8160  0.00  0.00     0.000 HD
BRANCH 69 75
ATOM     75   C  BDP B   5      22.996   8.803  17.8260  0.00  0.00     0.000 C
ATOM     76   O  BDP B   5      21.935   9.108  18.4080  0.00  0.00     0.000 OA
ATOM     77   O  BDP B   5      23.672   9.638  17.1950  0.00  0.00     0.000 OA
ENDBRANCH 69 75
BRANCH 65 78
ATOM     78  O3  NAG B   6      24.730   6.068  15.1670  0.00  0.00     0.000 O
BRANCH 78 81
ATOM     79  C1  NAG B   6      23.630   4.497  11.9030  0.00  0.00     0.000 C
ATOM     80  C2  NAG B   6      24.465   4.683  13.1800  0.00  0.00     0.000 C
ATOM     81  C3  NAG B   6      23.868   5.782  14.0440  0.00  0.00     0.000 C
ATOM     82  C4  NAG B   6      23.637   7.056  13.2240  0.00  0.00     0.000 C
ATOM     83  C5  NAG B   6      22.788   6.725  12.0020  0.00  0.00     0.000 C
ATOM     84  O5  NAG B   6      23.502   5.761  11.2280  0.00  0.00     0.000 O
BRANCH 80 87
ATOM     85   N  NAG B   6      24.558   3.369  13.8090  0.00  0.00     0.000 N
ATOM     87  HD  NAG B   6      24.901   2.574  13.8350  0.00  0.00     0.000 HD
ATOM     87   C  NAG B   6      25.656   2.907  14.4200  0.00  0.00     0.000 C
ATOM     88   C  NAG B   6      25.534   1.547  15.0320  0.00  0.00     0.000 C
ATOM     89   O  NAG B   6      26.698   3.547  14.4970  0.00  0.00     0.000 OA
ENDBRANCH 80 87
ATOM     90   O  NAG B   6      21.076   8.235  11.2060  0.00  0.00     0.000 O
ATOM     92  HD  NAG B   6      21.327   7.409  11.2750  0.00  0.00     0.000 HD
ATOM     92   O  NAG B   6      21.076   8.235  11.2060  0.00  0.00     0.000 O
ATOM     94  HD  NAG B   6      21.327   7.409  11.2750  0.00  0.00     0.000 HD
ENDBRANCH 78 81
ENDBRANCH 65 78
ENDBRANCH 64 68
ENDBRANCH 48 64
ENDBRANCH 47 50
ENDBRANCH 34 47
ENDBRANCH 33 37
ENDBRANCH 17 33
ENDBRANCH 16 19
ENDBRANCH 1 16
TORSDOF 16
ENDMDL
MODEL 4
REMARK VINA RESULT:      -8.1      9.953     17.956
ROOT
ATOM      1  C1  BDP B   1      22.650   7.011  21.9990  0.00  0.00     0.000 C
ATOM      2  C2  BDP B   1      22.906   5.515  21.9780  0.00  0.00     0.000 C
ATOM      3  C3  BDP B   1      21.692   4.723  22.4140  0.00  0.00     0.000 C
ATOM      4  C4  BDP B   1      20.399   5.530  22.4360  0.00  0.00     0.000 C
ATOM      5  C5  BDP B   1      20.560   6.885  23.1180  0.00  0.00     0.000 C
ATOM      6  O5  BDP B   1      21.936   7.293  23.1940  0.00  0.00     0.000 O
ATOM      7   O  BDP B   1      23.299   5.107  20.6630  0.00  0.00     0.000 O
ATOM      9  HD  BDP B   1      23.760   5.221  19.9380  0.00  0.00     0.000 HD
ATOM      9   O  BDP B   1      21.899   4.195  23.7330  0.00  0.00     0.000 O
ATOM     11  HD  BDP B   1      22.359   4.309  23.0090  0.00  0.00     0.000 HD
ATOM     11   O  BDP B   1      19.902   5.715  21.1040  0.00  0.00     0.000 O
ATOM     13  HD  BDP B   1      20.363   5.829  20.3800  0.00  0.00     0.000 HD
ENDROOT
BRANCH 5 13
ATOM     13   C  BDP B   1      19.997   6.757  24.4910  0.00  0.00     0.000 C
ATOM     14   O  BDP B   1      20.526   5.936  25.2700  0.00  0.00     0.000 OA
ATOM     15   O  BDP B   1      19.040   7.486  24.8260  0.00  0.00     0.000 OA
ENDBRANCH 5 13
BRANCH 1 16
ATOM     16  O3  NAG B   2      22.730   7.980  20.9560  0.00  0.00     0.000 O
BRANCH 16 19
ATOM     17  C1  NAG B   2      22.860  10.585  18.4160  0.00  0.00     0.000 C
ATOM     18  C2  NAG B   2      23.485   9.868  19.6130  0.00  0.00     0.000 C
ATOM     19  C3  NAG B   2      23.071   8.404  19.6350  0.00  0.00     0.000 C
ATOM     20  C4  NAG B   2      21.899   8.131  18.6870  0.00  0.00     0.000 C
ATOM     21  C5  NAG B   2      20.870   9.265  18.5800  0.00  0.00     0.000 C
ATOM     22  O5  NAG B   2      21.452  10.571  18.6630  0.00  0.00     0.000 O
ATOM     23   O  NAG B   2      22.425   7.828  17.3910  0.00  0.00     0.000 O
ATOM     25  HD  NAG B   2      23.042   8.435  17.4220  0.00  0.00     0.000 HD
ATOM     25   C  NAG B   2      19.803   9.133  19.6750  0.00  0.00     0.000 C
ATOM     26   O  NAG B   2      18.747   8.244  19.2830  0.00  0.00     0.000 O
ATOM     28  HD  NAG B   2      19.364   8.851  19.3150  0.00  0.00     0.000 HD
BRANCH 18 30
ATOM     28   N  NAG B   2      24.444   9.941  18.5120  0.00  0.00     0.000 N
ATOM     30  HD  NAG B   2      24.692   9.528  17.7920  0.00  0.00     0.000 HD
ATOM     30   C  NAG B   2      25.767   9.761  18.6330  0.00  0.00     0.000 C
ATOM     31   C  NAG B   2      26.544   9.899  17.3550  0.00  0.00     0.000 C
ATOM     32   O  NAG B   2      26.311   9.501  19.6820  0.00  0.00     0.000 OA
ENDBRANCH 18 30
BRANCH 17 33
ATOM     33  O4  BDP B   3      22.411  11.775  17.7320  0.00  0.00     0.000 O
BRANCH 33 37
ATOM     34  C1  BDP B   3      20.693  13.052  14.0360  0.00  0.00     0.000 C
ATOM     35  C2  BDP B   3      21.941  12.181  13.9600  0.00  0.00     0.000 C
ATOM     36  C3  BDP B   3      22.241  11.430  15.2530  0.00  0.00     0.000 C
ATOM     37  C4  BDP B   3      22.105  12.388  16.4450  0.00  0.00     0.000 C
ATOM     38  C5  BDP B   3      20.685  12.984  16.3950  0.00  0.00     0.000 C
ATOM     39  O5  BDP B   3      20.660  13.825  15.2420  0.00  0.00     0.000 O
ATOM     40   O  BDP B   3      21.745  11.298  12.8540  0.00  0.00     0.000 O
ATOM     42  HD  BDP B   3      22.005  12.011  12.4380  0.00  0.00     0.000 HD
ATOM     42   O  BDP B   3      23.567  10.918  15.1310  0.00  0.00     0.000 O
ATOM     44  HD  BDP B   3      23.827  11.632  14.7150  0.00  0.00     0.000 HD
BRANCH 38 44
ATOM     44   C  BDP B   3      20.301  13.773  17.6070  0.00  0.00     0.000 C
ATOM     45   O  BDP B   3      19.775  13.161  18.5620  0.00  0.00     0.000 OA
ATOM     46   O  BDP B   3      20.513  15.005  17.6340  0.00  0.00     0.000 OA
ENDBRANCH 38 44
BRANCH 34 47
ATOM     47  O3  NAG B   4      20.854  14.279  13.3260  0.00  0.00     0.000 O
BRANCH 47 50
ATOM     48  C1  NAG B   4      18.565  15.346  10.5390  0.00  0.00     0.000 C
ATOM     49  C2  NAG B   4      19.713  14.604  11.2000  0.00  0.00     0.000 C
ATOM     50  C3  NAG B   4      19.730  14.922  12.6910  0.00  0.00     0.000 C
ATOM     51  C4  NAG B   4      19.793  16.420  12.9430  0.00  0.00     0.000 C
ATOM     52  C5  NAG B   4      18.657  17.120  12.1960  0.00  0.00     0.000 C
ATOM     53  O5  NAG B   4      18.672  16.757  10.8100  0.00  0.00     0.000 O
ATOM     54   O  NAG B   4      19.697  16.660  14.3490  0.00  0.00     0.000 O
ATOM     56  HD  NAG B   4      19.962  17.357  13.9090  0.00  0.00     0.000 HD
ATOM     56   C  NAG B   4      18.762  18.635  12.3240  0.00  0.00     0.000 C
ATOM     57   O  NAG B   4      20.013  19.065  11.7690  0.00  0.00     0.000 O
ATOM     59  HD  NAG B   4      20.278  19.762  11.3290  0.00  0.00     0.000 HD
BRANCH 49 61
ATOM     59   N  NAG B   4      19.513  13.283  10.6020  0.00  0.00     0.000 N
ATOM     61  HD  NAG B   4      19.964  14.005  10.4460  0.00  0.00     0.000 HD
ATOM     61   O  NAG B   4      21.673  12.895  10.0710  0.00  0.00     0.000 OA
ATOM     62   C  NAG B   4      20.515  12.515  10.1580  0.00  0.00     0.000 C
ATOM     63   C  NAG B   4      20.140  11.117   9.7800  0.00  0.00     0.000 C
ENDBRANCH 49 61
BRANCH 48 64
ATOM     64  O4  BDP B   5      17.756  15.065   9.4000  0.00  0.00     0.000 O
BRANCH 64 68
ATOM     65  C1  BDP B   5      13.951  13.368   9.5070  0.00  0.00     0.000 C
ATOM     66  C2  BDP B   5      14.944  12.719   8.5530  0.00  0.00     0.000 C
ATOM     67  C3  BDP B   5      16.361  13.139   8.9230  0.00  0.00     0.000 C
ATOM     68  C4  BDP B   5      16.471  14.660   8.9300  0.00  0.00     0.000 C
ATOM     69  C5  BDP B   5      15.407  15.310   9.8040  0.00  0.00     0.000 C
ATOM     70  O5  BDP B   5      14.103  14.796   9.4800  0.00  0.00     0.000 O
ATOM     71   O  BDP B   5      14.787  11.292   8.5920  0.00  0.00     0.000 O
ATOM     73  HD  BDP B   5      14.665  10.438   8.6690  0.00  0.00     0.000 HD
ATOM     73   O  BDP B   5      17.306  12.601   7.9910  0.00  0.00     0.000 O
ATOM     75  HD  BDP B   5      17.183  11.747   8.0680  0.00  0.00     0.000 HD
BRANCH 69 75
ATOM     75   C  BDP B   5      15.437  16.797   9.5610  0.00  0.00     0.000 C
ATOM     76   O  BDP B   5      15.483  17.565  10.5430  0.00  0.00     0.000 OA
ATOM     77   O  BDP B   5      15.420  17.217   8.3890  0.00  0.00     0.000 OA
ENDBRANCH 69 75
BRANCH 65 78
ATOM     78  O3  NAG B   6      12.601  13.734   9.2070  0.00  0.00     0.000 O
BRANCH 78 81
ATOM     79  C1  NAG B   6       9.302  12.992  10.9090  0.00  0.00     0.000 C
ATOM     80  C2  NAG B   6      10.597  12.703  10.1340  0.00  0.00     0.000 C
ATOM     81  C3  NAG B   6      11.458  13.954  10.0610  0.00  0.00     0.000 C
ATOM     82  C4  NAG B   6      10.644  15.147   9.5480  0.00  0.00     0.000 C
ATOM     83  C5  NAG B   6       9.401  15.322  10.4140  0.00  0.00     0.000 C
ATOM     84  O5  NAG B   6       8.634  14.122  10.3180  0.00  0.00     0.000 O
BRANCH 80 87
ATOM     85   N  NAG B   6      11.310  11.604  10.7800  0.00  0.00     0.000 N
ATOM     87  HD  NAG B   6      11.362  10.765  10.9870  0.00  0.00     0.000 HD
ATOM     87   C  NAG B   6      11.848  10.571  10.1210  0.00  0.00     0.000 C
ATOM     88   C  NAG B   6      12.567   9.567  10.9650  0.00  0.00     0.000 C
ATOM     89   O  NAG B   6      11.779  10.445   8.9040  0.00  0.00     0.000 OA
ENDBRANCH 80 87
ATOM     90   O  NAG B   6       8.581  17.515  11.0200  0.00  0.00     0.000 O
ATOM     92  HD  NAG B   6       8.649  16.685  11.2560  0.00  0.00     0.000 HD
ATOM     92   O  NAG B   6       8.581  17.515  11.0200  0.00  0.00     0.000 O
ATOM     94  HD  NAG B   6       8.649  16.685  11.2560  0.00  0.00     0.000 HD
ENDBRANCH 78 81
ENDBRANCH 65 78
ENDBRANCH 64 68
ENDBRANCH 48 64
ENDBRANCH 47 50
ENDBRANCH 34 47
ENDBRANCH 33 37
ENDBRANCH 17 33
ENDBRANCH 16 19
ENDBRANCH 1 16
TORSDOF 16
ENDMDL
MODEL 5
REMARK VINA RESULT:      -8.1     12.978     19.393
ROOT
ATOM      1  C1  BDP B   1      23.197  12.167  17.4660  0.00  0.00     0.000 C
ATOM      2  C2  BDP B   1      24.277  11.435  18.2420  0.00  0.00     0.000 C
ATOM      3  C3  BDP B   1      23.925   9.981  18.4760  0.00  0.00     0.000 C
ATOM      4  C4  BDP B   1      22.777   9.472  17.6120  0.00  0.00     0.000 C
ATOM      5  C5  BDP B   1      21.586  10.426  17.5900  0.00  0.00     0.000 C
ATOM      6  O5  BDP B   1      21.949  11.754  18.0030  0.00  0.00     0.000 O
ATOM      7   O  BDP B   1      25.523  11.520  17.5410  0.00  0.00     0.000 O
ATOM      9  HD  BDP B   1      26.113  11.969  17.0940  0.00  0.00     0.000 HD
ATOM      9   O  BDP B   1      23.557   9.782  19.8500  0.00  0.00     0.000 O
ATOM     11  HD  BDP B   1      24.148  10.231  19.4030  0.00  0.00     0.000 HD
ATOM     11   O  BDP B   1      23.229   9.232  16.2730  0.00  0.00     0.000 O
ATOM     13  HD  BDP B   1      23.819   9.681  15.8260  0.00  0.00     0.000 HD
ENDROOT
BRANCH 5 13
ATOM     13   C  BDP B   1      20.562   9.873  18.5180  0.00  0.00     0.000 C
ATOM     14   O  BDP B   1      20.731   8.718  18.9620  0.00  0.00     0.000 OA
ATOM     15   O  BDP B   1      19.588  10.585  18.8420  0.00  0.00     0.000 OA
ENDBRANCH 5 13
BRANCH 1 16
ATOM     16  O3  NAG B   2      23.257  12.858  16.2200  0.00  0.00     0.000 O
BRANCH 16 19
ATOM     17  C1  NAG B   2      21.997  14.664  13.3200  0.00  0.00     0.000 C
ATOM     18  C2  NAG B   2      23.104  14.402  14.3410  0.00  0.00     0.000 C
ATOM     19  C3  NAG B   2      23.072  12.954  14.8070  0.00  0.00     0.000 C
ATOM     20  C4  NAG B   2      21.768  12.259  14.4080  0.00  0.00     0.000 C
ATOM     21  C5  NAG B   2      20.518  13.150  14.4390  0.00  0.00     0.000 C
ATOM     22  O5  NAG B   2      20.774  14.503  14.0440  0.00  0.00     0.000 O
ATOM     23   O  NAG B   2      21.932  11.700  13.1010  0.00  0.00     0.000 O
ATOM     25  HD  NAG B   2      22.368  12.379  12.7880  0.00  0.00     0.000 HD
ATOM     25   C  NAG B   2      19.895  13.159  15.8420  0.00  0.00     0.000 C
ATOM     26   O  NAG B   2      19.010  12.047  16.0370  0.00  0.00     0.000 O
ATOM     28  HD  NAG B   2      19.446  12.727  15.7250  0.00  0.00     0.000 HD
BRANCH 18 30
ATOM     28   N  NAG B   2      23.778  14.863  13.1280  0.00  0.00     0.000 N
ATOM     30  HD  NAG B   2      23.706  14.864  12.2650  0.00  0.00     0.000 HD
ATOM     30   C  NAG B   2      24.942  14.384  12.6660  0.00  0.00     0.000 C
ATOM     31   C  NAG B   2      25.435  15.030  11.4030  0.00  0.00     0.000 C
ATOM     32   O  NAG B   2      25.558  13.496  13.2080  0.00  0.00     0.000 OA
ENDBRANCH 18 30
BRANCH 17 33
ATOM     33  O4  BDP B   3      21.096  15.541  12.6110  0.00  0.00     0.000 O
BRANCH 33 37
ATOM     34  C1  BDP B   3      17.411  15.443  10.4530  0.00  0.00     0.000 C
ATOM     35  C2  BDP B   3      18.515  14.500   9.9900  0.00  0.00     0.000 C
ATOM     36  C3  BDP B   3      19.608  14.282  11.0300  0.00  0.00     0.000 C
ATOM     37  C4  BDP B   3      20.023  15.635  11.6280  0.00  0.00     0.000 C
ATOM     38  C5  BDP B   3      18.752  16.291  12.1990  0.00  0.00     0.000 C
ATOM     39  O5  BDP B   3      17.946  16.621  11.0680  0.00  0.00     0.000 O
ATOM     40   O  BDP B   3      17.870  13.280   9.6190  0.00  0.00     0.000 O
ATOM     42  HD  BDP B   3      17.732  13.750   8.9050  0.00  0.00     0.000 HD
ATOM     42   O  BDP B   3      20.693  13.644  10.3570  0.00  0.00     0.000 O
ATOM     44  HD  BDP B   3      20.555  14.115   9.6430  0.00  0.00     0.000 HD
BRANCH 38 44
ATOM     44   C  BDP B   3      19.003  17.520  13.0170  0.00  0.00     0.000 C
ATOM     45   O  BDP B   3      19.356  18.559  12.4180  0.00  0.00     0.000 OA
ATOM     46   O  BDP B   3      18.858  17.476  14.2580  0.00  0.00     0.000 OA
ENDBRANCH 38 44
BRANCH 34 47
ATOM     47  O3  NAG B   4      16.946  16.280   9.3950  0.00  0.00     0.000 O
BRANCH 47 50
ATOM     48  C1  NAG B   4      13.194  16.521   9.2780  0.00  0.00     0.000 C
ATOM     49  C2  NAG B   4      14.553  15.844   9.2830  0.00  0.00     0.000 C
ATOM     50  C3  NAG B   4      15.643  16.895   9.4550  0.00  0.00     0.000 C
ATOM     51  C4  NAG B   4      15.545  17.981   8.3950  0.00  0.00     0.000 C
ATOM     52  C5  NAG B   4      14.137  18.576   8.3890  0.00  0.00     0.000 C
ATOM     53  O5  NAG B   4      13.156  17.539   8.2590  0.00  0.00     0.000 O
ATOM     54   O  NAG B   4      16.519  18.990   8.6710  0.00  0.00     0.000 O
ATOM     56  HD  NAG B   4      16.186  19.058   7.8750  0.00  0.00     0.000 HD
ATOM     56   C  NAG B   4      13.965  19.580   7.2550  0.00  0.00     0.000 C
ATOM     57   O  NAG B   4      14.190  18.916   6.0050  0.00  0.00     0.000 O
ATOM     59  HD  NAG B   4      13.856  18.984   5.2080  0.00  0.00     0.000 HD
BRANCH 49 61
ATOM     59   N  NAG B   4      14.317  14.984   8.1220  0.00  0.00     0.000 N
ATOM     61  HD  NAG B   4      14.944  15.139   8.6990  0.00  0.00     0.000 HD
ATOM     61   O  NAG B   4      15.229  13.106   8.9850  0.00  0.00     0.000 OA
ATOM     62   C  NAG B   4      14.608  13.678   8.1010  0.00  0.00     0.000 C
ATOM     63   C  NAG B   4      14.101  12.921   6.9140  0.00  0.00     0.000 C
ENDBRANCH 49 61
BRANCH 48 64
ATOM     64  O4  BDP B   5      11.894  16.091   9.6720  0.00  0.00     0.000 O
BRANCH 64 68
ATOM     65  C1  BDP B   5       8.058  15.779  11.2700  0.00  0.00     0.000 C
ATOM     66  C2  BDP B   5       8.572  17.194  11.0420  0.00  0.00     0.000 C
ATOM     67  C3  BDP B   5       9.757  17.161  10.0850  0.00  0.00     0.000 C
ATOM     68  C4  BDP B   5      10.838  16.229  10.6220  0.00  0.00     0.000 C
ATOM     69  C5  BDP B   5      10.294  14.844  10.9470  0.00  0.00     0.000 C
ATOM     70  O5  BDP B   5       9.115  14.944  11.7660  0.00  0.00     0.000 O
ATOM     71   O  BDP B   5       7.509  18.019  10.5410  0.00  0.00     0.000 O
ATOM     73  HD  BDP B   5       6.839  18.465  10.2230  0.00  0.00     0.000 HD
ATOM     73   O  BDP B   5      10.305  18.473   9.9180  0.00  0.00     0.000 O
ATOM     75  HD  BDP B   5       9.635  18.920   9.5990  0.00  0.00     0.000 HD
BRANCH 69 75
ATOM     75   C  BDP B   5      11.359  14.079  11.6890  0.00  0.00     0.000 C
ATOM     76   O  BDP B   5      12.113  14.699  12.4660  0.00  0.00     0.000 OA
ATOM     77   O  BDP B   5      11.455  12.850  11.5100  0.00  0.00     0.000 OA
ENDBRANCH 69 75
BRANCH 65 78
ATOM     78  O3  NAG B   6       7.421  15.288  12.4530  0.00  0.00     0.000 O
BRANCH 78 81
ATOM     79  C1  NAG B   6       4.429  13.376  13.7660  0.00  0.00     0.000 C
ATOM     80  C2  NAG B   6       5.282  14.600  13.3940  0.00  0.00     0.000 C
ATOM     81  C3  NAG B   6       6.544  14.161  12.6690  0.00  0.00     0.000 C
ATOM     82  C4  NAG B   6       7.277  13.072  13.4600  0.00  0.00     0.000 C
ATOM     83  C5  NAG B   6       6.318  11.922  13.7450  0.00  0.00     0.000 C
ATOM     84  O5  NAG B   6       5.232  12.444  14.5120  0.00  0.00     0.000 O
BRANCH 80 87
ATOM     85   N  NAG B   6       4.797  15.588  12.4350  0.00  0.00     0.000 N
ATOM     87  HD  NAG B   6       4.158  16.090  12.1360  0.00  0.00     0.000 HD
ATOM     87   C  NAG B   6       4.435  16.835  12.7620  0.00  0.00     0.000 C
ATOM     88   C  NAG B   6       4.000  17.704  11.6260  0.00  0.00     0.000 C
ATOM     89   O  NAG B   6       4.464  17.259  13.9110  0.00  0.00     0.000 OA
ENDBRANCH 80 87
ATOM     90   O  NAG B   6       7.045   9.617  13.6560  0.00  0.00     0.000 O
ATOM     92  HD  NAG B   6       6.383  10.164  13.5470  0.00  0.00     0.000 HD
ATOM     92   O  NAG B   6       7.045   9.617  13.6560  0.00  0.00     0.000 O
ATOM     94  HD  NAG B   6       6.383  10.164  13.5470  0.00  0.00     0.000 HD
ENDBRANCH 78 81
ENDBRANCH 65 78
ENDBRANCH 64 68
ENDBRANCH 48 64
ENDBRANCH 47 50
ENDBRANCH 34 47
ENDBRANCH 33 37
ENDBRANCH 17 33
ENDBRANCH 16 19
ENDBRANCH 1 16
TORSDOF 16
ENDMDL
MODEL 6
REMARK VINA RESULT:      -8.1     16.021     21.555
ROOT
ATOM      1  C1  BDP B   1      15.322  18.781  21.7350  0.00  0.00     0.000 C
ATOM      2  C2  BDP B   1      15.952  17.408  21.8810  0.00  0.00     0.000 C
ATOM      3  C3  BDP B   1      16.158  17.027  23.3310  0.00  0.00     0.000 C
ATOM      4  C4  BDP B   1      15.392  17.901  24.3180  0.00  0.00     0.000 C
ATOM      5  C5  BDP B   1      15.532  19.390  24.0200  0.00  0.00     0.000 C
ATOM      6  O5  BDP B   1      15.964  19.634  22.6710  0.00  0.00     0.000 O
ATOM      7   O  BDP B   1      15.134  16.425  21.2370  0.00  0.00     0.000 O
ATOM      9  HD  BDP B   1      14.649  16.159  20.5710  0.00  0.00     0.000 HD
ATOM      9   O  BDP B   1      17.552  17.110  23.6670  0.00  0.00     0.000 O
ATOM     11  HD  BDP B   1      17.068  16.843  23.0000  0.00  0.00     0.000 HD
ATOM     11   O  BDP B   1      14.006  17.539  24.3340  0.00  0.00     0.000 O
ATOM     13  HD  BDP B   1      13.521  17.272  23.6670  0.00  0.00     0.000 HD
ENDROOT
BRANCH 5 13
ATOM     13   C  BDP B   1      16.534  19.939  24.9750  0.00  0.00     0.000 C
ATOM     14   O  BDP B   1      17.011  21.069  24.7440  0.00  0.00     0.000 OA
ATOM     15   O  BDP B   1      16.842  19.269  25.9840  0.00  0.00     0.000 OA
ENDBRANCH 5 13
BRANCH 1 16
ATOM     16  O3  NAG B   2      14.107  19.181  21.1030  0.00  0.00     0.000 O
BRANCH 16 19
ATOM     17  C1  NAG B   2      11.018  20.394  19.6050  0.00  0.00     0.000 C
ATOM     18  C2  NAG B   2      12.511  20.564  19.8880  0.00  0.00     0.000 C
ATOM     19  C3  NAG B   2      13.191  19.208  20.0070  0.00  0.00     0.000 C
ATOM     20  C4  NAG B   2      12.174  18.074  20.1560  0.00  0.00     0.000 C
ATOM     21  C5  NAG B   2      10.918  18.427  20.9650  0.00  0.00     0.000 C
ATOM     22  O5  NAG B   2      10.482  19.779  20.7790  0.00  0.00     0.000 O
ATOM     23   O  NAG B   2      11.798  17.626  18.8490  0.00  0.00     0.000 O
ATOM     25  HD  NAG B   2      11.763  18.422  18.5100  0.00  0.00     0.000 HD
ATOM     25   C  NAG B   2      11.157  18.192  22.4630  0.00  0.00     0.000 C
ATOM     26   O  NAG B   2      10.914  16.827  22.8320  0.00  0.00     0.000 O
ATOM     28  HD  NAG B   2      10.879  17.623  22.4920  0.00  0.00     0.000 HD
BRANCH 18 30
ATOM     28   N  NAG B   2      12.199  20.861  18.4900  0.00  0.00     0.000 N
ATOM     30  HD  NAG B   2      11.953  20.485  17.7500  0.00  0.00     0.000 HD
ATOM     30   C  NAG B   2      13.093  21.251  17.5700  0.00  0.00     0.000 C
ATOM     31   C  NAG B   2      12.523  21.506  16.2040  0.00  0.00     0.000 C
ATOM     32   O  NAG B   2      14.272  21.386  17.8020  0.00  0.00     0.000 OA
ENDBRANCH 18 30
BRANCH 17 33
ATOM     33  O4  BDP B   3       9.655  20.870  19.6120  0.00  0.00     0.000 O
BRANCH 33 37
ATOM     34  C1  BDP B   3       6.480  20.858  16.7540  0.00  0.00     0.000 C
ATOM     35  C2  BDP B   3       7.416  22.061  16.7520  0.00  0.00     0.000 C
ATOM     36  C3  BDP B   3       8.734  21.811  17.4760  0.00  0.00     0.000 C
ATOM     37  C4  BDP B   3       8.457  21.120  18.8190  0.00  0.00     0.000 C
ATOM     38  C5  BDP B   3       7.667  19.832  18.5170  0.00  0.00     0.000 C
ATOM     39  O5  BDP B   3       6.388  20.264  18.0540  0.00  0.00     0.000 O
ATOM     40   O  BDP B   3       7.610  22.413  15.3800  0.00  0.00     0.000 O
ATOM     42  HD  BDP B   3       6.845  22.789  15.5290  0.00  0.00     0.000 HD
ATOM     42   O  BDP B   3       9.353  23.085  17.6520  0.00  0.00     0.000 O
ATOM     44  HD  BDP B   3       8.587  23.460  17.8010  0.00  0.00     0.000 HD
BRANCH 38 44
ATOM     44   C  BDP B   3       7.500  18.918  19.6900  0.00  0.00     0.000 C
ATOM     45   O  BDP B   3       7.898  17.738  19.5740  0.00  0.00     0.000 OA
ATOM     46   O  BDP B   3       6.975  19.349  20.7400  0.00  0.00     0.000 OA
ENDBRANCH 38 44
BRANCH 34 47
ATOM     47  O3  NAG B   4       5.115  21.244  16.9000  0.00  0.00     0.000 O
BRANCH 47 50
ATOM     48  C1  NAG B   4       2.820  19.131  14.7980  0.00  0.00     0.000 C
ATOM     49  C2  NAG B   4       3.993  20.046  15.1010  0.00  0.00     0.000 C
ATOM     50  C3  NAG B   4       4.047  20.322  16.5990  0.00  0.00     0.000 C
ATOM     51  C4  NAG B   4       2.731  20.885  17.1120  0.00  0.00     0.000 C
ATOM     52  C5  NAG B   4       1.581  19.959  16.7170  0.00  0.00     0.000 C
ATOM     53  O5  NAG B   4       1.602  19.710  15.3050  0.00  0.00     0.000 O
ATOM     54   O  NAG B   4       2.805  21.021  18.5330  0.00  0.00     0.000 O
ATOM     56  HD  NAG B   4       2.132  21.446  18.1920  0.00  0.00     0.000 HD
ATOM     56   C  NAG B   4       0.232  20.554  17.1050  0.00  0.00     0.000 C
ATOM     57   O  NAG B   4       0.065  21.809  16.4340  0.00  0.00     0.000 O
ATOM     59  HD  NAG B   4      -0.608  22.235  16.0930  0.00  0.00     0.000 HD
BRANCH 49 61
ATOM     59   N  NAG B   4       3.740  20.999  14.0190  0.00  0.00     0.000 N
ATOM     61  HD  NAG B   4       4.314  20.876  14.6560  0.00  0.00     0.000 HD
ATOM     61   O  NAG B   4       5.885  21.229  13.3510  0.00  0.00     0.000 OA
ATOM     62   C  NAG B   4       4.693  21.449  13.1950  0.00  0.00     0.000 C
ATOM     63   C  NAG B   4       4.212  22.244  12.0230  0.00  0.00     0.000 C
ENDBRANCH 49 61
BRANCH 48 64
ATOM     64  O4  BDP B   5       2.585  18.159  13.7830  0.00  0.00     0.000 O
BRANCH 64 68
ATOM     65  C1  BDP B   5       5.582  16.246  11.6090  0.00  0.00     0.000 C
ATOM     66  C2  BDP B   5       4.659  17.158  10.8120  0.00  0.00     0.000 C
ATOM     67  C3  BDP B   5       3.922  18.095  11.7600  0.00  0.00     0.000 C
ATOM     68  C4  BDP B   5       3.173  17.290  12.8160  0.00  0.00     0.000 C
ATOM     69  C5  BDP B   5       4.082  16.303  13.5380  0.00  0.00     0.000 C
ATOM     70  O5  BDP B   5       4.830  15.519  12.5930  0.00  0.00     0.000 O
ATOM     71   O  BDP B   5       5.423  17.883   9.8370  0.00  0.00     0.000 O
ATOM     73  HD  BDP B   5       5.933  18.309   9.2810  0.00  0.00     0.000 HD
ATOM     73   O  BDP B   5       2.990  18.909  11.0380  0.00  0.00     0.000 O
ATOM     75  HD  BDP B   5       3.500  19.335  10.4830  0.00  0.00     0.000 HD
BRANCH 69 75
ATOM     75   C  BDP B   5       3.221  15.394  14.3780  0.00  0.00     0.000 C
ATOM     76   O  BDP B   5       2.580  14.485  13.8130  0.00  0.00     0.000 OA
ATOM     77   O  BDP B   5       3.178  15.572  15.6100  0.00  0.00     0.000 OA
ENDBRANCH 69 75
BRANCH 65 78
ATOM     78  O3  NAG B   6       5.974  14.916  11.2560  0.00  0.00     0.000 O
BRANCH 78 81
ATOM     79  C1  NAG B   6       9.264  13.069  11.5690  0.00  0.00     0.000 C
ATOM     80  C2  NAG B   6       8.273  14.131  11.0670  0.00  0.00     0.000 C
ATOM     81  C3  NAG B   6       6.959  14.027  11.8250  0.00  0.00     0.000 C
ATOM     82  C4  NAG B   6       6.434  12.587  11.8100  0.00  0.00     0.000 C
ATOM     83  C5  NAG B   6       7.511  11.650  12.3440  0.00  0.00     0.000 C
ATOM     84  O5  NAG B   6       8.650  11.770  11.4910  0.00  0.00     0.000 O
BRANCH 80 87
ATOM     85   N  NAG B   6       9.035  15.376  11.1090  0.00  0.00     0.000 N
ATOM     87  HD  NAG B   6       9.598  15.922  10.7420  0.00  0.00     0.000 HD
ATOM     87   C  NAG B   6       8.843  16.400  10.2690  0.00  0.00     0.000 C
ATOM     88   C  NAG B   6       9.704  17.601  10.5020  0.00  0.00     0.000 C
ATOM     89   O  NAG B   6       8.011  16.380   9.3690  0.00  0.00     0.000 OA
ENDBRANCH 80 87
ATOM     90   O  NAG B   6       6.962   9.771  13.7640  0.00  0.00     0.000 O
ATOM     92  HD  NAG B   6       7.558  10.367  13.5620  0.00  0.00     0.000 HD
ATOM     92   O  NAG B   6       6.962   9.771  13.7640  0.00  0.00     0.000 O
ATOM     94  HD  NAG B   6       7.558  10.367  13.5620  0.00  0.00     0.000 HD
ENDBRANCH 78 81
ENDBRANCH 65 78
ENDBRANCH 64 68
ENDBRANCH 48 64
ENDBRANCH 47 50
ENDBRANCH 34 47
ENDBRANCH 33 37
ENDBRANCH 17 33
ENDBRANCH 16 19
ENDBRANCH 1 16
TORSDOF 16
ENDMDL
MODEL 7
REMARK VINA RESULT:      -7.8      4.615     11.001
ROOT
ATOM      1  C1  BDP B   1      18.583  11.757  28.0810  0.00  0.00     0.000 C
ATOM      2  C2  BDP B   1      17.967  10.810  27.0670  0.00  0.00     0.000 C
ATOM      3  C3  BDP B   1      18.917   9.700  26.6730  0.00  0.00     0.000 C
ATOM      4  C4  BDP B   1      20.116   9.549  27.6020  0.00  0.00     0.000 C
ATOM      5  C5  BDP B   1      20.785  10.881  27.9250  0.00  0.00     0.000 C
ATOM      6  O5  BDP B   1      19.919  11.999  27.6640  0.00  0.00     0.000 O
ATOM      7   O  BDP B   1      16.762  10.247  27.5960  0.00  0.00     0.000 O
ATOM      9  HD  BDP B   1      16.010  10.322  28.0190  0.00  0.00     0.000 HD
ATOM      9   O  BDP B   1      19.420   9.932  25.3470  0.00  0.00     0.000 O
ATOM     11  HD  BDP B   1      18.668  10.007  25.7700  0.00  0.00     0.000 HD
ATOM     11   O  BDP B   1      19.727   8.897  28.8170  0.00  0.00     0.000 O
ATOM     13  HD  BDP B   1      18.975   8.972  29.2410  0.00  0.00     0.000 HD
ENDROOT
BRANCH 5 13
ATOM     13   C  BDP B   1      22.003  10.981  27.0740  0.00  0.00     0.000 C
ATOM     14   O  BDP B   1      21.894  11.511  25.9490  0.00  0.00     0.000 OA
ATOM     15   O  BDP B   1      23.091  10.557  27.5190  0.00  0.00     0.000 OA
ENDBRANCH 5 13
BRANCH 1 16
ATOM     16  O3  NAG B   2      18.157  12.114  29.3940  0.00  0.00     0.000 O
BRANCH 16 19
ATOM     17  C1  NAG B   2      15.810  10.364  31.5580  0.00  0.00     0.000 C
ATOM     18  C2  NAG B   2      17.121  10.392  30.7710  0.00  0.00     0.000 C
ATOM     19  C3  NAG B   2      17.673  11.808  30.7030  0.00  0.00     0.000 C
ATOM     20  C4  NAG B   2      16.628  12.846  31.1230  0.00  0.00     0.000 C
ATOM     21  C5  NAG B   2      15.184  12.516  30.7190  0.00  0.00     0.000 C
ATOM     22  O5  NAG B   2      14.884  11.116  30.7710  0.00  0.00     0.000 O
ATOM     23   O  NAG B   2      16.707  13.022  32.5410  0.00  0.00     0.000 O
ATOM     25  HD  NAG B   2      16.817  12.180  32.7100  0.00  0.00     0.000 HD
ATOM     25   C  NAG B   2      14.887  13.029  29.3030  0.00  0.00     0.000 C
ATOM     26   O  NAG B   2      14.487  14.407  29.3100  0.00  0.00     0.000 O
ATOM     28  HD  NAG B   2      14.597  13.565  29.4790  0.00  0.00     0.000 HD
BRANCH 18 30
ATOM     28   N  NAG B   2      17.543  10.232  32.1620  0.00  0.00     0.000 N
ATOM     30  HD  NAG B   2      17.962  10.641  32.8010  0.00  0.00     0.000 HD
ATOM     30   C  NAG B   2      18.483   9.376  32.5860  0.00  0.00     0.000 C
ATOM     31   C  NAG B   2      18.730   9.391  34.0680  0.00  0.00     0.000 C
ATOM     32   O  NAG B   2      19.100   8.645  31.8460  0.00  0.00     0.000 OA
ENDBRANCH 18 30
BRANCH 17 33
ATOM     33  O4  BDP B   3      14.543   9.764  31.9070  0.00  0.00     0.000 O
BRANCH 33 37
ATOM     34  C1  BDP B   3      11.758   7.123  33.7810  0.00  0.00     0.000 C
ATOM     35  C2  BDP B   3      12.466   8.137  34.6730  0.00  0.00     0.000 C
ATOM     36  C3  BDP B   3      13.097   9.292  33.9030  0.00  0.00     0.000 C
ATOM     37  C4  BDP B   3      13.866   8.740  32.6920  0.00  0.00     0.000 C
ATOM     38  C5  BDP B   3      12.870   7.914  31.8560  0.00  0.00     0.000 C
ATOM     39  O5  BDP B   3      12.559   6.768  32.6480  0.00  0.00     0.000 O
ATOM     40   O  BDP B   3      11.492   8.586  35.6180  0.00  0.00     0.000 O
ATOM     42  HD  BDP B   3      11.729   7.837  35.9840  0.00  0.00     0.000 HD
ATOM     42   O  BDP B   3      13.959   9.969  34.8150  0.00  0.00     0.000 O
ATOM     44  HD  BDP B   3      14.197   9.221  35.1810  0.00  0.00     0.000 HD
BRANCH 38 44
ATOM     44   C  BDP B   3      13.392   7.482  30.5210  0.00  0.00     0.000 C
ATOM     45   O  BDP B   3      13.047   8.141  29.5160  0.00  0.00     0.000 OA
ATOM     46   O  BDP B   3      14.147   6.488  30.4450  0.00  0.00     0.000 OA
ENDBRANCH 38 44
BRANCH 34 47
ATOM     47  O3  NAG B   4      11.935   5.787  34.2480  0.00  0.00     0.000 O
BRANCH 47 50
ATOM     48  C1  NAG B   4       9.181   3.232  34.4540  0.00  0.00     0.000 C
ATOM     49  C2  NAG B   4      10.047   4.397  34.9040  0.00  0.00     0.000 C
ATOM     50  C3  NAG B   4      11.059   4.727  33.8130  0.00  0.00     0.000 C
ATOM     51  C4  NAG B   4      11.886   3.510  33.4300  0.00  0.00     0.000 C
ATOM     52  C5  NAG B   4      10.962   2.351  33.0550  0.00  0.00     0.000 C
ATOM     53  O5  NAG B   4      10.013   2.110  34.1020  0.00  0.00     0.000 O
ATOM     54   O  NAG B   4      12.737   3.852  32.3330  0.00  0.00     0.000 O
ATOM     56  HD  NAG B   4      12.963   3.106  32.7110  0.00  0.00     0.000 HD
ATOM     56   C  NAG B   4      11.753   1.077  32.7860  0.00  0.00     0.000 C
ATOM     57   O  NAG B   4      12.483   0.721  33.9680  0.00  0.00     0.000 O
ATOM     59  HD  NAG B   4      12.709  -0.025  34.3450  0.00  0.00     0.000 HD
BRANCH 49 61
ATOM     59   N  NAG B   4       9.060   5.380  35.3510  0.00  0.00     0.000 N
ATOM     61  HD  NAG B   4       9.513   4.719  35.6790  0.00  0.00     0.000 HD
ATOM     61   O  NAG B   4      10.026   5.853  37.3370  0.00  0.00     0.000 OA
ATOM     62   C  NAG B   4       9.173   6.074  36.4900  0.00  0.00     0.000 C
ATOM     63   C  NAG B   4       8.185   7.182  36.6740  0.00  0.00     0.000 C
ENDBRANCH 49 61
BRANCH 48 64
ATOM     64  O4  BDP B   5       7.840   2.852  34.7450  0.00  0.00     0.000 O
BRANCH 64 68
ATOM     65  C1  BDP B   5       4.419   3.865  32.5890  0.00  0.00     0.000 C
ATOM     66  C2  BDP B   5       4.283   3.887  34.1060  0.00  0.00     0.000 C
ATOM     67  C3  BDP B   5       5.665   3.927  34.7440  0.00  0.00     0.000 C
ATOM     68  C4  BDP B   5       6.504   2.752  34.2540  0.00  0.00     0.000 C
ATOM     69  C5  BDP B   5       6.550   2.674  32.7330  0.00  0.00     0.000 C
ATOM     70  O5  BDP B   5       5.223   2.746  32.1830  0.00  0.00     0.000 O
ATOM     71   O  BDP B   5       3.483   5.012  34.5020  0.00  0.00     0.000 O
ATOM     73  HD  BDP B   5       3.013   5.716  34.6860  0.00  0.00     0.000 HD
ATOM     73   O  BDP B   5       5.562   3.870  36.1720  0.00  0.00     0.000 O
ATOM     75  HD  BDP B   5       5.092   4.574  36.3570  0.00  0.00     0.000 HD
BRANCH 69 75
ATOM     75   C  BDP B   5       7.185   1.363  32.3450  0.00  0.00     0.000 C
ATOM     76   O  BDP B   5       6.852   0.330  32.9600  0.00  0.00     0.000 OA
ATOM     77   O  BDP B   5       8.019   1.347  31.4210  0.00  0.00     0.000 OA
ENDBRANCH 69 75
BRANCH 65 78
ATOM     78  O3  NAG B   6       3.512   3.260  31.6640  0.00  0.00     0.000 O
BRANCH 78 81
ATOM     79  C1  NAG B   6       1.321   4.370  28.7830  0.00  0.00     0.000 C
ATOM     80  C2  NAG B   6       1.748   4.161  30.2450  0.00  0.00     0.000 C
ATOM     81  C3  NAG B   6       3.161   3.602  30.3060  0.00  0.00     0.000 C
ATOM     82  C4  NAG B   6       3.300   2.372  29.4040  0.00  0.00     0.000 C
ATOM     83  C5  NAG B   6       2.856   2.728  27.9890  0.00  0.00     0.000 C
ATOM     84  O5  NAG B   6       1.490   3.140  28.0560  0.00  0.00     0.000 O
BRANCH 80 87
ATOM     85   N  NAG B   6       1.515   5.440  30.9100  0.00  0.00     0.000 N
ATOM     87  HD  NAG B   6       0.969   6.005  31.2740  0.00  0.00     0.000 HD
ATOM     87   C  NAG B   6       1.091   5.560  32.1740  0.00  0.00     0.000 C
ATOM     88   C  NAG B   6       0.948   6.960  32.6800  0.00  0.00     0.000 C
ATOM     89   O  NAG B   6       0.845   4.597  32.8910  0.00  0.00     0.000 OA
ENDBRANCH 80 87
ATOM     90   O  NAG B   6       4.012   1.868  26.0470  0.00  0.00     0.000 O
ATOM     92  HD  NAG B   6       3.551   2.524  26.3740  0.00  0.00     0.000 HD
ATOM     92   O  NAG B   6       4.012   1.868  26.0470  0.00  0.00     0.000 O
ATOM     94  HD  NAG B   6       3.551   2.524  26.3740  0.00  0.00     0.000 HD
ENDBRANCH 78 81
ENDBRANCH 65 78
ENDBRANCH 64 68
ENDBRANCH 48 64
ENDBRANCH 47 50
ENDBRANCH 34 47
ENDBRANCH 33 37
ENDBRANCH 17 33
ENDBRANCH 16 19
ENDBRANCH 1 16
TORSDOF 16
ENDMDL
MODEL 8
REMARK VINA RESULT:      -7.8      4.173      9.587
ROOT
ATOM      1  C1  BDP B   1      20.130  10.825  26.9190  0.00  0.00     0.000 C
ATOM      2  C2  BDP B   1      19.464   9.960  25.8640  0.00  0.00     0.000 C
ATOM      3  C3  BDP B   1      20.291   8.738  25.5230  0.00  0.00     0.000 C
ATOM      4  C4  BDP B   1      21.402   8.441  26.5240  0.00  0.00     0.000 C
ATOM      5  C5  BDP B   1      22.210   9.681  26.8940  0.00  0.00     0.000 C
ATOM      6  O5  BDP B   1      21.509  10.897  26.5870  0.00  0.00     0.000 O
ATOM      7   O  BDP B   1      18.168   9.552  26.3150  0.00  0.00     0.000 O
ATOM      9  HD  BDP B   1      17.407   9.722  26.6910  0.00  0.00     0.000 HD
ATOM      9   O  BDP B   1      20.900   8.903  24.2330  0.00  0.00     0.000 O
ATOM     11  HD  BDP B   1      20.139   9.072  24.6090  0.00  0.00     0.000 HD
ATOM     11   O  BDP B   1      20.860   7.846  27.7100  0.00  0.00     0.000 O
ATOM     13  HD  BDP B   1      20.099   8.015  28.0860  0.00  0.00     0.000 HD
ENDROOT
BRANCH 5 13
ATOM     13   C  BDP B   1      23.481   9.625  26.1210  0.00  0.00     0.000 C
ATOM     14   O  BDP B   1      23.507  10.153  24.9900  0.00  0.00     0.000 OA
ATOM     15   O  BDP B   1      24.482   9.080  26.6340  0.00  0.00     0.000 OA
ENDBRANCH 5 13
BRANCH 1 16
ATOM     16  O3  NAG B   2      19.671  11.235  28.2050  0.00  0.00     0.000 O
BRANCH 16 19
ATOM     17  C1  NAG B   2      17.744   9.915  30.9980  0.00  0.00     0.000 C
ATOM     18  C2  NAG B   2      18.811   9.731  29.9180  0.00  0.00     0.000 C
ATOM     19  C3  NAG B   2      19.495  11.055  29.6120  0.00  0.00     0.000 C
ATOM     20  C4  NAG B   2      18.720  12.242  30.1910  0.00  0.00     0.000 C
ATOM     21  C5  NAG B   2      17.192  12.093  30.1740  0.00  0.00     0.000 C
ATOM     22  O5  NAG B   2      16.748  10.750  30.4020  0.00  0.00     0.000 O
ATOM     23   O  NAG B   2      19.170  12.468  31.5310  0.00  0.00     0.000 O
ATOM     25  HD  NAG B   2      19.217  11.627  31.7320  0.00  0.00     0.000 HD
ATOM     25   C  NAG B   2      16.616  12.579  28.8360  0.00  0.00     0.000 C
ATOM     26   O  NAG B   2      16.399  13.997  28.8350  0.00  0.00     0.000 O
ATOM     28  HD  NAG B   2      16.445  13.156  29.0370  0.00  0.00     0.000 HD
BRANCH 18 30
ATOM     28   N  NAG B   2      19.270   9.221  31.2100  0.00  0.00     0.000 N
ATOM     30  HD  NAG B   2      19.526   9.480  31.9950  0.00  0.00     0.000 HD
ATOM     30   C  NAG B   2      20.450   8.621  31.4220  0.00  0.00     0.000 C
ATOM     31   C  NAG B   2      20.685   8.174  32.8370  0.00  0.00     0.000 C
ATOM     32   O  NAG B   2      21.276   8.450  30.5570  0.00  0.00     0.000 OA
ENDBRANCH 18 30
BRANCH 17 33
ATOM     33  O4  BDP B   3      16.541   9.508  31.6870  0.00  0.00     0.000 O
BRANCH 33 37
ATOM     34  C1  BDP B   3      13.783   6.937  33.6920  0.00  0.00     0.000 C
ATOM     35  C2  BDP B   3      15.241   6.870  34.1290  0.00  0.00     0.000 C
ATOM     36  C3  BDP B   3      16.065   8.076  33.6920  0.00  0.00     0.000 C
ATOM     37  C4  BDP B   3      15.771   8.390  32.2170  0.00  0.00     0.000 C
ATOM     38  C5  BDP B   3      14.250   8.605  32.0900  0.00  0.00     0.000 C
ATOM     39  O5  BDP B   3      13.660   7.326  32.3190  0.00  0.00     0.000 O
ATOM     40   O  BDP B   3      15.226   6.712  35.5490  0.00  0.00     0.000 O
ATOM     42  HD  BDP B   3      15.082   5.895  35.3010  0.00  0.00     0.000 HD
ATOM     42   O  BDP B   3      17.435   7.733  33.8980  0.00  0.00     0.000 O
ATOM     44  HD  BDP B   3      17.290   6.916  33.6500  0.00  0.00     0.000 HD
BRANCH 38 44
ATOM     44   C  BDP B   3      13.809   9.137  30.7620  0.00  0.00     0.000 C
ATOM     45   O  BDP B   3      13.501  10.347  30.6890  0.00  0.00     0.000 OA
ATOM     46   O  BDP B   3      13.759   8.370  29.7750  0.00  0.00     0.000 OA
ENDBRANCH 38 44
BRANCH 34 47
ATOM     47  O3  NAG B   4      13.280   5.657  33.3120  0.00  0.00     0.000 O
BRANCH 47 50
ATOM     48  C1  NAG B   4      10.359   4.160  35.1490  0.00  0.00     0.000 C
ATOM     49  C2  NAG B   4      11.796   4.600  34.9260  0.00  0.00     0.000 C
ATOM     50  C3  NAG B   4      11.910   5.291  33.5720  0.00  0.00     0.000 C
ATOM     51  C4  NAG B   4      11.399   4.405  32.4470  0.00  0.00     0.000 C
ATOM     52  C5  NAG B   4       9.977   3.936  32.7600  0.00  0.00     0.000 C
ATOM     53  O5  NAG B   4       9.926   3.327  34.0560  0.00  0.00     0.000 O
ATOM     54   O  NAG B   4      11.429   5.143  31.2230  0.00  0.00     0.000 O
ATOM     56  HD  NAG B   4      11.320   4.293  31.0970  0.00  0.00     0.000 HD
ATOM     56   C  NAG B   4       9.479   2.945  31.7150  0.00  0.00     0.000 C
ATOM     57   O  NAG B   4      10.348   1.805  31.7000  0.00  0.00     0.000 O
ATOM     59  HD  NAG B   4      10.238   0.955  31.5740  0.00  0.00     0.000 HD
BRANCH 49 61
ATOM     59   N  NAG B   4      12.383   3.346  35.4010  0.00  0.00     0.000 N
ATOM     61  HD  NAG B   4      12.646   4.108  35.0840  0.00  0.00     0.000 HD
ATOM     61   O  NAG B   4      14.083   4.267  36.5690  0.00  0.00     0.000 OA
ATOM     62   C  NAG B   4      13.426   3.290  36.2370  0.00  0.00     0.000 C
ATOM     63   C  NAG B   4      13.749   1.934  36.7790  0.00  0.00     0.000 C
ENDBRANCH 49 61
BRANCH 48 64
ATOM     64  O4  BDP B   5       9.570   3.982  36.3210  0.00  0.00     0.000 O
BRANCH 64 68
ATOM     65  C1  BDP B   5       8.108   7.003  38.7930  0.00  0.00     0.000 C
ATOM     66  C2  BDP B   5       9.405   6.343  39.2420  0.00  0.00     0.000 C
ATOM     67  C3  BDP B   5      10.033   5.597  38.0710  0.00  0.00     0.000 C
ATOM     68  C4  BDP B   5       9.039   4.593  37.4960  0.00  0.00     0.000 C
ATOM     69  C5  BDP B   5       7.705   5.240  37.1470  0.00  0.00     0.000 C
ATOM     70  O5  BDP B   5       7.214   6.016  38.2540  0.00  0.00     0.000 O
ATOM     71   O  BDP B   5      10.293   7.339  39.7730  0.00  0.00     0.000 O
ATOM     73  HD  BDP B   5      10.797   7.981  40.0640  0.00  0.00     0.000 HD
ATOM     73   O  BDP B   5      11.214   4.905  38.4910  0.00  0.00     0.000 O
ATOM     75  HD  BDP B   5      11.718   5.547  38.7820  0.00  0.00     0.000 HD
BRANCH 69 75
ATOM     75   C  BDP B   5       6.720   4.147  36.8210  0.00  0.00     0.000 C
ATOM     76   O  BDP B   5       6.047   3.651  37.7480  0.00  0.00     0.000 OA
ATOM     77   O  BDP B   5       6.601   3.774  35.6400  0.00  0.00     0.000 OA
ENDBRANCH 69 75
BRANCH 65 78
ATOM     78  O3  NAG B   6       6.963   7.266  39.6090  0.00  0.00     0.000 O
BRANCH 78 81
ATOM     79  C1  NAG B   6       4.750  10.264  40.2760  0.00  0.00     0.000 C
ATOM     80  C2  NAG B   6       6.008   9.384  40.3430  0.00  0.00     0.000 C
ATOM     81  C3  NAG B   6       5.854   8.174  39.4360  0.00  0.00     0.000 C
ATOM     82  C4  NAG B   6       4.534   7.447  39.7150  0.00  0.00     0.000 C
ATOM     83  C5  NAG B   6       3.378   8.434  39.6020  0.00  0.00     0.000 C
ATOM     84  O5  NAG B   6       3.592   9.463  40.5700  0.00  0.00     0.000 O
BRANCH 80 87
ATOM     85   N  NAG B   6       7.207   9.636  41.1370  0.00  0.00     0.000 N
ATOM     87  HD  NAG B   6       8.039   9.469  41.3110  0.00  0.00     0.000 HD
ATOM     87   C  NAG B   6       8.331  10.174  40.6470  0.00  0.00     0.000 C
ATOM     88   C  NAG B   6       9.435  10.383  41.6350  0.00  0.00     0.000 C
ATOM     89   O  NAG B   6       8.461  10.495  39.4720  0.00  0.00     0.000 OA
ENDBRANCH 80 87
ATOM     90   O  NAG B   6       1.266   7.799  38.6110  0.00  0.00     0.000 O
ATOM     92  HD  NAG B   6       1.825   8.445  38.7540  0.00  0.00     0.000 HD
ATOM     92   O  NAG B   6       1.266   7.799  38.6110  0.00  0.00     0.000 O
ATOM     94  HD  NAG B   6       1.825   8.445  38.7540  0.00  0.00     0.000 HD
ENDBRANCH 78 81
ENDBRANCH 65 78
ENDBRANCH 64 68
ENDBRANCH 48 64
ENDBRANCH 47 50
ENDBRANCH 34 47
ENDBRANCH 33 37
ENDBRANCH 17 33
ENDBRANCH 16 19
ENDBRANCH 1 16
TORSDOF 16
ENDMDL
MODEL 9
REMARK VINA RESULT:      -7.7      9.358     16.906
ROOT
ATOM      1  C1  BDP B   1      14.151  11.156   9.5530  0.00  0.00     0.000 C
ATOM      2  C2  BDP B   1      13.879   9.903  10.3650  0.00  0.00     0.000 C
ATOM      3  C3  BDP B   1      12.397   9.645  10.5380  0.00  0.00     0.000 C
ATOM      4  C4  BDP B   1      11.512  10.455   9.5970  0.00  0.00     0.000 C
ATOM      5  C5  BDP B   1      11.906  11.928   9.5380  0.00  0.00     0.000 C
ATOM      6  O5  BDP B   1      13.245  12.150  10.0090  0.00  0.00     0.000 O
ATOM      7   O  BDP B   1      14.493   8.772   9.7370  0.00  0.00     0.000 O
ATOM      9  HD  BDP B   1      15.163   8.397   9.3360  0.00  0.00     0.000 HD
ATOM      9   O  BDP B   1      12.000   9.954  11.8830  0.00  0.00     0.000 O
ATOM     11  HD  BDP B   1      12.670   9.578  11.4830  0.00  0.00     0.000 HD
ATOM     11   O  BDP B   1      11.540   9.894   8.2790  0.00  0.00     0.000 O
ATOM     13  HD  BDP B   1      12.210   9.519   7.8780  0.00  0.00     0.000 HD
ENDROOT
BRANCH 5 13
ATOM     13   C  BDP B   1      10.942  12.676  10.3920  0.00  0.00     0.000 C
ATOM     14   O  BDP B   1      10.002  13.277   9.8330  0.00  0.00     0.000 OA
ATOM     15   O  BDP B   1      11.088  12.657  11.6330  0.00  0.00     0.000 OA
ENDBRANCH 5 13
BRANCH 1 16
ATOM     16  O3  NAG B   2      14.869  11.333   8.3330  0.00  0.00     0.000 O
BRANCH 16 19
ATOM     17  C1  NAG B   2      18.501  11.420   8.1040  0.00  0.00     0.000 C
ATOM     18  C2  NAG B   2      17.202  10.633   8.2740  0.00  0.00     0.000 C
ATOM     19  C3  NAG B   2      16.059  11.322   7.5430  0.00  0.00     0.000 C
ATOM     20  C4  NAG B   2      16.424  12.753   7.1400  0.00  0.00     0.000 C
ATOM     21  C5  NAG B   2      17.321  13.502   8.1360  0.00  0.00     0.000 C
ATOM     22  O5  NAG B   2      18.281  12.659   8.7830  0.00  0.00     0.000 O
ATOM     23   O  NAG B   2      17.052  12.717   5.8540  0.00  0.00     0.000 O
ATOM     25  HD  NAG B   2      17.516  12.005   6.0230  0.00  0.00     0.000 HD
ATOM     25   C  NAG B   2      16.473  14.195   9.2120  0.00  0.00     0.000 C
ATOM     26   O  NAG B   2      16.013  15.483   8.7790  0.00  0.00     0.000 O
ATOM     28  HD  NAG B   2      16.477  14.771   8.9470  0.00  0.00     0.000 HD
BRANCH 18 30
ATOM     28   N  NAG B   2      17.541   9.254   7.9250  0.00  0.00     0.000 N
ATOM     30  HD  NAG B   2      18.159   8.656   8.0260  0.00  0.00     0.000 HD
ATOM     30   C  NAG B   2      17.835   8.825   6.6890  0.00  0.00     0.000 C
ATOM     31   C  NAG B   2      18.140   7.358   6.5860  0.00  0.00     0.000 C
ATOM     32   O  NAG B   2      17.865   9.550   5.7220  0.00  0.00     0.000 OA
ENDBRANCH 18 30
BRANCH 17 33
ATOM     33  O4  BDP B   3      19.834  11.790   8.5190  0.00  0.00     0.000 O
BRANCH 33 37
ATOM     34  C1  BDP B   3      21.871  11.654  12.2710  0.00  0.00     0.000 C
ATOM     35  C2  BDP B   3      21.772  13.009  11.5800  0.00  0.00     0.000 C
ATOM     36  C3  BDP B   3      20.699  13.066  10.4990  0.00  0.00     0.000 C
ATOM     37  C4  BDP B   3      20.796  11.815   9.6140  0.00  0.00     0.000 C
ATOM     38  C5  BDP B   3      20.672  10.589  10.5390  0.00  0.00     0.000 C
ATOM     39  O5  BDP B   3      21.864  10.577  11.3250  0.00  0.00     0.000 O
ATOM     40   O  BDP B   3      21.549  13.969  12.6150  0.00  0.00     0.000 O
ATOM     42  HD  BDP B   3      22.407  13.869  12.6790  0.00  0.00     0.000 HD
ATOM     42   O  BDP B   3      20.930  14.262   9.7560  0.00  0.00     0.000 O
ATOM     44  HD  BDP B   3      21.788  14.161   9.8200  0.00  0.00     0.000 HD
BRANCH 38 44
ATOM     44   C  BDP B   3      20.526   9.284   9.8210  0.00  0.00     0.000 C
ATOM     45   O  BDP B   3      19.481   8.624  10.0140  0.00  0.00     0.000 OA
ATOM     46   O  BDP B   3      21.437   8.891   9.0610  0.00  0.00     0.000 OA
ENDBRANCH 38 44
BRANCH 34 47
ATOM     47  O3  NAG B   4      23.221  11.303  12.5680  0.00  0.00     0.000 O
BRANCH 47 50
ATOM     48  C1  NAG B   4      23.596   9.496  15.8460  0.00  0.00     0.000 C
ATOM     49  C2  NAG B   4      23.202  10.622  14.9060  0.00  0.00     0.000 C
ATOM     50  C3  NAG B   4      23.525  10.220  13.4710  0.00  0.00     0.000 C
ATOM     51  C4  NAG B   4      24.985   9.825  13.3150  0.00  0.00     0.000 C
ATOM     52  C5  NAG B   4      25.340   8.740  14.3330  0.00  0.00     0.000 C
ATOM     53  O5  NAG B   4      24.984   9.160  15.6560  0.00  0.00     0.000 O
ATOM     54   O  NAG B   4      25.201   9.356  11.9820  0.00  0.00     0.000 O
ATOM     56  HD  NAG B   4      25.941   9.519  12.4020  0.00  0.00     0.000 HD
ATOM     56   C  NAG B   4      26.827   8.407  14.2910  0.00  0.00     0.000 C
ATOM     57   O  NAG B   4      27.579   9.589  14.5950  0.00  0.00     0.000 O
ATOM     59  HD  NAG B   4      28.319   9.751  15.0160  0.00  0.00     0.000 HD
BRANCH 49 61
ATOM     59   N  NAG B   4      21.980  10.918  15.6540  0.00  0.00     0.000 N
ATOM     61  HD  NAG B   4      22.789  11.220  15.5850  0.00  0.00     0.000 HD
ATOM     61   O  NAG B   4      22.088  13.167  15.4710  0.00  0.00     0.000 OA
ATOM     62   C  NAG B   4      21.492  12.155  15.8080  0.00  0.00     0.000 C
ATOM     63   C  NAG B   4      20.127  12.240  16.4150  0.00  0.00     0.000 C
ENDBRANCH 49 61
BRANCH 48 64
ATOM     64  O4  BDP B   5      23.094   9.066  17.1080  0.00  0.00     0.000 O
BRANCH 64 68
ATOM     65  C1  BDP B   5      22.491   7.385  20.8730  0.00  0.00     0.000 C
ATOM     66  C2  BDP B   5      23.022   8.812  20.8580  0.00  0.00     0.000 C
ATOM     67  C3  BDP B   5      22.786   9.431  19.4860  0.00  0.00     0.000 C
ATOM     68  C4  BDP B   5      23.419   8.564  18.4030  0.00  0.00     0.000 C
ATOM     69  C5  BDP B   5      22.964   7.113  18.4900  0.00  0.00     0.000 C
ATOM     70  O5  BDP B   5      23.112   6.616  19.8320  0.00  0.00     0.000 O
ATOM     71   O  BDP B   5      22.390   9.573  21.8990  0.00  0.00     0.000 O
ATOM     73  HD  BDP B   5      21.965   9.990  22.5280  0.00  0.00     0.000 HD
ATOM     73   O  BDP B   5      23.348  10.748  19.4250  0.00  0.00     0.000 O
ATOM     75  HD  BDP B   5      22.923  11.165  20.0540  0.00  0.00     0.000 HD
BRANCH 69 75
ATOM     75   C  BDP B   5      23.813   6.293  17.5520  0.00  0.00     0.000 C
ATOM     76   O  BDP B   5      25.053   6.417  17.6040  0.00  0.00     0.000 OA
ATOM     77   O  BDP B   5      23.254   5.515  16.7570  0.00  0.00     0.000 OA
ENDBRANCH 69 75
BRANCH 65 78
ATOM     78  O3  NAG B   6      22.992   6.301  21.6610  0.00  0.00     0.000 O
BRANCH 78 81
ATOM     79  C1  NAG B   6      21.264   3.773  23.8880  0.00  0.00     0.000 C
ATOM     80  C2  NAG B   6      21.751   5.153  23.4150  0.00  0.00     0.000 C
ATOM     81  C3  NAG B   6      22.397   5.042  22.0440  0.00  0.00     0.000 C
ATOM     82  C4  NAG B   6      23.458   3.936  22.0280  0.00  0.00     0.000 C
ATOM     83  C5  NAG B   6      22.835   2.630  22.5050  0.00  0.00     0.000 C
ATOM     84  O5  NAG B   6      22.357   2.839  23.8350  0.00  0.00     0.000 O
BRANCH 80 87
ATOM     85   N  NAG B   6      20.604   6.054  23.4770  0.00  0.00     0.000 N
ATOM     87  HD  NAG B   6      20.049   6.530  23.9420  0.00  0.00     0.000 HD
ATOM     87   C  NAG B   6      20.672   7.325  23.8920  0.00  0.00     0.000 C
ATOM     88   C  NAG B   6      19.388   8.092  23.8460  0.00  0.00     0.000 C
ATOM     89   O  NAG B   6      21.711   7.849  24.2740  0.00  0.00     0.000 OA
ENDBRANCH 80 87
ATOM     90   O  NAG B   6      23.412   0.510  21.4950  0.00  0.00     0.000 O
ATOM     92  HD  NAG B   6      22.796   0.969  21.8950  0.00  0.00     0.000 HD
ATOM     92   O  NAG B   6      23.412   0.510  21.4950  0.00  0.00     0.000 O
ATOM     94  HD  NAG B   6      22.796   0.969  21.8950  0.00  0.00     0.000 HD
ENDBRANCH 78 81
ENDBRANCH 65 78
ENDBRANCH 64 68
ENDBRANCH 48 64
ENDBRANCH 47 50
ENDBRANCH 34 47
ENDBRANCH 33 37
ENDBRANCH 17 33
ENDBRANCH 16 19
ENDBRANCH 1 16
TORSDOF 16
ENDMDL
MODEL 10
REMARK VINA RESULT:      -7.5      1.889      2.214
ROOT
ATOM      1  C1  BDP B   1      22.030   4.253  20.8840  0.00  0.00     0.000 C
ATOM      2  C2  BDP B   1      20.691   3.540  20.9620  0.00  0.00     0.000 C
ATOM      3  C3  BDP B   1      20.553   2.724  22.2290  0.00  0.00     0.000 C
ATOM      4  C4  BDP B   1      21.589   3.056  23.2980  0.00  0.00     0.000 C
ATOM      5  C5  BDP B   1      23.006   3.141  22.7400  0.00  0.00     0.000 C
ATOM      6  O5  BDP B   1      23.017   3.328  21.3150  0.00  0.00     0.000 O
ATOM      7   O  BDP B   1      19.627   4.494  20.8860  0.00  0.00     0.000 O
ATOM      9  HD  BDP B   1      19.260   5.197  20.5370  0.00  0.00     0.000 HD
ATOM      9   O  BDP B   1      20.672   1.325  21.9270  0.00  0.00     0.000 O
ATOM     11  HD  BDP B   1      20.305   2.028  21.5780  0.00  0.00     0.000 HD
ATOM     11   O  BDP B   1      21.253   4.285  23.9540  0.00  0.00     0.000 O
ATOM     13  HD  BDP B   1      20.886   4.987  23.6050  0.00  0.00     0.000 HD
ENDROOT
BRANCH 5 13
ATOM     13   C  BDP B   1      23.692   1.865  23.0840  0.00  0.00     0.000 C
ATOM     14   O  BDP B   1      24.308   1.801  24.1680  0.00  0.00     0.000 OA
ATOM     15   O  BDP B   1      23.608   0.898  22.2970  0.00  0.00     0.000 OA
ENDBRANCH 5 13
BRANCH 1 16
ATOM     16  O3  NAG B   2      22.335   5.641  20.7700  0.00  0.00     0.000 O
BRANCH 16 19
ATOM     17  C1  NAG B   2      22.139   8.415  23.1200  0.00  0.00     0.000 C
ATOM     18  C2  NAG B   2      22.617   7.006  22.7690  0.00  0.00     0.000 C
ATOM     19  C3  NAG B   2      22.848   6.877  21.2710  0.00  0.00     0.000 C
ATOM     20  C4  NAG B   2      22.227   8.044  20.4980  0.00  0.00     0.000 C
ATOM     21  C5  NAG B   2      20.908   8.578  21.0740  0.00  0.00     0.000 C
ATOM     22  O5  NAG B   2      20.854   8.539  22.5050  0.00  0.00     0.000 O
ATOM     23   O  NAG B   2      23.188   9.103  20.4250  0.00  0.00     0.000 O
ATOM     25  HD  NAG B   2      23.464   9.003  21.2390  0.00  0.00     0.000 HD
ATOM     25   C  NAG B   2      19.715   7.788  20.5170  0.00  0.00     0.000 C
ATOM     26   O  NAG B   2      19.280   8.304  19.2520  0.00  0.00     0.000 O
ATOM     28  HD  NAG B   2      19.557   8.204  20.0660  0.00  0.00     0.000 HD
BRANCH 18 30
ATOM     28   N  NAG B   2      23.983   7.523  22.7000  0.00  0.00     0.000 N
ATOM     30  HD  NAG B   2      24.728   7.428  22.2700  0.00  0.00     0.000 HD
ATOM     30   C  NAG B   2      24.922   7.337  23.6380  0.00  0.00     0.000 C
ATOM     31   C  NAG B   2      26.248   7.978  23.3410  0.00  0.00     0.000 C
ATOM     32   O  NAG B   2      24.738   6.699  24.6490  0.00  0.00     0.000 OA
ENDBRANCH 18 30
BRANCH 17 33
ATOM     33  O4  BDP B   3      21.468   9.357  23.9850  0.00  0.00     0.000 O
BRANCH 33 37
ATOM     34  C1  BDP B   3      19.740  10.659  27.6680  0.00  0.00     0.000 C
ATOM     35  C2  BDP B   3      20.797  11.558  27.0380  0.00  0.00     0.000 C
ATOM     36  C3  BDP B   3      21.051  11.263  25.5640  0.00  0.00     0.000 C
ATOM     37  C4  BDP B   3      21.184   9.746  25.3610  0.00  0.00     0.000 C
ATOM     38  C5  BDP B   3      19.898   9.096  25.9060  0.00  0.00     0.000 C
ATOM     39  O5  BDP B   3      19.941   9.284  27.3210  0.00  0.00     0.000 O
ATOM     40   O  BDP B   3      20.360  12.901  27.2530  0.00  0.00     0.000 O
ATOM     42  HD  BDP B   3      20.715  12.728  28.0240  0.00  0.00     0.000 HD
ATOM     42   O  BDP B   3      22.248  11.953  25.2080  0.00  0.00     0.000 O
ATOM     44  HD  BDP B   3      22.602  11.780  25.9790  0.00  0.00     0.000 HD
BRANCH 38 44
ATOM     44   C  BDP B   3      19.758   7.640  25.5920  0.00  0.00     0.000 C
ATOM     45   O  BDP B   3      19.014   7.315  24.6410  0.00  0.00     0.000 OA
ATOM     46   O  BDP B   3      20.378   6.797  26.2770  0.00  0.00     0.000 OA
ENDBRANCH 38 44
BRANCH 34 47
ATOM     47  O3  NAG B   4      20.069  10.306  29.0100  0.00  0.00     0.000 O
BRANCH 47 50
ATOM     48  C1  NAG B   4      17.083  10.492  31.2890  0.00  0.00     0.000 C
ATOM     49  C2  NAG B   4      18.098  10.979  30.2710  0.00  0.00     0.000 C
ATOM     50  C3  NAG B   4      19.055   9.844  29.9260  0.00  0.00     0.000 C
ATOM     51  C4  NAG B   4      19.717   9.273  31.1700  0.00  0.00     0.000 C
ATOM     52  C5  NAG B   4      18.650   8.866  32.1850  0.00  0.00     0.000 C
ATOM     53  O5  NAG B   4      17.762   9.961  32.4440  0.00  0.00     0.000 O
ATOM     54   O  NAG B   4      20.516   8.147  30.7970  0.00  0.00     0.000 O
ATOM     56  HD  NAG B   4      20.689   8.428  31.5980  0.00  0.00     0.000 HD
ATOM     56   C  NAG B   4      19.279   8.405  33.4950  0.00  0.00     0.000 C
ATOM     57   O  NAG B   4      20.053   9.479  34.0450  0.00  0.00     0.000 O
ATOM     59  HD  NAG B   4      20.225   9.760  34.8460  0.00  0.00     0.000 HD
BRANCH 49 61
ATOM     59   N  NAG B   4      18.432  12.239  30.9370  0.00  0.00     0.000 N
ATOM     61  HD  NAG B   4      18.641  11.811  30.2140  0.00  0.00     0.000 HD
ATOM     61   O  NAG B   4      18.415  13.537  29.0890  0.00  0.00     0.000 OA
ATOM     62   C  NAG B   4      18.489  13.416  30.3030  0.00  0.00     0.000 C
ATOM     63   C  NAG B   4      18.632  14.618  31.1820  0.00  0.00     0.000 C
ENDBRANCH 49 61
BRANCH 48 64
ATOM     64  O4  BDP B   5      15.734  10.857  31.5650  0.00  0.00     0.000 O
BRANCH 64 68
ATOM     65  C1  BDP B   5      12.591   8.585  33.0930  0.00  0.00     0.000 C
ATOM     66  C2  BDP B   5      12.868   8.424  31.6050  0.00  0.00     0.000 C
ATOM     67  C3  BDP B   5      14.261   8.950  31.2830  0.00  0.00     0.000 C
ATOM     68  C4  BDP B   5      14.395  10.397  31.7450  0.00  0.00     0.000 C
ATOM     69  C5  BDP B   5      14.015  10.570  33.2100  0.00  0.00     0.000 C
ATOM     70  O5  BDP B   5      12.739   9.962  33.4760  0.00  0.00     0.000 O
ATOM     71   O  BDP B   5      12.723   7.044  31.2340  0.00  0.00     0.000 O
ATOM     73  HD  BDP B   5      12.643   6.198  31.0690  0.00  0.00     0.000 HD
ATOM     73   O  BDP B   5      14.512   8.879  29.8740  0.00  0.00     0.000 O
ATOM     75  HD  BDP B   5      14.432   8.033  29.7090  0.00  0.00     0.000 HD
BRANCH 69 75
ATOM     75   C  BDP B   5      13.942  12.045  33.5100  0.00  0.00     0.000 C
ATOM     76   O  BDP B   5      13.784  12.410  34.6920  0.00  0.00     0.000 OA
ATOM     77   O  BDP B   5      14.045  12.857  32.5710  0.00  0.00     0.000 OA
ENDBRANCH 69 75
BRANCH 65 78
ATOM     78  O3  NAG B   6      11.313   8.789  33.7020  0.00  0.00     0.000 O
BRANCH 78 81
ATOM     79  C1  NAG B   6       9.480   7.105  36.5540  0.00  0.00     0.000 C
ATOM     80  C2  NAG B   6      10.107   7.253  35.1590  0.00  0.00     0.000 C
ATOM     81  C3  NAG B   6      10.852   8.574  35.0530  0.00  0.00     0.000 C
ATOM     82  C4  NAG B   6       9.960   9.739  35.4930  0.00  0.00     0.000 C
ATOM     83  C5  NAG B   6       9.420   9.464  36.8920  0.00  0.00     0.000 C
ATOM     84  O5  NAG B   6       8.662   8.256  36.8330  0.00  0.00     0.000 O
BRANCH 80 87
ATOM     85   N  NAG B   6      10.915   6.056  34.9410  0.00  0.00     0.000 N
ATOM     87  HD  NAG B   6      10.967   5.212  34.7520  0.00  0.00     0.000 HD
ATOM     87   C  NAG B   6      11.016   5.425  33.7640  0.00  0.00     0.000 C
ATOM     88   C  NAG B   6      11.923   4.236  33.7410  0.00  0.00     0.000 C
ATOM     89   O  NAG B   6      10.423   5.791  32.7560  0.00  0.00     0.000 OA
ENDBRANCH 80 87
ATOM     90   O  NAG B   6       9.201  11.228  38.5330  0.00  0.00     0.000 O
ATOM     92  HD  NAG B   6       9.342  10.383  38.4030  0.00  0.00     0.000 HD
ATOM     92   O  NAG B   6       9.201  11.228  38.5330  0.00  0.00     0.000 O
ATOM     94  HD  NAG B   6       9.342  10.383  38.4030  0.00  0.00     0.000 HD
ENDBRANCH 78 81
ENDBRANCH 65 78
ENDBRANCH 64 68
ENDBRANCH 48 64
ENDBRANCH 47 50
ENDBRANCH 34 47
ENDBRANCH 33 37
ENDBRANCH 17 33
ENDBRANCH 16 19
ENDBRANCH 1 16
TORSDOF 16
ENDMDL
MODEL 11
REMARK VINA RESULT:      -7.5      4.686     15.667
ROOT
ATOM      1  C1  BDP B   1      14.304  10.486  31.2430  0.00  0.00     0.000 C
ATOM      2  C2  BDP B   1      13.061  10.778  32.0640  0.00  0.00     0.000 C
ATOM      3  C3  BDP B   1      12.507   9.533  32.7230  0.00  0.00     0.000 C
ATOM      4  C4  BDP B   1      13.471   8.352  32.7290  0.00  0.00     0.000 C
ATOM      5  C5  BDP B   1      14.130   8.121  31.3720  0.00  0.00     0.000 C
ATOM      6  O5  BDP B   1      14.056   9.283  30.5290  0.00  0.00     0.000 O
ATOM      7   O  BDP B   1      13.358  11.759  33.0630  0.00  0.00     0.000 O
ATOM      9  HD  BDP B   1      13.727  12.502  33.3130  0.00  0.00     0.000 HD
ATOM      9   O  BDP B   1      11.309   9.114  32.0510  0.00  0.00     0.000 O
ATOM     11  HD  BDP B   1      11.678   9.857  32.3000  0.00  0.00     0.000 HD
ATOM     11   O  BDP B   1      14.479   8.534  33.7310  0.00  0.00     0.000 O
ATOM     13  HD  BDP B   1      14.848   9.277  33.9800  0.00  0.00     0.000 HD
ENDROOT
BRANCH 5 13
ATOM     13   C  BDP B   1      13.420   6.984  30.7250  0.00  0.00     0.000 C
ATOM     14   O  BDP B   1      13.100   7.097  29.5230  0.00  0.00     0.000 OA
ATOM     15   O  BDP B   1      13.192   5.952  31.3900  0.00  0.00     0.000 OA
ENDBRANCH 5 13
BRANCH 1 16
ATOM     16  O3  NAG B   2      15.626  11.010  31.3430  0.00  0.00     0.000 O
BRANCH 16 19
ATOM     17  C1  NAG B   2      18.529  11.345  29.1720  0.00  0.00     0.000 C
ATOM     18  C2  NAG B   2      17.023  11.476  29.4020  0.00  0.00     0.000 C
ATOM     19  C3  NAG B   2      16.730  11.780  30.8640  0.00  0.00     0.000 C
ATOM     20  C4  NAG B   2      17.954  11.534  31.7510  0.00  0.00     0.000 C
ATOM     21  C5  NAG B   2      18.839  10.353  31.3280  0.00  0.00     0.000 C
ATOM     22  O5  NAG B   2      18.922  10.184  29.9080  0.00  0.00     0.000 O
ATOM     23   O  NAG B   2      18.733  12.734  31.7930  0.00  0.00     0.000 O
ATOM     25  HD  NAG B   2      18.629  12.914  30.9520  0.00  0.00     0.000 HD
ATOM     25   C  NAG B   2      18.330   9.045  31.9480  0.00  0.00     0.000 C
ATOM     26   O  NAG B   2      18.842   8.851  33.2740  0.00  0.00     0.000 O
ATOM     28  HD  NAG B   2      18.738   9.032  32.4340  0.00  0.00     0.000 HD
BRANCH 18 30
ATOM     28   N  NAG B   2      17.562  12.660  28.7340  0.00  0.00     0.000 N
ATOM     30  HD  NAG B   2      18.065  13.352  28.8700  0.00  0.00     0.000 HD
ATOM     30   C  NAG B   2      16.837  13.718  28.3450  0.00  0.00     0.000 C
ATOM     31   C  NAG B   2      17.621  14.807  27.6690  0.00  0.00     0.000 C
ATOM     32   O  NAG B   2      15.645  13.810  28.5210  0.00  0.00     0.000 OA
ENDBRANCH 18 30
BRANCH 17 33
ATOM     33  O4  BDP B   3      19.670  10.872  28.4230  0.00  0.00     0.000 O
BRANCH 33 37
ATOM     34  C1  BDP B   3      20.934  10.140  24.4100  0.00  0.00     0.000 C
ATOM     35  C2  BDP B   3      19.628   9.496  24.8570  0.00  0.00     0.000 C
ATOM     36  C3  BDP B   3      19.035  10.125  26.1130  0.00  0.00     0.000 C
ATOM     37  C4  BDP B   3      20.141  10.310  27.1630  0.00  0.00     0.000 C
ATOM     38  C5  BDP B   3      21.251  11.160  26.5140  0.00  0.00     0.000 C
ATOM     39  O5  BDP B   3      21.833  10.330  25.5090  0.00  0.00     0.000 O
ATOM     40   O  BDP B   3      18.739   9.578  23.7410  0.00  0.00     0.000 O
ATOM     42  HD  BDP B   3      19.207   8.884  23.5160  0.00  0.00     0.000 HD
ATOM     42   O  BDP B   3      18.012   9.242  26.5700  0.00  0.00     0.000 O
ATOM     44  HD  BDP B   3      18.480   8.549  26.3450  0.00  0.00     0.000 HD
BRANCH 38 44
ATOM     44   C  BDP B   3      22.310  11.624  27.4640  0.00  0.00     0.000 C
ATOM     45   O  BDP B   3      22.980  10.755  28.0640  0.00  0.00     0.000 OA
ATOM     46   O  BDP B   3      22.496  12.849  27.6320  0.00  0.00     0.000 OA
ENDBRANCH 38 44
BRANCH 34 47
ATOM     47  O3  NAG B   4      21.857   9.179  23.9000  0.00  0.00     0.000 O
BRANCH 47 50
ATOM     48  C1  NAG B   4      22.830   9.335  20.2700  0.00  0.00     0.000 C
ATOM     49  C2  NAG B   4      21.930   9.087  21.4680  0.00  0.00     0.000 C
ATOM     50  C3  NAG B   4      22.670   9.470  22.7450  0.00  0.00     0.000 C
ATOM     51  C4  NAG B   4      23.998   8.739  22.8630  0.00  0.00     0.000 C
ATOM     52  C5  NAG B   4      24.829   8.968  21.6000  0.00  0.00     0.000 C
ATOM     53  O5  NAG B   4      24.072   8.623  20.4330  0.00  0.00     0.000 O
ATOM     54   O  NAG B   4      24.692   9.217  24.0180  0.00  0.00     0.000 O
ATOM     56  HD  NAG B   4      25.033   8.486  23.7020  0.00  0.00     0.000 HD
ATOM     56   C  NAG B   4      26.115   8.149  21.6280  0.00  0.00     0.000 C
ATOM     57   O  NAG B   4      25.781   6.757  21.7150  0.00  0.00     0.000 O
ATOM     59  HD  NAG B   4      26.122   6.026  21.4000  0.00  0.00     0.000 HD
BRANCH 49 61
ATOM     59   N  NAG B   4      21.515   7.688  21.3570  0.00  0.00     0.000 N
ATOM     61  HD  NAG B   4      21.326   8.386  21.8340  0.00  0.00     0.000 HD
ATOM     61   O  NAG B   4      19.296   8.043  21.5890  0.00  0.00     0.000 OA
ATOM     62   C  NAG B   4      20.235   7.296  21.3540  0.00  0.00     0.000 C
ATOM     63   C  NAG B   4      20.000   5.858  21.0160  0.00  0.00     0.000 C
ENDBRANCH 49 61
BRANCH 48 64
ATOM     64  O4  BDP B   5      22.565   9.673  18.9120  0.00  0.00     0.000 O
BRANCH 64 68
ATOM     65  C1  BDP B   5      22.058  11.664  15.2860  0.00  0.00     0.000 C
ATOM     66  C2  BDP B   5      23.252  10.723  15.3690  0.00  0.00     0.000 C
ATOM     67  C3  BDP B   5      23.072   9.769  16.5420  0.00  0.00     0.000 C
ATOM     68  C4  BDP B   5      22.862  10.556  17.8310  0.00  0.00     0.000 C
ATOM     69  C5  BDP B   5      21.733  11.570  17.7070  0.00  0.00     0.000 C
ATOM     70  O5  BDP B   5      21.901  12.373  16.5260  0.00  0.00     0.000 O
ATOM     71   O  BDP B   5      23.396  10.017  14.1270  0.00  0.00     0.000 O
ATOM     73  HD  BDP B   5      23.425   9.604  13.3660  0.00  0.00     0.000 HD
ATOM     73   O  BDP B   5      24.221   8.925  16.6860  0.00  0.00     0.000 O
ATOM     75  HD  BDP B   5      24.250   8.513  15.9250  0.00  0.00     0.000 HD
BRANCH 69 75
ATOM     75   C  BDP B   5      21.758  12.457  18.9260  0.00  0.00     0.000 C
ATOM     76   O  BDP B   5      20.760  12.476  19.6750  0.00  0.00     0.000 OA
ATOM     77   O  BDP B   5      22.772  13.142  19.1530  0.00  0.00     0.000 OA
ENDBRANCH 69 75
BRANCH 65 78
ATOM     78  O3  NAG B   6      22.066  13.003  14.7840  0.00  0.00     0.000 O
BRANCH 78 81
ATOM     79  C1  NAG B   6      20.199  14.854  12.0590  0.00  0.00     0.000 C
ATOM     80  C2  NAG B   6      21.207  13.871  12.6740  0.00  0.00     0.000 C
ATOM     81  C3  NAG B   6      21.026  13.805  14.1820  0.00  0.00     0.000 C
ATOM     82  C4  NAG B   6      21.029  15.210  14.7940  0.00  0.00     0.000 C
ATOM     83  C5  NAG B   6      19.978  16.068  14.0990  0.00  0.00     0.000 C
ATOM     84  O5  NAG B   6      20.317  16.130  12.7130  0.00  0.00     0.000 O
BRANCH 80 87
ATOM     85   N  NAG B   6      21.041  12.621  11.9380  0.00  0.00     0.000 N
ATOM     87  HD  NAG B   6      21.187  12.144  11.2300  0.00  0.00     0.000 HD
ATOM     87   C  NAG B   6      22.047  11.793  11.6300  0.00  0.00     0.000 C
ATOM     88   C  NAG B   6      21.661  10.545  10.9010  0.00  0.00     0.000 C
ATOM     89   O  NAG B   6      23.213  12.018  11.9310  0.00  0.00     0.000 OA
ENDBRANCH 80 87
ATOM     90   O  NAG B   6      18.625  17.652  15.3270  0.00  0.00     0.000 O
ATOM     92  HD  NAG B   6      18.662  17.117  14.6470  0.00  0.00     0.000 HD
ATOM     92   O  NAG B   6      18.625  17.652  15.3270  0.00  0.00     0.000 O
ATOM     94  HD  NAG B   6      18.662  17.117  14.6470  0.00  0.00     0.000 HD
ENDBRANCH 78 81
ENDBRANCH 65 78
ENDBRANCH 64 68
ENDBRANCH 48 64
ENDBRANCH 47 50
ENDBRANCH 34 47
ENDBRANCH 33 37
ENDBRANCH 17 33
ENDBRANCH 16 19
ENDBRANCH 1 16
TORSDOF 16
ENDMDL
MODEL 12
REMARK VINA RESULT:      -7.5      9.618     18.366
ROOT
ATOM      1  C1  BDP B   1      21.859   8.188  22.6730  0.00  0.00     0.000 C
ATOM      2  C2  BDP B   1      20.953   7.052  23.1120  0.00  0.00     0.000 C
ATOM      3  C3  BDP B   1      19.905   7.509  24.1040  0.00  0.00     0.000 C
ATOM      4  C4  BDP B   1      19.743   9.023  24.1830  0.00  0.00     0.000 C
ATOM      5  C5  BDP B   1      21.078   9.756  24.2760  0.00  0.00     0.000 C
ATOM      6  O5  BDP B   1      22.176   8.939  23.8360  0.00  0.00     0.000 O
ATOM      7   O  BDP B   1      20.314   6.470  21.9710  0.00  0.00     0.000 O
ATOM      9  HD  BDP B   1      20.335   6.172  21.1580  0.00  0.00     0.000 HD
ATOM      9   O  BDP B   1      20.237   7.037  25.4190  0.00  0.00     0.000 O
ATOM     11  HD  BDP B   1      20.258   6.739  24.6070  0.00  0.00     0.000 HD
ATOM     11   O  BDP B   1      19.004   9.506  23.0540  0.00  0.00     0.000 O
ATOM     13  HD  BDP B   1      19.026   9.208  22.2410  0.00  0.00     0.000 HD
ENDROOT
BRANCH 5 13
ATOM     13   C  BDP B   1      21.275  10.135  25.7020  0.00  0.00     0.000 C
ATOM     14   O  BDP B   1      20.334  10.701  26.2970  0.00  0.00     0.000 OA
ATOM     15   O  BDP B   1      22.355   9.853  26.2630  0.00  0.00     0.000 OA
ENDBRANCH 5 13
BRANCH 1 16
ATOM     16  O3  NAG B   2      22.120   8.717  21.3740  0.00  0.00     0.000 O
BRANCH 16 19
ATOM     17  C1  NAG B   2      22.163  10.021  17.9750  0.00  0.00     0.000 C
ATOM     18  C2  NAG B   2      22.759   9.966  19.3820  0.00  0.00     0.000 C
ATOM     19  C3  NAG B   2      22.525   8.600  20.0090  0.00  0.00     0.000 C
ATOM     20  C4  NAG B   2      21.486   7.788  19.2300  0.00  0.00     0.000 C
ATOM     21  C5  NAG B   2      20.342   8.609  18.6200  0.00  0.00     0.000 C
ATOM     22  O5  NAG B   2      20.751   9.903  18.1610  0.00  0.00     0.000 O
ATOM     23   O  NAG B   2      22.160   7.056  18.2010  0.00  0.00     0.000 O
ATOM     25  HD  NAG B   2      22.694   7.706  17.9910  0.00  0.00     0.000 HD
ATOM     25   C  NAG B   2      19.203   8.787  19.6350  0.00  0.00     0.000 C
ATOM     26   O  NAG B   2      18.303   7.670  19.6230  0.00  0.00     0.000 O
ATOM     28  HD  NAG B   2      18.836   8.319  19.4140  0.00  0.00     0.000 HD
BRANCH 18 30
ATOM     28   N  NAG B   2      24.096  10.501  19.1270  0.00  0.00     0.000 N
ATOM     30  HD  NAG B   2      24.524  11.055  18.6170  0.00  0.00     0.000 HD
ATOM     30   C  NAG B   2      25.117   9.803  18.6120  0.00  0.00     0.000 C
ATOM     31   C  NAG B   2      26.396  10.575  18.4550  0.00  0.00     0.000 C
ATOM     32   O  NAG B   2      25.033   8.641  18.2860  0.00  0.00     0.000 OA
ENDBRANCH 18 30
BRANCH 17 33
ATOM     33  O4  BDP B   3      21.637  10.740  16.8380  0.00  0.00     0.000 O
BRANCH 33 37
ATOM     34  C1  BDP B   3      21.829  13.199  13.3520  0.00  0.00     0.000 C
ATOM     35  C2  BDP B   3      23.127  12.556  13.8230  0.00  0.00     0.000 C
ATOM     36  C3  BDP B   3      22.918  11.388  14.7800  0.00  0.00     0.000 C
ATOM     37  C4  BDP B   3      21.882  11.778  15.8450  0.00  0.00     0.000 C
ATOM     38  C5  BDP B   3      20.601  12.203  15.1030  0.00  0.00     0.000 C
ATOM     39  O5  BDP B   3      20.926  13.425  14.4400  0.00  0.00     0.000 O
ATOM     40   O  BDP B   3      23.832  12.168  12.6420  0.00  0.00     0.000 O
ATOM     42  HD  BDP B   3      24.034  13.009  12.6730  0.00  0.00     0.000 HD
ATOM     42   O  BDP B   3      24.190  11.099  15.3570  0.00  0.00     0.000 O
ATOM     44  HD  BDP B   3      24.392  11.940  15.3880  0.00  0.00     0.000 HD
BRANCH 38 44
ATOM     44   C  BDP B   3      19.411  12.407  15.9890  0.00  0.00     0.000 C
ATOM     45   O  BDP B   3      18.339  11.850  15.6670  0.00  0.00     0.000 OA
ATOM     46   O  BDP B   3      19.517  13.119  17.0110  0.00  0.00     0.000 OA
ENDBRANCH 38 44
BRANCH 34 47
ATOM     47  O3  NAG B   4      21.946  14.616  13.2350  0.00  0.00     0.000 O
BRANCH 47 50
ATOM     48  C1  NAG B   4      19.666  15.883  10.5250  0.00  0.00     0.000 C
ATOM     49  C2  NAG B   4      20.721  14.998  11.1660  0.00  0.00     0.000 C
ATOM     50  C3  NAG B   4      20.900  15.400  12.6250  0.00  0.00     0.000 C
ATOM     51  C4  NAG B   4      21.229  16.878  12.7620  0.00  0.00     0.000 C
ATOM     52  C5  NAG B   4      20.172  17.714  12.0390  0.00  0.00     0.000 C
ATOM     53  O5  NAG B   4      20.024  17.269  10.6850  0.00  0.00     0.000 O
ATOM     54   O  NAG B   4      21.277  17.218  14.1510  0.00  0.00     0.000 O
ATOM     56  HD  NAG B   4      21.622  17.831  13.6450  0.00  0.00     0.000 HD
ATOM     56   C  NAG B   4      20.535  19.194  12.0480  0.00  0.00     0.000 C
ATOM     57   O  NAG B   4      21.795  19.370  11.3870  0.00  0.00     0.000 O
ATOM     59  HD  NAG B   4      22.139  19.984  10.8810  0.00  0.00     0.000 HD
BRANCH 49 61
ATOM     59   N  NAG B   4      21.767  15.111  10.1490  0.00  0.00     0.000 N
ATOM     61  HD  NAG B   4      21.626  14.688  10.8910  0.00  0.00     0.000 HD
ATOM     61   O  NAG B   4      22.283  12.914  10.0450  0.00  0.00     0.000 OA
ATOM     62   C  NAG B   4      22.404  14.056   9.6260  0.00  0.00     0.000 C
ATOM     63   C  NAG B   4      23.283  14.349   8.4510  0.00  0.00     0.000 C
ENDBRANCH 49 61
BRANCH 48 64
ATOM     64  O4  BDP B   5      18.740  15.673   9.4620  0.00  0.00     0.000 O
BRANCH 64 68
ATOM     65  C1  BDP B   5      16.561  12.175   8.8440  0.00  0.00     0.000 C
ATOM     66  C2  BDP B   5      17.724  12.414   7.8900  0.00  0.00     0.000 C
ATOM     67  C3  BDP B   5      18.664  13.457   8.4790  0.00  0.00     0.000 C
ATOM     68  C4  BDP B   5      17.897  14.737   8.7920  0.00  0.00     0.000 C
ATOM     69  C5  BDP B   5      16.674  14.476   9.6620  0.00  0.00     0.000 C
ATOM     70  O5  BDP B   5      15.880  13.411   9.1110  0.00  0.00     0.000 O
ATOM     71   O  BDP B   5      18.401  11.174   7.6350  0.00  0.00     0.000 O
ATOM     73  HD  BDP B   5      18.784  10.404   7.5310  0.00  0.00     0.000 HD
ATOM     73   O  BDP B   5      19.724  13.754   7.5630  0.00  0.00     0.000 O
ATOM     75  HD  BDP B   5      20.107  12.984   7.4590  0.00  0.00     0.000 HD
BRANCH 69 75
ATOM     75   C  BDP B   5      15.853  15.740   9.7160  0.00  0.00     0.000 C
ATOM     76   O  BDP B   5      15.537  16.296   8.6450  0.00  0.00     0.000 OA
ATOM     77   O  BDP B   5      15.511  16.190  10.8250  0.00  0.00     0.000 OA
ENDBRANCH 69 75
BRANCH 65 78
ATOM     78  O3  NAG B   6      15.234  11.784   8.4830  0.00  0.00     0.000 O
BRANCH 78 81
ATOM     79  C1  NAG B   6      12.940   8.964   9.5420  0.00  0.00     0.000 C
ATOM     80  C2  NAG B   6      14.146   9.638   8.8670  0.00  0.00     0.000 C
ATOM     81  C3  NAG B   6      14.197  11.113   9.2320  0.00  0.00     0.000 C
ATOM     82  C4  NAG B   6      12.845  11.786   8.9740  0.00  0.00     0.000 C
ATOM     83  C5  NAG B   6      11.750  11.024   9.7100  0.00  0.00     0.000 C
ATOM     84  O5  NAG B   6      11.741   9.687   9.2080  0.00  0.00     0.000 O
BRANCH 80 87
ATOM     85   N  NAG B   6      15.142   9.018   7.9980  0.00  0.00     0.000 N
ATOM     87  HD  NAG B   6      15.918   9.041   7.6140  0.00  0.00     0.000 HD
ATOM     87   C  NAG B   6      16.341   8.593   8.4170  0.00  0.00     0.000 C
ATOM     88   C  NAG B   6      17.203   7.954   7.3750  0.00  0.00     0.000 C
ATOM     89   O  NAG B   6      16.719   8.699   9.5780  0.00  0.00     0.000 OA
ENDBRANCH 80 87
ATOM     90   O  NAG B   6       9.917  12.172  10.7910  0.00  0.00     0.000 O
ATOM     92  HD  NAG B   6      10.432  11.476  10.8010  0.00  0.00     0.000 HD
ATOM     92   O  NAG B   6       9.917  12.172  10.7910  0.00  0.00     0.000 O
ATOM     94  HD  NAG B   6      10.432  11.476  10.8010  0.00  0.00     0.000 HD
ENDBRANCH 78 81
ENDBRANCH 65 78
ENDBRANCH 64 68
ENDBRANCH 48 64
ENDBRANCH 47 50
ENDBRANCH 34 47
ENDBRANCH 33 37
ENDBRANCH 17 33
ENDBRANCH 16 19
ENDBRANCH 1 16
TORSDOF 16
ENDMDL
MODEL 13
REMARK VINA RESULT:      -7.5      5.551     11.277
ROOT
ATOM      1  C1  BDP B   1      16.965  11.248  29.9390  0.00  0.00     0.000 C
ATOM      2  C2  BDP B   1      16.635  12.501  29.1480  0.00  0.00     0.000 C
ATOM      3  C3  BDP B   1      17.443  12.599  27.8720  0.00  0.00     0.000 C
ATOM      4  C4  BDP B   1      18.131  11.298  27.4710  0.00  0.00     0.000 C
ATOM      5  C5  BDP B   1      18.850  10.627  28.6370  0.00  0.00     0.000 C
ATOM      6  O5  BDP B   1      18.377  11.098  29.9100  0.00  0.00     0.000 O
ATOM      7   O  BDP B   1      15.238  12.526  28.8360  0.00  0.00     0.000 O
ATOM      9  HD  BDP B   1      14.408  12.418  29.0580  0.00  0.00     0.000 HD
ATOM      9   O  BDP B   1      18.460  13.604  28.0110  0.00  0.00     0.000 O
ATOM     11  HD  BDP B   1      17.630  13.496  28.2330  0.00  0.00     0.000 HD
ATOM     11   O  BDP B   1      17.183  10.388  26.8990  0.00  0.00     0.000 O
ATOM     13  HD  BDP B   1      16.353  10.280  27.1210  0.00  0.00     0.000 HD
ENDROOT
BRANCH 5 13
ATOM     13   C  BDP B   1      20.300  10.934  28.4950  0.00  0.00     0.000 C
ATOM     14   O  BDP B   1      20.745  11.952  29.0650  0.00  0.00     0.000 OA
ATOM     15   O  BDP B   1      21.025  10.156  27.8390  0.00  0.00     0.000 OA
ENDBRANCH 5 13
BRANCH 1 16
ATOM     16  O3  NAG B   2      16.130  10.172  30.3620  0.00  0.00     0.000 O
BRANCH 16 19
ATOM     17  C1  NAG B   2      12.892  10.060  32.0230  0.00  0.00     0.000 C
ATOM     18  C2  NAG B   2      13.783   9.713  30.8300  0.00  0.00     0.000 C
ATOM     19  C3  NAG B   2      15.229   9.542  31.2740  0.00  0.00     0.000 C
ATOM     20  C4  NAG B   2      15.457  10.089  32.6860  0.00  0.00     0.000 C
ATOM     21  C5  NAG B   2      14.640  11.339  33.0400  0.00  0.00     0.000 C
ATOM     22  O5  NAG B   2      13.332  11.349  32.4570  0.00  0.00     0.000 O
ATOM     23   O  NAG B   2      15.181   9.046  33.6270  0.00  0.00     0.000 O
ATOM     25  HD  NAG B   2      14.485   8.752  33.2040  0.00  0.00     0.000 HD
ATOM     25   C  NAG B   2      15.381  12.611  32.6040  0.00  0.00     0.000 C
ATOM     26   O  NAG B   2      16.324  13.043  33.5950  0.00  0.00     0.000 O
ATOM     28  HD  NAG B   2      15.628  12.749  33.1710  0.00  0.00     0.000 HD
BRANCH 18 30
ATOM     28   N  NAG B   2      13.151   8.498  31.3440  0.00  0.00     0.000 N
ATOM     30  HD  NAG B   2      13.264   7.859  31.9170  0.00  0.00     0.000 HD
ATOM     30   C  NAG B   2      12.999   7.360  30.6520  0.00  0.00     0.000 C
ATOM     31   C  NAG B   2      12.306   6.255  31.3980  0.00  0.00     0.000 C
ATOM     32   O  NAG B   2      13.388   7.214  29.5170  0.00  0.00     0.000 OA
ENDBRANCH 18 30
BRANCH 17 33
ATOM     33  O4  BDP B   3      11.693  10.621  32.6000  0.00  0.00     0.000 O
BRANCH 33 37
ATOM     34  C1  BDP B   3       9.068  10.960  35.9530  0.00  0.00     0.000 C
ATOM     35  C2  BDP B   3       9.060  12.102  34.9430  0.00  0.00     0.000 C
ATOM     36  C3  BDP B   3       9.676  11.732  33.5980  0.00  0.00     0.000 C
ATOM     37  C4  BDP B   3      11.000  10.987  33.8290  0.00  0.00     0.000 C
ATOM     38  C5  BDP B   3      10.690   9.769  34.7200  0.00  0.00     0.000 C
ATOM     39  O5  BDP B   3      10.340  10.304  35.9970  0.00  0.00     0.000 O
ATOM     40   O  BDP B   3       7.697  12.515  34.8180  0.00  0.00     0.000 O
ATOM     42  HD  BDP B   3       7.918  12.928  35.5460  0.00  0.00     0.000 HD
ATOM     42   O  BDP B   3       9.872  12.953  32.8870  0.00  0.00     0.000 O
ATOM     44  HD  BDP B   3      10.093  13.367  33.6150  0.00  0.00     0.000 HD
BRANCH 38 44
ATOM     44   C  BDP B   3      11.825   8.805  34.8680  0.00  0.00     0.000 C
ATOM     45   O  BDP B   3      12.823   9.172  35.5260  0.00  0.00     0.000 OA
ATOM     46   O  BDP B   3      11.750   7.675  34.3370  0.00  0.00     0.000 OA
ENDBRANCH 38 44
BRANCH 34 47
ATOM     47  O3  NAG B   4       9.328  11.421  37.2770  0.00  0.00     0.000 O
BRANCH 47 50
ATOM     48  C1  NAG B   4       9.321   8.406  39.5260  0.00  0.00     0.000 C
ATOM     49  C2  NAG B   4       8.860   9.310  38.3960  0.00  0.00     0.000 C
ATOM     50  C3  NAG B   4       9.788  10.516  38.3010  0.00  0.00     0.000 C
ATOM     51  C4  NAG B   4       9.883  11.255  39.6270  0.00  0.00     0.000 C
ATOM     52  C5  NAG B   4      10.281  10.281  40.7360  0.00  0.00     0.000 C
ATOM     53  O5  NAG B   4       9.395   9.155  40.7550  0.00  0.00     0.000 O
ATOM     54   O  NAG B   4      10.846  12.305  39.5070  0.00  0.00     0.000 O
ATOM     56  HD  NAG B   4      10.354  12.383  40.2150  0.00  0.00     0.000 HD
ATOM     56   C  NAG B   4      10.264  10.960  42.1010  0.00  0.00     0.000 C
ATOM     57   O  NAG B   4       8.941  11.446  42.3650  0.00  0.00     0.000 O
ATOM     59  HD  NAG B   4       8.449  11.523  43.0740  0.00  0.00     0.000 HD
BRANCH 49 61
ATOM     59   N  NAG B   4       7.459   9.077  38.7500  0.00  0.00     0.000 N
ATOM     61  HD  NAG B   4       7.918   9.563  38.1990  0.00  0.00     0.000 HD
ATOM     61   O  NAG B   4       6.646   9.057  36.6430  0.00  0.00     0.000 OA
ATOM     62   C  NAG B   4       6.490   8.898  37.8450  0.00  0.00     0.000 C
ATOM     63   C  NAG B   4       5.168   8.460  38.3900  0.00  0.00     0.000 C
ENDBRANCH 49 61
BRANCH 48 64
ATOM     64  O4  BDP B   5       9.227   7.002  39.7430  0.00  0.00     0.000 O
BRANCH 64 68
ATOM     65  C1  BDP B   5       8.458   4.129  36.8240  0.00  0.00     0.000 C
ATOM     66  C2  BDP B   5       7.647   4.009  38.1070  0.00  0.00     0.000 C
ATOM     67  C3  BDP B   5       7.707   5.323  38.8750  0.00  0.00     0.000 C
ATOM     68  C4  BDP B   5       9.157   5.711  39.1390  0.00  0.00     0.000 C
ATOM     69  C5  BDP B   5       9.989   5.727  37.8630  0.00  0.00     0.000 C
ATOM     70  O5  BDP B   5       9.811   4.503  37.1280  0.00  0.00     0.000 O
ATOM     71   O  BDP B   5       6.296   3.641  37.7910  0.00  0.00     0.000 O
ATOM     73  HD  BDP B   5       5.491   3.438  37.5440  0.00  0.00     0.000 HD
ATOM     73   O  BDP B   5       7.014   5.208  40.1240  0.00  0.00     0.000 O
ATOM     75  HD  BDP B   5       6.209   5.005  39.8770  0.00  0.00     0.000 HD
BRANCH 69 75
ATOM     75   C  BDP B   5      11.440   5.877  38.2450  0.00  0.00     0.000 C
ATOM     76   O  BDP B   5      11.824   5.413  39.3370  0.00  0.00     0.000 OA
ATOM     77   O  BDP B   5      12.213   6.456  37.4590  0.00  0.00     0.000 OA
ENDBRANCH 69 75
BRANCH 65 78
ATOM     78  O3  NAG B   6       9.142   3.069  36.1500  0.00  0.00     0.000 O
BRANCH 78 81
ATOM     79  C1  NAG B   6      10.633   2.632  32.6980  0.00  0.00     0.000 C
ATOM     80  C2  NAG B   6       9.535   2.774  33.7630  0.00  0.00     0.000 C
ATOM     81  C3  NAG B   6      10.151   3.086  35.1170  0.00  0.00     0.000 C
ATOM     82  C4  NAG B   6      11.263   2.087  35.4550  0.00  0.00     0.000 C
ATOM     83  C5  NAG B   6      12.282   2.061  34.3220  0.00  0.00     0.000 C
ATOM     84  O5  NAG B   6      11.599   1.659  33.1340  0.00  0.00     0.000 O
BRANCH 80 87
ATOM     85   N  NAG B   6       8.591   3.762  33.2470  0.00  0.00     0.000 N
ATOM     87  HD  NAG B   6       7.941   3.968  32.7140  0.00  0.00     0.000 HD
ATOM     87   C  NAG B   6       7.264   3.687  33.4110  0.00  0.00     0.000 C
ATOM     88   C  NAG B   6       6.475   4.820  32.8360  0.00  0.00     0.000 C
ATOM     89   O  NAG B   6       6.715   2.767  34.0040  0.00  0.00     0.000 OA
ENDBRANCH 80 87
ATOM     90   O  NAG B   6      14.653   1.870  34.7580  0.00  0.00     0.000 O
ATOM     92  HD  NAG B   6      14.045   2.183  34.2260  0.00  0.00     0.000 HD
ATOM     92   O  NAG B   6      14.653   1.870  34.7580  0.00  0.00     0.000 O
ATOM     94  HD  NAG B   6      14.045   2.183  34.2260  0.00  0.00     0.000 HD
ENDBRANCH 78 81
ENDBRANCH 65 78
ENDBRANCH 64 68
ENDBRANCH 48 64
ENDBRANCH 47 50
ENDBRANCH 34 47
ENDBRANCH 33 37
ENDBRANCH 17 33
ENDBRANCH 16 19
ENDBRANCH 1 16
TORSDOF 16
ENDMDL
MODEL 14
REMARK VINA RESULT:      -7.5      3.344      5.539
ROOT
ATOM      1  C1  BDP B   1      22.139   4.328  20.9800  0.00  0.00     0.000 C
ATOM      2  C2  BDP B   1      20.789   3.637  20.8970  0.00  0.00     0.000 C
ATOM      3  C3  BDP B   1      20.469   2.859  22.1560  0.00  0.00     0.000 C
ATOM      4  C4  BDP B   1      21.360   3.205  23.3440  0.00  0.00     0.000 C
ATOM      5  C5  BDP B   1      22.840   3.254  22.9780  0.00  0.00     0.000 C
ATOM      6  O5  BDP B   1      23.044   3.402  21.5620  0.00  0.00     0.000 O
ATOM      7   O  BDP B   1      19.761   4.604  20.6560  0.00  0.00     0.000 O
ATOM      9  HD  BDP B   1      19.457   5.302  20.2440  0.00  0.00     0.000 HD
ATOM      9   O  BDP B   1      20.602   1.450  21.9070  0.00  0.00     0.000 O
ATOM     11  HD  BDP B   1      20.297   2.148  21.4950  0.00  0.00     0.000 HD
ATOM     11   O  BDP B   1      20.962   4.456  23.9180  0.00  0.00     0.000 O
ATOM     13  HD  BDP B   1      20.658   5.154  23.5060  0.00  0.00     0.000 HD
ENDROOT
BRANCH 5 13
ATOM     13   C  BDP B   1      23.451   1.978  23.4420  0.00  0.00     0.000 C
ATOM     14   O  BDP B   1      23.876   1.920  24.6150  0.00  0.00     0.000 OA
ATOM     15   O  BDP B   1      23.496   1.005  22.6590  0.00  0.00     0.000 OA
ENDBRANCH 5 13
BRANCH 1 16
ATOM     16  O3  NAG B   2      22.482   5.708  20.8730  0.00  0.00     0.000 O
BRANCH 16 19
ATOM     17  C1  NAG B   2      22.290   8.453  23.2580  0.00  0.00     0.000 C
ATOM     18  C2  NAG B   2      22.763   7.046  22.8900  0.00  0.00     0.000 C
ATOM     19  C3  NAG B   2      22.998   6.936  21.3900  0.00  0.00     0.000 C
ATOM     20  C4  NAG B   2      22.383   8.115  20.6320  0.00  0.00     0.000 C
ATOM     21  C5  NAG B   2      21.064   8.647  21.2110  0.00  0.00     0.000 C
ATOM     22  O5  NAG B   2      21.007   8.590  22.6410  0.00  0.00     0.000 O
ATOM     23   O  NAG B   2      23.348   9.171  20.5740  0.00  0.00     0.000 O
ATOM     25  HD  NAG B   2      23.622   9.060  21.3870  0.00  0.00     0.000 HD
ATOM     25   C  NAG B   2      19.870   7.868  20.6420  0.00  0.00     0.000 C
ATOM     26   O  NAG B   2      19.440   8.402  19.3820  0.00  0.00     0.000 O
ATOM     28  HD  NAG B   2      19.714   8.291  20.1960  0.00  0.00     0.000 HD
BRANCH 18 30
ATOM     28   N  NAG B   2      24.210   7.205  22.7490  0.00  0.00     0.000 N
ATOM     30  HD  NAG B   2      24.926   6.775  22.5190  0.00  0.00     0.000 HD
ATOM     30   C  NAG B   2      25.068   7.357  23.7680  0.00  0.00     0.000 C
ATOM     31   C  NAG B   2      26.507   7.513  23.3650  0.00  0.00     0.000 C
ATOM     32   O  NAG B   2      24.730   7.365  24.9290  0.00  0.00     0.000 OA
ENDBRANCH 18 30
BRANCH 17 33
ATOM     33  O4  BDP B   3      21.621   9.386  24.1330  0.00  0.00     0.000 O
BRANCH 33 37
ATOM     34  C1  BDP B   3      19.883  10.541  27.8600  0.00  0.00     0.000 C
ATOM     35  C2  BDP B   3      20.803  11.547  27.1790  0.00  0.00     0.000 C
ATOM     36  C3  BDP B   3      21.037  11.257  25.7000  0.00  0.00     0.000 C
ATOM     37  C4  BDP B   3      21.342   9.763  25.5130  0.00  0.00     0.000 C
ATOM     38  C5  BDP B   3      20.163   8.976  26.1160  0.00  0.00     0.000 C
ATOM     39  O5  BDP B   3      20.234   9.193  27.5250  0.00  0.00     0.000 O
ATOM     40   O  BDP B   3      20.216  12.833  27.3920  0.00  0.00     0.000 O
ATOM     42  HD  BDP B   3      20.617  12.717  28.1510  0.00  0.00     0.000 HD
ATOM     42   O  BDP B   3      22.129  12.078  25.2900  0.00  0.00     0.000 O
ATOM     44  HD  BDP B   3      22.529  11.963  26.0490  0.00  0.00     0.000 HD
BRANCH 38 44
ATOM     44   C  BDP B   3      20.186   7.507  25.8270  0.00  0.00     0.000 C
ATOM     45   O  BDP B   3      21.038   6.808  26.4190  0.00  0.00     0.000 OA
ATOM     46   O  BDP B   3      19.369   7.024  25.0140  0.00  0.00     0.000 OA
ENDBRANCH 38 44
BRANCH 34 47
ATOM     47  O3  NAG B   4      20.300  10.254  29.1930  0.00  0.00     0.000 O
BRANCH 47 50
ATOM     48  C1  NAG B   4      17.534  10.010  31.7310  0.00  0.00     0.000 C
ATOM     49  C2  NAG B   4      18.425  10.666  30.6900  0.00  0.00     0.000 C
ATOM     50  C3  NAG B   4      19.400   9.634  30.1360  0.00  0.00     0.000 C
ATOM     51  C4  NAG B   4      20.203   8.971  31.2440  0.00  0.00     0.000 C
ATOM     52  C5  NAG B   4      19.257   8.392  32.2950  0.00  0.00     0.000 C
ATOM     53  O5  NAG B   4      18.344   9.397  32.7540  0.00  0.00     0.000 O
ATOM     54   O  NAG B   4      21.019   7.943  30.6760  0.00  0.00     0.000 O
ATOM     56  HD  NAG B   4      21.251   8.144  31.4860  0.00  0.00     0.000 HD
ATOM     56   C  NAG B   4      20.027   7.829  33.4830  0.00  0.00     0.000 C
ATOM     57   O  NAG B   4      20.795   8.881  34.0840  0.00  0.00     0.000 O
ATOM     59  HD  NAG B   4      21.027   9.082  34.8930  0.00  0.00     0.000 HD
BRANCH 49 61
ATOM     59   N  NAG B   4      18.826  11.854  31.4450  0.00  0.00     0.000 N
ATOM     61  HD  NAG B   4      18.933  11.520  30.6530  0.00  0.00     0.000 HD
ATOM     61   O  NAG B   4      18.502  13.352  29.7860  0.00  0.00     0.000 OA
ATOM     62   C  NAG B   4      18.760  13.097  30.9530  0.00  0.00     0.000 C
ATOM     63   C  NAG B   4      19.006  14.196  31.9380  0.00  0.00     0.000 C
ENDBRANCH 49 61
BRANCH 48 64
ATOM     64  O4  BDP B   5      16.200  10.261  32.1630  0.00  0.00     0.000 O
BRANCH 64 68
ATOM     65  C1  BDP B   5      14.060  13.583  33.4870  0.00  0.00     0.000 C
ATOM     66  C2  BDP B   5      15.194  13.117  34.3900  0.00  0.00     0.000 C
ATOM     67  C3  BDP B   5      16.133  12.209  33.6070  0.00  0.00     0.000 C
ATOM     68  C4  BDP B   5      15.355  11.045  33.0040  0.00  0.00     0.000 C
ATOM     69  C5  BDP B   5      14.159  11.515  32.1860  0.00  0.00     0.000 C
ATOM     70  O5  BDP B   5      13.367  12.450  32.9400  0.00  0.00     0.000 O
ATOM     71   O  BDP B   5      15.883  14.257  34.9260  0.00  0.00     0.000 O
ATOM     73  HD  BDP B   5      16.275  14.977  35.2050  0.00  0.00     0.000 HD
ATOM     73   O  BDP B   5      17.164  11.696  34.4590  0.00  0.00     0.000 O
ATOM     75  HD  BDP B   5      17.556  12.416  34.7370  0.00  0.00     0.000 HD
BRANCH 69 75
ATOM     75   C  BDP B   5      13.320  10.312  31.8380  0.00  0.00     0.000 C
ATOM     76   O  BDP B   5      12.613   9.796  32.7270  0.00  0.00     0.000 OA
ATOM     77   O  BDP B   5      13.353   9.870  30.6740  0.00  0.00     0.000 OA
ENDBRANCH 69 75
BRANCH 65 78
ATOM     78  O3  NAG B   6      12.730  13.914  33.8950  0.00  0.00     0.000 O
BRANCH 78 81
ATOM     79  C1  NAG B   6      10.533  16.968  33.4750  0.00  0.00     0.000 C
ATOM     80  C2  NAG B   6      11.703  16.120  34.0000  0.00  0.00     0.000 C
ATOM     81  C3  NAG B   6      11.732  14.771  33.3010  0.00  0.00     0.000 C
ATOM     82  C4  NAG B   6      10.358  14.095  33.3610  0.00  0.00     0.000 C
ATOM     83  C5  NAG B   6       9.303  15.041  32.7980  0.00  0.00     0.000 C
ATOM     84  O5  NAG B   6       9.309  16.222  33.6010  0.00  0.00     0.000 O
BRANCH 80 87
ATOM     85   N  NAG B   6      12.908  16.930  33.8450  0.00  0.00     0.000 N
ATOM     87  HD  NAG B   6      13.409  17.585  34.1100  0.00  0.00     0.000 HD
ATOM     87   C  NAG B   6      13.906  16.966  34.7360  0.00  0.00     0.000 C
ATOM     88   C  NAG B   6      15.069  17.834  34.3730  0.00  0.00     0.000 C
ATOM     89   O  NAG B   6      13.893  16.326  35.7810  0.00  0.00     0.000 OA
ENDBRANCH 80 87
ATOM     90   O  NAG B   6       7.478  14.231  31.4340  0.00  0.00     0.000 O
ATOM     92  HD  NAG B   6       8.008  14.895  31.6010  0.00  0.00     0.000 HD
ATOM     92   O  NAG B   6       7.478  14.231  31.4340  0.00  0.00     0.000 O
ATOM     94  HD  NAG B   6       8.008  14.895  31.6010  0.00  0.00     0.000 HD
ENDBRANCH 78 81
ENDBRANCH 65 78
ENDBRANCH 64 68
ENDBRANCH 48 64
ENDBRANCH 47 50
ENDBRANCH 34 47
ENDBRANCH 33 37
ENDBRANCH 17 33
ENDBRANCH 16 19
ENDBRANCH 1 16
TORSDOF 16
ENDMDL
MODEL 15
REMARK VINA RESULT:      -7.4     10.027     17.892
ROOT
ATOM      1  C1  BDP B   1      23.546   6.358  21.9610  0.00  0.00     0.000 C
ATOM      2  C2  BDP B   1      23.814   6.773  23.3970  0.00  0.00     0.000 C
ATOM      3  C3  BDP B   1      25.165   7.436  23.5570  0.00  0.00     0.000 C
ATOM      4  C4  BDP B   1      25.805   7.867  22.2420  0.00  0.00     0.000 C
ATOM      5  C5  BDP B   1      25.746   6.780  21.1730  0.00  0.00     0.000 C
ATOM      6  O5  BDP B   1      24.748   5.787  21.4640  0.00  0.00     0.000 O
ATOM      7   O  BDP B   1      22.785   7.662  23.8470  0.00  0.00     0.000 O
ATOM      9  HD  BDP B   1      21.952   7.889  23.9100  0.00  0.00     0.000 HD
ATOM      9   O  BDP B   1      26.076   6.540  24.2130  0.00  0.00     0.000 O
ATOM     11  HD  BDP B   1      25.243   6.768  24.2760  0.00  0.00     0.000 HD
ATOM     11   O  BDP B   1      25.184   9.061  21.7510  0.00  0.00     0.000 O
ATOM     13  HD  BDP B   1      24.351   9.288  21.8150  0.00  0.00     0.000 HD
ENDROOT
BRANCH 5 13
ATOM     13   C  BDP B   1      27.089   6.140  21.1200  0.00  0.00     0.000 C
ATOM     14   O  BDP B   1      27.316   5.181  21.8870  0.00  0.00     0.000 OA
ATOM     15   O  BDP B   1      27.932   6.562  20.2990  0.00  0.00     0.000 OA
ENDBRANCH 5 13
BRANCH 1 16
ATOM     16  O3  NAG B   2      22.495   6.726  21.0700  0.00  0.00     0.000 O
BRANCH 16 19
ATOM     17  C1  NAG B   2      22.365   9.198  18.4010  0.00  0.00     0.000 C
ATOM     18  C2  NAG B   2      23.021   7.978  19.0480  0.00  0.00     0.000 C
ATOM     19  C3  NAG B   2      21.990   7.154  19.8050  0.00  0.00     0.000 C
ATOM     20  C4  NAG B   2      20.683   7.927  20.0050  0.00  0.00     0.000 C
ATOM     21  C5  NAG B   2      20.846   9.436  20.2350  0.00  0.00     0.000 C
ATOM     22  O5  NAG B   2      21.928  10.011  19.4920  0.00  0.00     0.000 O
ATOM     23   O  NAG B   2      19.842   7.698  18.8700  0.00  0.00     0.000 O
ATOM     25  HD  NAG B   2      20.486   7.750  18.2930  0.00  0.00     0.000 HD
ATOM     25   C  NAG B   2      21.062   9.735  21.7250  0.00  0.00     0.000 C
ATOM     26   O  NAG B   2      19.817   9.842  22.4310  0.00  0.00     0.000 O
ATOM     28  HD  NAG B   2      20.462   9.894  21.8550  0.00  0.00     0.000 HD
BRANCH 18 30
ATOM     28   N  NAG B   2      22.843   7.783  17.6090  0.00  0.00     0.000 N
ATOM     30  HD  NAG B   2      22.236   7.638  17.0090  0.00  0.00     0.000 HD
ATOM     30   C  NAG B   2      23.260   6.710  16.9220  0.00  0.00     0.000 C
ATOM     31   C  NAG B   2      22.968   6.750  15.4490  0.00  0.00     0.000 C
ATOM     32   O  NAG B   2      23.823   5.769  17.4330  0.00  0.00     0.000 OA
ENDBRANCH 18 30
BRANCH 17 33
ATOM     33  O4  BDP B   3      22.416  10.528  17.8400  0.00  0.00     0.000 O
BRANCH 33 37
ATOM     34  C1  BDP B   3      21.329  12.275  14.0970  0.00  0.00     0.000 C
ATOM     35  C2  BDP B   3      22.693  11.602  14.1820  0.00  0.00     0.000 C
ATOM     36  C3  BDP B   3      22.835  10.656  15.3690  0.00  0.00     0.000 C
ATOM     37  C4  BDP B   3      22.291  11.337  16.6340  0.00  0.00     0.000 C
ATOM     38  C5  BDP B   3      20.834  11.746  16.3430  0.00  0.00     0.000 C
ATOM     39  O5  BDP B   3      20.912  12.787  15.3690  0.00  0.00     0.000 O
ATOM     40   O  BDP B   3      22.887  10.935  12.9330  0.00  0.00     0.000 O
ATOM     42  HD  BDP B   3      23.106  11.743  12.7120  0.00  0.00     0.000 HD
ATOM     42   O  BDP B   3      24.224  10.351  15.4860  0.00  0.00     0.000 O
ATOM     44  HD  BDP B   3      24.442  11.159  15.2660  0.00  0.00     0.000 HD
BRANCH 38 44
ATOM     44   C  BDP B   3      20.075  12.228  17.5400  0.00  0.00     0.000 C
ATOM     45   O  BDP B   3      20.220  13.422  17.8830  0.00  0.00     0.000 OA
ATOM     46   O  BDP B   3      19.329  11.437  18.1580  0.00  0.00     0.000 OA
ENDBRANCH 38 44
BRANCH 34 47
ATOM     47  O3  NAG B   4      21.427  13.628  13.6540  0.00  0.00     0.000 O
BRANCH 47 50
ATOM     48  C1  NAG B   4      19.200  14.858  10.8840  0.00  0.00     0.000 C
ATOM     49  C2  NAG B   4      20.347  14.095  11.5230  0.00  0.00     0.000 C
ATOM     50  C3  NAG B   4      20.306  14.289  13.0340  0.00  0.00     0.000 C
ATOM     51  C4  NAG B   4      20.315  15.763  13.4100  0.00  0.00     0.000 C
ATOM     52  C5  NAG B   4      19.183  16.490  12.6830  0.00  0.00     0.000 C
ATOM     53  O5  NAG B   4      19.254  16.244  11.2730  0.00  0.00     0.000 O
ATOM     54   O  NAG B   4      20.165  15.883  14.8270  0.00  0.00     0.000 O
ATOM     56  HD  NAG B   4      20.424  16.621  14.4540  0.00  0.00     0.000 HD
ATOM     56   C  NAG B   4      19.238  17.992  12.9370  0.00  0.00     0.000 C
ATOM     57   O  NAG B   4      20.492  18.501  12.4640  0.00  0.00     0.000 O
ATOM     59  HD  NAG B   4      20.751  19.239  12.0920  0.00  0.00     0.000 HD
BRANCH 49 61
ATOM     59   N  NAG B   4      20.206  12.828  10.8050  0.00  0.00     0.000 N
ATOM     61  HD  NAG B   4      20.643  13.572  10.7300  0.00  0.00     0.000 HD
ATOM     61   O  NAG B   4      22.395  12.540  10.3280  0.00  0.00     0.000 OA
ATOM     62   C  NAG B   4      21.245  12.127  10.3350  0.00  0.00     0.000 C
ATOM     63   C  NAG B   4      20.923  10.759   9.8220  0.00  0.00     0.000 C
ENDBRANCH 49 61
BRANCH 48 64
ATOM     64  O4  BDP B   5      18.438  14.649   9.6990  0.00  0.00     0.000 O
BRANCH 64 68
ATOM     65  C1  BDP B   5      14.596  13.038   9.5690  0.00  0.00     0.000 C
ATOM     66  C2  BDP B   5      15.624  12.386   8.6540  0.00  0.00     0.000 C
ATOM     67  C3  BDP B   5      17.028  12.766   9.1080  0.00  0.00     0.000 C
ATOM     68  C4  BDP B   5      17.171  14.283   9.1530  0.00  0.00     0.000 C
ATOM     69  C5  BDP B   5      16.076  14.939   9.9850  0.00  0.00     0.000 C
ATOM     70  O5  BDP B   5      14.781  14.463   9.5810  0.00  0.00     0.000 O
ATOM     71   O  BDP B   5      15.435  10.962   8.6540  0.00  0.00     0.000 O
ATOM     73  HD  BDP B   5      15.290  10.110   8.7060  0.00  0.00     0.000 HD
ATOM     73   O  BDP B   5      18.009  12.225   8.2150  0.00  0.00     0.000 O
ATOM     75  HD  BDP B   5      17.864  11.373   8.2670  0.00  0.00     0.000 HD
BRANCH 69 75
ATOM     75   C  BDP B   5      16.152  16.430   9.7750  0.00  0.00     0.000 C
ATOM     76   O  BDP B   5      16.187  17.175  10.7750  0.00  0.00     0.000 OA
ATOM     77   O  BDP B   5      16.181  16.876   8.6130  0.00  0.00     0.000 OA
ENDBRANCH 69 75
BRANCH 65 78
ATOM     78  O3  NAG B   6      13.272  13.441   9.2070  0.00  0.00     0.000 O
BRANCH 78 81
ATOM     79  C1  NAG B   6       9.910  13.352  10.9440  0.00  0.00     0.000 C
ATOM     80  C2  NAG B   6      11.159  12.802  10.2380  0.00  0.00     0.000 C
ATOM     81  C3  NAG B   6      12.166  13.916  10.0030  0.00  0.00     0.000 C
ATOM     82  C4  NAG B   6      11.502  15.114   9.3150  0.00  0.00     0.000 C
ATOM     83  C5  NAG B   6      10.292  15.559  10.1280  0.00  0.00     0.000 C
ATOM     84  O5  NAG B   6       9.384  14.458  10.1890  0.00  0.00     0.000 O
BRANCH 80 87
ATOM     85   N  NAG B   6      11.611  11.498   9.7590  0.00  0.00     0.000 N
ATOM     87  HD  NAG B   6      12.253  10.935   9.6150  0.00  0.00     0.000 HD
ATOM     87   C  NAG B   6      12.141  10.553  10.5450  0.00  0.00     0.000 C
ATOM     88   C  NAG B   6      12.508   9.273   9.8640  0.00  0.00     0.000 C
ATOM     89   O  NAG B   6      12.308  10.703  11.7500  0.00  0.00     0.000 OA
ENDBRANCH 80 87
ATOM     90   O  NAG B   6       9.747  17.899  10.4050  0.00  0.00     0.000 O
ATOM     92  HD  NAG B   6       9.713  17.108  10.7580  0.00  0.00     0.000 HD
ATOM     92   O  NAG B   6       9.747  17.899  10.4050  0.00  0.00     0.000 O
ATOM     94  HD  NAG B   6       9.713  17.108  10.7580  0.00  0.00     0.000 HD
ENDBRANCH 78 81
ENDBRANCH 65 78
ENDBRANCH 64 68
ENDBRANCH 48 64
ENDBRANCH 47 50
ENDBRANCH 34 47
ENDBRANCH 33 37
ENDBRANCH 17 33
ENDBRANCH 16 19
ENDBRANCH 1 16
TORSDOF 16
ENDMDL
MODEL 16
REMARK VINA RESULT:      -7.4     16.920     20.538
ROOT
ATOM      1  C1  BDP B   1      23.389   7.831  11.1870  0.00  0.00     0.000 C
ATOM      2  C2  BDP B   1      22.472   6.966  12.0320  0.00  0.00     0.000 C
ATOM      3  C3  BDP B   1      22.836   7.014  13.5000  0.00  0.00     0.000 C
ATOM      4  C4  BDP B   1      23.778   8.154  13.8700  0.00  0.00     0.000 C
ATOM      5  C5  BDP B   1      24.958   8.279  12.9120  0.00  0.00     0.000 C
ATOM      6  O5  BDP B   1      24.711   7.618  11.6590  0.00  0.00     0.000 O
ATOM      7   O  BDP B   1      21.113   7.384  11.8590  0.00  0.00     0.000 O
ATOM      9  HD  BDP B   1      20.454   7.635  11.3570  0.00  0.00     0.000 HD
ATOM      9   O  BDP B   1      23.467   5.784  13.8900  0.00  0.00     0.000 O
ATOM     11  HD  BDP B   1      22.807   6.035  13.3880  0.00  0.00     0.000 HD
ATOM     11   O  BDP B   1      23.064   9.395  13.9210  0.00  0.00     0.000 O
ATOM     13  HD  BDP B   1      22.405   9.647  13.4190  0.00  0.00     0.000 HD
ENDROOT
BRANCH 5 13
ATOM     13   C  BDP B   1      26.136   7.662  13.5810  0.00  0.00     0.000 C
ATOM     14   O  BDP B   1      26.817   8.373  14.3490  0.00  0.00     0.000 OA
ATOM     15   O  BDP B   1      26.390   6.456  13.3760  0.00  0.00     0.000 OA
ENDBRANCH 5 13
BRANCH 1 16
ATOM     16  O3  NAG B   2      23.095   8.929  10.3250  0.00  0.00     0.000 O
BRANCH 16 19
ATOM     17  C1  NAG B   2      20.488  11.220   9.2240  0.00  0.00     0.000 C
ATOM     18  C2  NAG B   2      21.154  10.402  10.3310  0.00  0.00     0.000 C
ATOM     19  C3  NAG B   2      22.646  10.260  10.0680  0.00  0.00     0.000 C
ATOM     20  C4  NAG B   2      23.010  10.660   8.6360  0.00  0.00     0.000 C
ATOM     21  C5  NAG B   2      21.960  10.306   7.5730  0.00  0.00     0.000 C
ATOM     22  O5  NAG B   2      20.612  10.424   8.0430  0.00  0.00     0.000 O
ATOM     23   O  NAG B   2      23.271  12.067   8.6090  0.00  0.00     0.000 O
ATOM     25  HD  NAG B   2      22.617  12.270   9.1400  0.00  0.00     0.000 HD
ATOM     25   C  NAG B   2      22.176   8.876   7.0560  0.00  0.00     0.000 C
ATOM     26   O  NAG B   2      23.144   8.835   5.9990  0.00  0.00     0.000 O
ATOM     28  HD  NAG B   2      22.491   9.037   6.5290  0.00  0.00     0.000 HD
BRANCH 18 30
ATOM     28   N  NAG B   2      20.679  11.678  10.8640  0.00  0.00     0.000 N
ATOM     30  HD  NAG B   2      20.709  12.532  10.7210  0.00  0.00     0.000 HD
ATOM     30   C  NAG B   2      21.081  12.225  12.0200  0.00  0.00     0.000 C
ATOM     31   C  NAG B   2      20.436  13.540  12.3550  0.00  0.00     0.000 C
ATOM     32   O  NAG B   2      21.903  11.717  12.7470  0.00  0.00     0.000 OA
ENDBRANCH 18 30
BRANCH 17 33
ATOM     33  O4  BDP B   3      19.337  11.624   8.4520  0.00  0.00     0.000 O
BRANCH 33 37
ATOM     34  C1  BDP B   3      15.146  12.264   8.9710  0.00  0.00     0.000 C
ATOM     35  C2  BDP B   3      15.678  10.865   9.2570  0.00  0.00     0.000 C
ATOM     36  C3  BDP B   3      17.188  10.816   9.4640  0.00  0.00     0.000 C
ATOM     37  C4  BDP B   3      17.882  11.638   8.3670  0.00  0.00     0.000 C
ATOM     38  C5  BDP B   3      17.298  13.063   8.4260  0.00  0.00     0.000 C
ATOM     39  O5  BDP B   3      15.943  12.943   7.9940  0.00  0.00     0.000 O
ATOM     40   O  BDP B   3      14.960  10.389  10.3970  0.00  0.00     0.000 O
ATOM     42  HD  BDP B   3      14.381  10.231   9.7730  0.00  0.00     0.000 HD
ATOM     42   O  BDP B   3      17.564   9.440   9.4140  0.00  0.00     0.000 O
ATOM     44  HD  BDP B   3      16.985   9.282   8.7890  0.00  0.00     0.000 HD
BRANCH 38 44
ATOM     44   C  BDP B   3      18.016  14.061   7.5720  0.00  0.00     0.000 C
ATOM     45   O  BDP B   3      17.534  14.324   6.4480  0.00  0.00     0.000 OA
ATOM     46   O  BDP B   3      19.063  14.598   7.9960  0.00  0.00     0.000 OA
ENDBRANCH 38 44
BRANCH 34 47
ATOM     47  O3  NAG B   4      14.091  12.248   8.0110  0.00  0.00     0.000 O
BRANCH 47 50
ATOM     48  C1  NAG B   4      10.655  13.731   8.3910  0.00  0.00     0.000 C
ATOM     49  C2  NAG B   4      11.734  12.664   8.4580  0.00  0.00     0.000 C
ATOM     50  C3  NAG B   4      13.065  13.263   8.0190  0.00  0.00     0.000 C
ATOM     51  C4  NAG B   4      12.967  13.896   6.6410  0.00  0.00     0.000 C
ATOM     52  C5  NAG B   4      11.821  14.908   6.6140  0.00  0.00     0.000 C
ATOM     53  O5  NAG B   4      10.606  14.298   7.0680  0.00  0.00     0.000 O
ATOM     54   O  NAG B   4      14.209  14.532   6.3310  0.00  0.00     0.000 O
ATOM     56  HD  NAG B   4      13.698  14.444   5.6370  0.00  0.00     0.000 HD
ATOM     56   C  NAG B   4      11.612  15.471   5.2140  0.00  0.00     0.000 C
ATOM     57   O  NAG B   4      11.298  14.396   4.3190  0.00  0.00     0.000 O
ATOM     59  HD  NAG B   4      10.787  14.307   3.6260  0.00  0.00     0.000 HD
BRANCH 49 61
ATOM     59   N  NAG B   4      11.557  12.105   9.7990  0.00  0.00     0.000 N
ATOM     61  HD  NAG B   4      11.262  11.973   8.9960  0.00  0.00     0.000 HD
ATOM     61   O  NAG B   4      11.556   9.930   9.1890  0.00  0.00     0.000 OA
ATOM     62   C  NAG B   4      11.557  10.792  10.0560  0.00  0.00     0.000 C
ATOM     63   C  NAG B   4      11.580  10.416  11.5040  0.00  0.00     0.000 C
ENDBRANCH 49 61
BRANCH 48 64
ATOM     64  O4  BDP B   5       9.450  13.939   9.1230  0.00  0.00     0.000 O
BRANCH 64 68
ATOM     65  C1  BDP B   5       6.213  15.721  11.0510  0.00  0.00     0.000 C
ATOM     66  C2  BDP B   5       7.126  16.660  10.2750  0.00  0.00     0.000 C
ATOM     67  C3  BDP B   5       7.976  15.857   9.2980  0.00  0.00     0.000 C
ATOM     68  C4  BDP B   5       8.752  14.777  10.0430  0.00  0.00     0.000 C
ATOM     69  C5  BDP B   5       7.844  13.905  10.9010  0.00  0.00     0.000 C
ATOM     70  O5  BDP B   5       6.992  14.721  11.7260  0.00  0.00     0.000 O
ATOM     71   O  BDP B   5       6.337  17.652   9.6000  0.00  0.00     0.000 O
ATOM     73  HD  BDP B   5       5.813  18.213   9.1990  0.00  0.00     0.000 HD
ATOM     73   O  BDP B   5       8.898  16.713   8.6120  0.00  0.00     0.000 O
ATOM     75  HD  BDP B   5       8.374  17.274   8.2110  0.00  0.00     0.000 HD
BRANCH 69 75
ATOM     75   C  BDP B   5       8.711  13.037  11.7770  0.00  0.00     0.000 C
ATOM     76   O  BDP B   5       8.374  11.850  11.9660  0.00  0.00     0.000 OA
ATOM     77   O  BDP B   5       9.738  13.525  12.2830  0.00  0.00     0.000 OA
ENDBRANCH 69 75
BRANCH 65 78
ATOM     78  O3  NAG B   6       5.728  15.916  12.3820  0.00  0.00     0.000 O
BRANCH 78 81
ATOM     79  C1  NAG B   6       2.590  16.514  14.4130  0.00  0.00     0.000 C
ATOM     80  C2  NAG B   6       3.865  16.867  13.6320  0.00  0.00     0.000 C
ATOM     81  C3  NAG B   6       4.451  15.621  12.9880  0.00  0.00     0.000 C
ATOM     82  C4  NAG B   6       4.608  14.497  14.0170  0.00  0.00     0.000 C
ATOM     83  C5  NAG B   6       3.269  14.247  14.7020  0.00  0.00     0.000 C
ATOM     84  O5  NAG B   6       2.880  15.459  15.3480  0.00  0.00     0.000 O
BRANCH 80 87
ATOM     85   N  NAG B   6       4.552  18.140  13.4300  0.00  0.00     0.000 N
ATOM     87  HD  NAG B   6       5.081  18.639  12.9590  0.00  0.00     0.000 HD
ATOM     87   C  NAG B   6       4.297  18.976  12.4160  0.00  0.00     0.000 C
ATOM     88   C  NAG B   6       5.086  20.247  12.4080  0.00  0.00     0.000 C
ATOM     89   O  NAG B   6       3.465  18.740  11.5480  0.00  0.00     0.000 OA
ENDBRANCH 80 87
ATOM     90   O  NAG B   6       2.533  12.012  15.2610  0.00  0.00     0.000 O
ATOM     92  HD  NAG B   6       2.288  12.812  15.0390  0.00  0.00     0.000 HD
ATOM     92   O  NAG B   6       2.533  12.012  15.2610  0.00  0.00     0.000 O
ATOM     94  HD  NAG B   6       2.288  12.812  15.0390  0.00  0.00     0.000 HD
ENDBRANCH 78 81
ENDBRANCH 65 78
ENDBRANCH 64 68
ENDBRANCH 48 64
ENDBRANCH 47 50
ENDBRANCH 34 47
ENDBRANCH 33 37
ENDBRANCH 17 33
ENDBRANCH 16 19
ENDBRANCH 1 16
TORSDOF 16
ENDMDL
MODEL 17
REMARK VINA RESULT:      -7.4      4.263     13.018
ROOT
ATOM      1  C1  BDP B   1      11.219   6.191  33.3230  0.00  0.00     0.000 C
ATOM      2  C2  BDP B   1      11.270   6.093  31.8090  0.00  0.00     0.000 C
ATOM      3  C3  BDP B   1      12.624   6.485  31.2570  0.00  0.00     0.000 C
ATOM      4  C4  BDP B   1      13.728   6.546  32.3060  0.00  0.00     0.000 C
ATOM      5  C5  BDP B   1      13.306   7.298  33.5650  0.00  0.00     0.000 C
ATOM      6  O5  BDP B   1      11.877   7.397  33.6830  0.00  0.00     0.000 O
ATOM      7   O  BDP B   1      10.950   4.760  31.3970  0.00  0.00     0.000 O
ATOM      9  HD  BDP B   1      10.467   4.043  31.4520  0.00  0.00     0.000 HD
ATOM      9   O  BDP B   1      12.543   7.776  30.6330  0.00  0.00     0.000 O
ATOM     11  HD  BDP B   1      12.060   7.059  30.6880  0.00  0.00     0.000 HD
ATOM     11   O  BDP B   1      14.161   5.225  32.6540  0.00  0.00     0.000 O
ATOM     13  HD  BDP B   1      13.678   4.508  32.7090  0.00  0.00     0.000 HD
ENDROOT
BRANCH 5 13
ATOM     13   C  BDP B   1      13.900   8.661  33.4840  0.00  0.00     0.000 C
ATOM     14   O  BDP B   1      13.218   9.571  32.9680  0.00  0.00     0.000 OA
ATOM     15   O  BDP B   1      15.041   8.856  33.9540  0.00  0.00     0.000 OA
ENDBRANCH 5 13
BRANCH 1 16
ATOM     16  O3  NAG B   2      10.933   5.199  34.3080  0.00  0.00     0.000 O
BRANCH 16 19
ATOM     17  C1  NAG B   2      13.425   3.313  36.1760  0.00  0.00     0.000 C
ATOM     18  C2  NAG B   2      12.708   4.630  35.8770  0.00  0.00     0.000 C
ATOM     19  C3  NAG B   2      11.281   4.371  35.4180  0.00  0.00     0.000 C
ATOM     20  C4  NAG B   2      11.060   2.900  35.0530  0.00  0.00     0.000 C
ATOM     21  C5  NAG B   2      12.263   2.203  34.4020  0.00  0.00     0.000 C
ATOM     22  O5  NAG B   2      13.525   2.646  34.9150  0.00  0.00     0.000 O
ATOM     23   O  NAG B   2      10.671   2.192  36.2350  0.00  0.00     0.000 O
ATOM     25  HD  NAG B   2      11.232   2.604  36.7510  0.00  0.00     0.000 HD
ATOM     25   C  NAG B   2      12.252   2.413  32.8810  0.00  0.00     0.000 C
ATOM     26   O  NAG B   2      11.430   1.442  32.2170  0.00  0.00     0.000 O
ATOM     28  HD  NAG B   2      11.990   1.854  32.7330  0.00  0.00     0.000 HD
BRANCH 18 30
ATOM     28   N  NAG B   2      12.963   5.444  37.0640  0.00  0.00     0.000 N
ATOM     30  HD  NAG B   2      13.577   5.630  37.6460  0.00  0.00     0.000 HD
ATOM     30   C  NAG B   2      12.396   5.252  38.2640  0.00  0.00     0.000 C
ATOM     31   C  NAG B   2      12.814   6.231  39.3240  0.00  0.00     0.000 C
ATOM     32   O  NAG B   2      11.611   4.362  38.4940  0.00  0.00     0.000 OA
ENDBRANCH 18 30
BRANCH 17 33
ATOM     33  O4  BDP B   3      14.619   2.517  36.3370  0.00  0.00     0.000 O
BRANCH 33 37
ATOM     34  C1  BDP B   3      18.564   2.797  34.7250  0.00  0.00     0.000 C
ATOM     35  C2  BDP B   3      17.812   1.490  34.5030  0.00  0.00     0.000 C
ATOM     36  C3  BDP B   3      16.307   1.607  34.7190  0.00  0.00     0.000 C
ATOM     37  C4  BDP B   3      16.034   2.382  36.0170  0.00  0.00     0.000 C
ATOM     38  C5  BDP B   3      16.747   3.742  35.8970  0.00  0.00     0.000 C
ATOM     39  O5  BDP B   3      18.144   3.450  35.9290  0.00  0.00     0.000 O
ATOM     40   O  BDP B   3      18.137   1.062  33.1790  0.00  0.00     0.000 O
ATOM     42  HD  BDP B   3      18.838   0.788  33.6070  0.00  0.00     0.000 HD
ATOM     42   O  BDP B   3      15.796   0.277  34.7770  0.00  0.00     0.000 O
ATOM     44  HD  BDP B   3      16.498   0.003  35.2050  0.00  0.00     0.000 HD
BRANCH 38 44
ATOM     44   C  BDP B   3      16.408   4.717  36.9820  0.00  0.00     0.000 C
ATOM     45   O  BDP B   3      16.613   4.369  38.1650  0.00  0.00     0.000 OA
ATOM     46   O  BDP B   3      15.935   5.835  36.6820  0.00  0.00     0.000 OA
ENDBRANCH 38 44
BRANCH 34 47
ATOM     47  O3  NAG B   4      19.827   2.585  35.3530  0.00  0.00     0.000 O
BRANCH 47 50
ATOM     48  C1  NAG B   4      22.371   5.022  34.0340  0.00  0.00     0.000 C
ATOM     49  C2  NAG B   4      21.274   3.974  33.9720  0.00  0.00     0.000 C
ATOM     50  C3  NAG B   4      20.823   3.628  35.3860  0.00  0.00     0.000 C
ATOM     51  C4  NAG B   4      21.991   3.187  36.2540  0.00  0.00     0.000 C
ATOM     52  C5  NAG B   4      23.092   4.248  36.2210  0.00  0.00     0.000 C
ATOM     53  O5  NAG B   4      23.450   4.555  34.8670  0.00  0.00     0.000 O
ATOM     54   O  NAG B   4      21.528   2.981  37.5910  0.00  0.00     0.000 O
ATOM     56  HD  NAG B   4      22.314   2.646  37.4550  0.00  0.00     0.000 HD
ATOM     56   C  NAG B   4      24.331   3.783  36.9780  0.00  0.00     0.000 C
ATOM     57   O  NAG B   4      24.828   2.584  36.3700  0.00  0.00     0.000 O
ATOM     59  HD  NAG B   4      25.615   2.248  36.2350  0.00  0.00     0.000 HD
BRANCH 49 61
ATOM     59   N  NAG B   4      21.853   2.905  33.1580  0.00  0.00     0.000 N
ATOM     61  HD  NAG B   4      21.089   3.113  33.5100  0.00  0.00     0.000 HD
ATOM     61   O  NAG B   4      20.115   2.675  31.7340  0.00  0.00     0.000 OA
ATOM     62   C  NAG B   4      21.257   2.401  32.0710  0.00  0.00     0.000 C
ATOM     63   C  NAG B   4      22.092   1.470  31.2490  0.00  0.00     0.000 C
ENDBRANCH 49 61
BRANCH 48 64
ATOM     64  O4  BDP B   5      22.774   6.058  33.1430  0.00  0.00     0.000 O
BRANCH 64 68
ATOM     65  C1  BDP B   5      21.329   8.566  30.1440  0.00  0.00     0.000 C
ATOM     66  C2  BDP B   5      22.796   8.742  30.5110  0.00  0.00     0.000 C
ATOM     67  C3  BDP B   5      23.284   7.517  31.2740  0.00  0.00     0.000 C
ATOM     68  C4  BDP B   5      22.405   7.274  32.4950  0.00  0.00     0.000 C
ATOM     69  C5  BDP B   5      20.927   7.204  32.1350  0.00  0.00     0.000 C
ATOM     70  O5  BDP B   5      20.549   8.333  31.3270  0.00  0.00     0.000 O
ATOM     71   O  BDP B   5      23.567   8.969  29.3210  0.00  0.00     0.000 O
ATOM     73  HD  BDP B   5      23.986   9.081  28.5720  0.00  0.00     0.000 HD
ATOM     73   O  BDP B   5      24.642   7.696  31.6960  0.00  0.00     0.000 O
ATOM     75  HD  BDP B   5      25.061   7.808  30.9470  0.00  0.00     0.000 HD
BRANCH 69 75
ATOM     75   C  BDP B   5      20.127   7.208  33.4120  0.00  0.00     0.000 C
ATOM     76   O  BDP B   5      19.138   6.452  33.5030  0.00  0.00     0.000 OA
ATOM     77   O  BDP B   5      20.476   7.960  34.3410  0.00  0.00     0.000 OA
ENDBRANCH 69 75
BRANCH 65 78
ATOM     78  O3  NAG B   6      20.362   9.608  29.9860  0.00  0.00     0.000 O
BRANCH 78 81
ATOM     79  C1  NAG B   6      17.874  10.364  27.2340  0.00  0.00     0.000 C
ATOM     80  C2  NAG B   6      19.250  10.183  27.8960  0.00  0.00     0.000 C
ATOM     81  C3  NAG B   6      19.089   9.636  29.3050  0.00  0.00     0.000 C
ATOM     82  C4  NAG B   6      18.086  10.474  30.1050  0.00  0.00     0.000 C
ATOM     83  C5  NAG B   6      16.771  10.557  29.3390  0.00  0.00     0.000 C
ATOM     84  O5  NAG B   6      17.041  11.177  28.0810  0.00  0.00     0.000 O
BRANCH 80 87
ATOM     85   N  NAG B   6      20.051   9.332  27.0210  0.00  0.00     0.000 N
ATOM     87  HD  NAG B   6      20.505   9.226  26.2910  0.00  0.00     0.000 HD
ATOM     87   C  NAG B   6      21.347   9.539  26.7560  0.00  0.00     0.000 C
ATOM     88   C  NAG B   6      21.995   8.531  25.8620  0.00  0.00     0.000 C
ATOM     89   O  NAG B   6      21.982  10.480  27.2180  0.00  0.00     0.000 OA
ENDBRANCH 80 87
ATOM     90   O  NAG B   6      14.638  10.468  30.4750  0.00  0.00     0.000 O
ATOM     92  HD  NAG B   6      15.070  10.287  29.7470  0.00  0.00     0.000 HD
ATOM     92   O  NAG B   6      14.638  10.468  30.4750  0.00  0.00     0.000 O
ATOM     94  HD  NAG B   6      15.070  10.287  29.7470  0.00  0.00     0.000 HD
ENDBRANCH 78 81
ENDBRANCH 65 78
ENDBRANCH 64 68
ENDBRANCH 48 64
ENDBRANCH 47 50
ENDBRANCH 34 47
ENDBRANCH 33 37
ENDBRANCH 17 33
ENDBRANCH 16 19
ENDBRANCH 1 16
TORSDOF 16
ENDMDL
MODEL 18
REMARK VINA RESULT:      -7.4      4.950     16.068
ROOT
ATOM      1  C1  BDP B   1      14.330   9.435  31.0590  0.00  0.00     0.000 C
ATOM      2  C2  BDP B   1      12.860   9.600  31.4010  0.00  0.00     0.000 C
ATOM      3  C3  BDP B   1      12.395   8.583  32.4220  0.00  0.00     0.000 C
ATOM      4  C4  BDP B   1      13.530   7.863  33.1430  0.00  0.00     0.000 C
ATOM      5  C5  BDP B   1      14.613   7.367  32.1910  0.00  0.00     0.000 C
ATOM      6  O5  BDP B   1      14.570   8.042  30.9220  0.00  0.00     0.000 O
ATOM      7   O  BDP B   1      12.621  10.922  31.8960  0.00  0.00     0.000 O
ATOM      9  HD  BDP B   1      12.733  11.780  31.8560  0.00  0.00     0.000 HD
ATOM      9   O  BDP B   1      11.581   7.586  31.7860  0.00  0.00     0.000 O
ATOM     11  HD  BDP B   1      11.693   8.444  31.7460  0.00  0.00     0.000 HD
ATOM     11   O  BDP B   1      14.112   8.717  34.1360  0.00  0.00     0.000 O
ATOM     13  HD  BDP B   1      14.224   9.574  34.0960  0.00  0.00     0.000 HD
ENDROOT
BRANCH 5 13
ATOM     13   C  BDP B   1      14.391   5.909  31.9910  0.00  0.00     0.000 C
ATOM     14   O  BDP B   1      15.252   5.116  32.4260  0.00  0.00     0.000 OA
ATOM     15   O  BDP B   1      13.346   5.525  31.4240  0.00  0.00     0.000 OA
ENDBRANCH 5 13
BRANCH 1 16
ATOM     16  O3  NAG B   2      15.417  10.351  31.1730  0.00  0.00     0.000 O
BRANCH 16 19
ATOM     17  C1  NAG B   2      18.283  10.908  28.9980  0.00  0.00     0.000 C
ATOM     18  C2  NAG B   2      16.770  10.836  29.2060  0.00  0.00     0.000 C
ATOM     19  C3  NAG B   2      16.406  11.227  30.6310  0.00  0.00     0.000 C
ATOM     20  C4  NAG B   2      17.634  11.249  31.5440  0.00  0.00     0.000 C
ATOM     21  C5  NAG B   2      18.691  10.178  31.2400  0.00  0.00     0.000 C
ATOM     22  O5  NAG B   2      18.826   9.891  29.8430  0.00  0.00     0.000 O
ATOM     23   O  NAG B   2      18.228  12.549  31.4770  0.00  0.00     0.000 O
ATOM     25  HD  NAG B   2      18.116  12.633  30.6220  0.00  0.00     0.000 HD
ATOM     25   C  NAG B   2      18.366   8.872  31.9790  0.00  0.00     0.000 C
ATOM     26   O  NAG B   2      18.874   8.880  33.3210  0.00  0.00     0.000 O
ATOM     28  HD  NAG B   2      18.762   8.964  32.4660  0.00  0.00     0.000 HD
BRANCH 18 30
ATOM     28   N  NAG B   2      17.127  12.119  28.6010  0.00  0.00     0.000 N
ATOM     30  HD  NAG B   2      17.361  12.927  28.8030  0.00  0.00     0.000 HD
ATOM     30   C  NAG B   2      16.278  12.918  27.9390  0.00  0.00     0.000 C
ATOM     31   C  NAG B   2      16.890  14.180  27.4000  0.00  0.00     0.000 C
ATOM     32   O  NAG B   2      15.107  12.663  27.7830  0.00  0.00     0.000 OA
ENDBRANCH 18 30
BRANCH 17 33
ATOM     33  O4  BDP B   3      19.496  10.541  28.3050  0.00  0.00     0.000 O
BRANCH 33 37
ATOM     34  C1  BDP B   3      20.642  10.282  24.1990  0.00  0.00     0.000 C
ATOM     35  C2  BDP B   3      19.980   9.056  24.8170  0.00  0.00     0.000 C
ATOM     36  C3  BDP B   3      19.231   9.353  26.1110  0.00  0.00     0.000 C
ATOM     37  C4  BDP B   3      20.106  10.230  27.0190  0.00  0.00     0.000 C
ATOM     38  C5  BDP B   3      20.475  11.493  26.2170  0.00  0.00     0.000 C
ATOM     39  O5  BDP B   3      21.349  11.050  25.1800  0.00  0.00     0.000 O
ATOM     40   O  BDP B   3      19.124   8.514  23.8090  0.00  0.00     0.000 O
ATOM     42  HD  BDP B   3      19.886   8.190  23.5550  0.00  0.00     0.000 HD
ATOM     42   O  BDP B   3      18.938   8.093  26.7130  0.00  0.00     0.000 O
ATOM     44  HD  BDP B   3      19.700   7.770  26.4590  0.00  0.00     0.000 HD
BRANCH 38 44
ATOM     44   C  BDP B   3      21.144  12.564  27.0220  0.00  0.00     0.000 C
ATOM     45   O  BDP B   3      20.738  13.739  26.8850  0.00  0.00     0.000 OA
ATOM     46   O  BDP B   3      22.078  12.262  27.7960  0.00  0.00     0.000 OA
ENDBRANCH 38 44
BRANCH 34 47
ATOM     47  O3  NAG B   4      21.907   9.970  23.6190  0.00  0.00     0.000 O
BRANCH 47 50
ATOM     48  C1  NAG B   4      22.471  10.149  19.9040  0.00  0.00     0.000 C
ATOM     49  C2  NAG B   4      21.983   9.566  21.2190  0.00  0.00     0.000 C
ATOM     50  C3  NAG B   4      22.302  10.535  22.3520  0.00  0.00     0.000 C
ATOM     51  C4  NAG B   4      23.782  10.883  22.3910  0.00  0.00     0.000 C
ATOM     52  C5  NAG B   4      24.230  11.397  21.0220  0.00  0.00     0.000 C
ATOM     53  O5  NAG B   4      23.874  10.462  19.9960  0.00  0.00     0.000 O
ATOM     54   O  NAG B   4      24.001  11.873  23.3990  0.00  0.00     0.000 O
ATOM     56  HD  NAG B   4      24.736  11.506  23.1260  0.00  0.00     0.000 HD
ATOM     56   C  NAG B   4      25.735  11.638  20.9870  0.00  0.00     0.000 C
ATOM     57   O  NAG B   4      26.412  10.404  21.2610  0.00  0.00     0.000 O
ATOM     59  HD  NAG B   4      27.148  10.037  20.9880  0.00  0.00     0.000 HD
BRANCH 49 61
ATOM     59   N  NAG B   4      20.799   9.006  20.5670  0.00  0.00     0.000 N
ATOM     61  HD  NAG B   4      21.574   8.739  20.8470  0.00  0.00     0.000 HD
ATOM     61   O  NAG B   4      20.713   7.089  21.7590  0.00  0.00     0.000 OA
ATOM     62   C  NAG B   4      20.226   7.856  20.9400  0.00  0.00     0.000 C
ATOM     63   C  NAG B   4      18.907   7.553  20.3030  0.00  0.00     0.000 C
ENDBRANCH 49 61
BRANCH 48 64
ATOM     64  O4  BDP B   5      22.025  10.011  18.5580  0.00  0.00     0.000 O
BRANCH 64 68
ATOM     65  C1  BDP B   5      21.689  13.151  15.8380  0.00  0.00     0.000 C
ATOM     66  C2  BDP B   5      20.378  12.552  16.3310  0.00  0.00     0.000 C
ATOM     67  C3  BDP B   5      20.628  11.746  17.5990  0.00  0.00     0.000 C
ATOM     68  C4  BDP B   5      21.693  10.685  17.3450  0.00  0.00     0.000 C
ATOM     69  C5  BDP B   5      22.965  11.277  16.7540  0.00  0.00     0.000 C
ATOM     70  O5  BDP B   5      22.657  12.112  15.6240  0.00  0.00     0.000 O
ATOM     71   O  BDP B   5      19.421  13.600  16.5480  0.00  0.00     0.000 O
ATOM     73  HD  BDP B   5      18.889  14.270  16.6810  0.00  0.00     0.000 HD
ATOM     73   O  BDP B   5      19.421  11.109  18.0360  0.00  0.00     0.000 O
ATOM     75  HD  BDP B   5      18.890  11.780  18.1690  0.00  0.00     0.000 HD
BRANCH 69 75
ATOM     75   C  BDP B   5      23.856  10.143  16.3140  0.00  0.00     0.000 C
ATOM     76   O  BDP B   5      23.379   9.257  15.5770  0.00  0.00     0.000 OA
ATOM     77   O  BDP B   5      25.041  10.125  16.6940  0.00  0.00     0.000 OA
ENDBRANCH 69 75
BRANCH 65 78
ATOM     78  O3  NAG B   6      22.033  13.440  14.4810  0.00  0.00     0.000 O
BRANCH 78 81
ATOM     79  C1  NAG B   6      23.567  16.437  12.7480  0.00  0.00     0.000 C
ATOM     80  C2  NAG B   6      22.503  15.620  13.4990  0.00  0.00     0.000 C
ATOM     81  C3  NAG B   6      23.069  14.272  13.9130  0.00  0.00     0.000 C
ATOM     82  C4  NAG B   6      23.714  13.560  12.7180  0.00  0.00     0.000 C
ATOM     83  C5  NAG B   6      24.752  14.478  12.0830  0.00  0.00     0.000 C
ATOM     84  O5  NAG B   6      24.078  15.660  11.6500  0.00  0.00     0.000 O
BRANCH 80 87
ATOM     85   N  NAG B   6      22.024  16.475  14.5820  0.00  0.00     0.000 N
ATOM     87  HD  NAG B   6      21.540  17.140  14.8520  0.00  0.00     0.000 HD
ATOM     87   C  NAG B   6      20.751  16.523  14.9910  0.00  0.00     0.000 C
ATOM     88   C  NAG B   6      20.473  17.439  16.1400  0.00  0.00     0.000 C
ATOM     89   O  NAG B   6      19.858  15.857  14.4790  0.00  0.00     0.000 OA
ENDBRANCH 80 87
ATOM     90   O  NAG B   6      26.849  13.620  11.2380  0.00  0.00     0.000 O
ATOM     92  HD  NAG B   6      26.443  14.298  11.5920  0.00  0.00     0.000 HD
ATOM     92   O  NAG B   6      26.849  13.620  11.2380  0.00  0.00     0.000 O
ATOM     94  HD  NAG B   6      26.443  14.298  11.5920  0.00  0.00     0.000 HD
ENDBRANCH 78 81
ENDBRANCH 65 78
ENDBRANCH 64 68
ENDBRANCH 48 64
ENDBRANCH 47 50
ENDBRANCH 34 47
ENDBRANCH 33 37
ENDBRANCH 17 33
ENDBRANCH 16 19
ENDBRANCH 1 16
TORSDOF 16
ENDMDL
MODEL 19
REMARK VINA RESULT:      -7.4      8.656     16.897
ROOT
ATOM      1  C1  BDP B   1      22.031   3.107  22.0690  0.00  0.00     0.000 C
ATOM      2  C2  BDP B   1      21.549   1.669  22.1410  0.00  0.00     0.000 C
ATOM      3  C3  BDP B   1      22.672   0.708  22.4710  0.00  0.00     0.000 C
ATOM      4  C4  BDP B   1      23.932   1.382  23.0000  0.00  0.00     0.000 C
ATOM      5  C5  BDP B   1      24.347   2.593  22.1700  0.00  0.00     0.000 C
ATOM      6  O5  BDP B   1      23.266   3.096  21.3670  0.00  0.00     0.000 O
ATOM      7   O  BDP B   1      20.513   1.552  23.1220  0.00  0.00     0.000 O
ATOM      9  HD  BDP B   1      19.788   1.840  23.4990  0.00  0.00     0.000 HD
ATOM      9   O  BDP B   1      23.036  -0.040  21.3000  0.00  0.00     0.000 O
ATOM     11  HD  BDP B   1      22.312   0.248  21.6770  0.00  0.00     0.000 HD
ATOM     11   O  BDP B   1      23.754   1.772  24.3670  0.00  0.00     0.000 O
ATOM     13  HD  BDP B   1      23.029   2.060  24.7450  0.00  0.00     0.000 HD
ENDROOT
BRANCH 5 13
ATOM     13   C  BDP B   1      25.467   2.160  21.2890  0.00  0.00     0.000 C
ATOM     14   O  BDP B   1      26.629   2.219  21.7420  0.00  0.00     0.000 OA
ATOM     15   O  BDP B   1      25.210   1.731  20.1440  0.00  0.00     0.000 OA
ENDBRANCH 5 13
BRANCH 1 16
ATOM     16  O3  NAG B   2      21.626   4.259  22.8050  0.00  0.00     0.000 O
BRANCH 16 19
ATOM     17  C1  NAG B   2      20.642   7.720  22.2520  0.00  0.00     0.000 C
ATOM     18  C2  NAG B   2      20.396   6.360  22.9040  0.00  0.00     0.000 C
ATOM     19  C3  NAG B   2      21.713   5.641  23.1570  0.00  0.00     0.000 C
ATOM     20  C4  NAG B   2      22.871   6.295  22.3980  0.00  0.00     0.000 C
ATOM     21  C5  NAG B   2      22.507   6.865  21.0200  0.00  0.00     0.000 C
ATOM     22  O5  NAG B   2      21.190   7.425  20.9650  0.00  0.00     0.000 O
ATOM     23   O  NAG B   2      23.426   7.328  23.2190  0.00  0.00     0.000 O
ATOM     25  HD  NAG B   2      22.659   7.612  23.5020  0.00  0.00     0.000 HD
ATOM     25   C  NAG B   2      22.624   5.782  19.9380  0.00  0.00     0.000 C
ATOM     26   O  NAG B   2      23.967   5.665  19.4480  0.00  0.00     0.000 O
ATOM     28  HD  NAG B   2      23.200   5.949  19.7310  0.00  0.00     0.000 HD
BRANCH 18 30
ATOM     28   N  NAG B   2      19.972   7.421  23.8170  0.00  0.00     0.000 N
ATOM     30  HD  NAG B   2      20.229   8.178  24.1500  0.00  0.00     0.000 HD
ATOM     30   C  NAG B   2      19.857   7.289  25.1460  0.00  0.00     0.000 C
ATOM     31   C  NAG B   2      19.393   8.524  25.8650  0.00  0.00     0.000 C
ATOM     32   O  NAG B   2      20.109   6.266  25.7390  0.00  0.00     0.000 OA
ENDBRANCH 18 30
BRANCH 17 33
ATOM     33  O4  BDP B   3      20.218   8.855  21.4650  0.00  0.00     0.000 O
BRANCH 33 37
ATOM     34  C1  BDP B   3      20.537  12.087  18.6910  0.00  0.00     0.000 C
ATOM     35  C2  BDP B   3      19.930  10.786  18.1790  0.00  0.00     0.000 C
ATOM     36  C3  BDP B   3      19.464   9.851  19.2890  0.00  0.00     0.000 C
ATOM     37  C4  BDP B   3      20.550   9.759  20.3710  0.00  0.00     0.000 C
ATOM     38  C5  BDP B   3      20.837  11.194  20.8540  0.00  0.00     0.000 C
ATOM     39  O5  BDP B   3      21.467  11.852  19.7560  0.00  0.00     0.000 O
ATOM     40   O  BDP B   3      18.864  11.160  17.3030  0.00  0.00     0.000 O
ATOM     42  HD  BDP B   3      19.542  11.257  16.7720  0.00  0.00     0.000 HD
ATOM     42   O  BDP B   3      19.213   8.585  18.6800  0.00  0.00     0.000 O
ATOM     44  HD  BDP B   3      19.890   8.682  18.1490  0.00  0.00     0.000 HD
BRANCH 38 44
ATOM     44   C  BDP B   3      21.714  11.275  22.0650  0.00  0.00     0.000 C
ATOM     45   O  BDP B   3      22.926  11.000  21.9280  0.00  0.00     0.000 OA
ATOM     46   O  BDP B   3      21.221  11.610  23.1640  0.00  0.00     0.000 OA
ENDBRANCH 38 44
BRANCH 34 47
ATOM     47  O3  NAG B   4      21.646  12.507  17.8970  0.00  0.00     0.000 O
BRANCH 47 50
ATOM     48  C1  NAG B   4      21.493  15.775  16.0410  0.00  0.00     0.000 C
ATOM     49  C2  NAG B   4      21.177  14.320  16.3420  0.00  0.00     0.000 C
ATOM     50  C3  NAG B   4      21.879  13.905  17.6300  0.00  0.00     0.000 C
ATOM     51  C4  NAG B   4      23.375  14.166  17.5610  0.00  0.00     0.000 C
ATOM     52  C5  NAG B   4      23.631  15.626  17.1870  0.00  0.00     0.000 C
ATOM     53  O5  NAG B   4      22.921  15.967  15.9890  0.00  0.00     0.000 O
ATOM     54   O  NAG B   4      23.960  13.860  18.8300  0.00  0.00     0.000 O
ATOM     56  HD  NAG B   4      24.551  13.949  18.2030  0.00  0.00     0.000 HD
ATOM     56   C  NAG B   4      25.118  15.894  16.9860  0.00  0.00     0.000 C
ATOM     57   O  NAG B   4      25.606  15.055  15.9310  0.00  0.00     0.000 O
ATOM     59  HD  NAG B   4      26.197  15.144  15.3040  0.00  0.00     0.000 HD
BRANCH 49 61
ATOM     59   N  NAG B   4      21.451  13.767  15.0150  0.00  0.00     0.000 N
ATOM     61  HD  NAG B   4      21.167  13.495  15.7860  0.00  0.00     0.000 HD
ATOM     61   O  NAG B   4      19.618  12.452  14.8860  0.00  0.00     0.000 OA
ATOM     62   C  NAG B   4      20.615  12.941  14.3730  0.00  0.00     0.000 C
ATOM     63   C  NAG B   4      20.959  12.652  12.9470  0.00  0.00     0.000 C
ENDBRANCH 49 61
BRANCH 48 64
ATOM     64  O4  BDP B   5      20.776  16.804  15.3660  0.00  0.00     0.000 O
BRANCH 64 68
ATOM     65  C1  BDP B   5      18.956  17.692  11.7230  0.00  0.00     0.000 C
ATOM     66  C2  BDP B   5      20.393  17.195  11.6470  0.00  0.00     0.000 C
ATOM     67  C3  BDP B   5      20.771  16.517  12.9570  0.00  0.00     0.000 C
ATOM     68  C4  BDP B   5      20.548  17.471  14.1250  0.00  0.00     0.000 C
ATOM     69  C5  BDP B   5      19.138  18.046  14.1350  0.00  0.00     0.000 C
ATOM     70  O5  BDP B   5      18.799  18.578  12.8420  0.00  0.00     0.000 O
ATOM     71   O  BDP B   5      20.537  16.307  10.5280  0.00  0.00     0.000 O
ATOM     73  HD  BDP B   5      20.564  15.763   9.8540  0.00  0.00     0.000 HD
ATOM     73   O  BDP B   5      22.145  16.111  12.9350  0.00  0.00     0.000 O
ATOM     75  HD  BDP B   5      22.172  15.567  12.2610  0.00  0.00     0.000 HD
BRANCH 69 75
ATOM     75   C  BDP B   5      19.083  19.148  15.1630  0.00  0.00     0.000 C
ATOM     76   O  BDP B   5      18.225  19.084  16.0660  0.00  0.00     0.000 OA
ATOM     77   O  BDP B   5      19.897  20.087  15.0840  0.00  0.00     0.000 OA
ENDBRANCH 69 75
BRANCH 65 78
ATOM     78  O3  NAG B   6      18.412  18.825  11.0400  0.00  0.00     0.000 O
BRANCH 78 81
ATOM     79  C1  NAG B   6      14.873  19.678  10.0000  0.00  0.00     0.000 C
ATOM     80  C2  NAG B   6      16.196  18.898  10.0280  0.00  0.00     0.000 C
ATOM     81  C3  NAG B   6      17.111  19.450  11.1090  0.00  0.00     0.000 C
ATOM     82  C4  NAG B   6      17.254  20.970  10.9800  0.00  0.00     0.000 C
ATOM     83  C5  NAG B   6      15.871  21.610  10.9790  0.00  0.00     0.000 C
ATOM     84  O5  NAG B   6      15.151  21.084   9.8640  0.00  0.00     0.000 O
BRANCH 80 87
ATOM     85   N  NAG B   6      15.898  17.482  10.2240  0.00  0.00     0.000 N
ATOM     87  HD  NAG B   6      15.580  16.735   9.9220  0.00  0.00     0.000 HD
ATOM     87   C  NAG B   6      16.484  16.491   9.5410  0.00  0.00     0.000 C
ATOM     88   C  NAG B   6      16.064  15.106   9.9170  0.00  0.00     0.000 C
ATOM     89   O  NAG B   6      17.324  16.685   8.6700  0.00  0.00     0.000 OA
ENDBRANCH 80 87
ATOM     90   O  NAG B   6      15.445  23.702  12.1160  0.00  0.00     0.000 O
ATOM     92  HD  NAG B   6      15.112  22.944  11.8620  0.00  0.00     0.000 HD
ATOM     92   O  NAG B   6      15.445  23.702  12.1160  0.00  0.00     0.000 O
ATOM     94  HD  NAG B   6      15.112  22.944  11.8620  0.00  0.00     0.000 HD
ENDBRANCH 78 81
ENDBRANCH 65 78
ENDBRANCH 64 68
ENDBRANCH 48 64
ENDBRANCH 47 50
ENDBRANCH 34 47
ENDBRANCH 33 37
ENDBRANCH 17 33
ENDBRANCH 16 19
ENDBRANCH 1 16
TORSDOF 16
ENDMDL
MODEL 20
REMARK VINA RESULT:      -7.4     11.933     15.202
ROOT
ATOM      1  C1  BDP B   1      19.492  19.764  17.3050  0.00  0.00     0.000 C
ATOM      2  C2  BDP B   1      19.557  18.912  16.0500  0.00  0.00     0.000 C
ATOM      3  C3  BDP B   1      20.091  17.524  16.3310  0.00  0.00     0.000 C
ATOM      4  C4  BDP B   1      20.113  17.154  17.8100  0.00  0.00     0.000 C
ATOM      5  C5  BDP B   1      20.699  18.257  18.6860  0.00  0.00     0.000 C
ATOM      6  O5  BDP B   1      20.694  19.534  18.0260  0.00  0.00     0.000 O
ATOM      7   O  BDP B   1      18.256  18.816  15.4590  0.00  0.00     0.000 O
ATOM      9  HD  BDP B   1      17.508  19.172  15.2080  0.00  0.00     0.000 HD
ATOM      9   O  BDP B   1      21.433  17.405  15.8320  0.00  0.00     0.000 O
ATOM     11  HD  BDP B   1      20.685  17.761  15.5810  0.00  0.00     0.000 HD
ATOM     11   O  BDP B   1      18.793  16.827  18.2630  0.00  0.00     0.000 O
ATOM     13  HD  BDP B   1      18.045  17.183  18.0120  0.00  0.00     0.000 HD
ENDROOT
BRANCH 5 13
ATOM     13   C  BDP B   1      22.099  17.865  19.0100  0.00  0.00     0.000 C
ATOM     14   O  BDP B   1      22.308  17.257  20.0800  0.00  0.00     0.000 OA
ATOM     15   O  BDP B   1      23.008  18.131  18.1960  0.00  0.00     0.000 OA
ENDBRANCH 5 13
BRANCH 1 16
ATOM     16  O3  NAG B   2      18.386  20.415  17.9280  0.00  0.00     0.000 O
BRANCH 16 19
ATOM     17  C1  NAG B   2      14.982  19.841  19.0860  0.00  0.00     0.000 C
ATOM     18  C2  NAG B   2      16.424  19.360  18.9150  0.00  0.00     0.000 C
ATOM     19  C3  NAG B   2      17.387  20.538  18.9420  0.00  0.00     0.000 C
ATOM     20  C4  NAG B   2      16.655  21.874  18.7870  0.00  0.00     0.000 C
ATOM     21  C5  NAG B   2      15.435  21.844  17.8570  0.00  0.00     0.000 C
ATOM     22  O5  NAG B   2      14.703  20.614  17.9170  0.00  0.00     0.000 O
ATOM     23   O  NAG B   2      16.264  22.331  20.0860  0.00  0.00     0.000 O
ATOM     25  HD  NAG B   2      16.027  21.547  20.3670  0.00  0.00     0.000 HD
ATOM     25   C  NAG B   2      15.857  22.092  16.4020  0.00  0.00     0.000 C
ATOM     26   O  NAG B   2      15.949  23.493  16.1070  0.00  0.00     0.000 O
ATOM     28  HD  NAG B   2      15.712  22.709  16.3880  0.00  0.00     0.000 HD
BRANCH 18 30
ATOM     28   N  NAG B   2      15.987  19.189  20.3000  0.00  0.00     0.000 N
ATOM     30  HD  NAG B   2      15.898  19.619  21.0460  0.00  0.00     0.000 HD
ATOM     30   C  NAG B   2      16.625  18.453  21.2210  0.00  0.00     0.000 C
ATOM     31   C  NAG B   2      15.970  18.426  22.5720  0.00  0.00     0.000 C
ATOM     32   O  NAG B   2      17.653  17.856  21.0010  0.00  0.00     0.000 OA
ENDBRANCH 18 30
BRANCH 17 33
ATOM     33  O4  BDP B   3      13.555  19.677  18.9370  0.00  0.00     0.000 O
BRANCH 33 37
ATOM     34  C1  BDP B   3      10.115  18.502  21.1800  0.00  0.00     0.000 C
ATOM     35  C2  BDP B   3      11.281  17.522  21.1270  0.00  0.00     0.000 C
ATOM     36  C3  BDP B   3      12.595  18.159  20.6890  0.00  0.00     0.000 C
ATOM     37  C4  BDP B   3      12.349  19.049  19.4610  0.00  0.00     0.000 C
ATOM     38  C5  BDP B   3      11.267  20.075  19.8500  0.00  0.00     0.000 C
ATOM     39  O5  BDP B   3      10.063  19.325  20.0080  0.00  0.00     0.000 O
ATOM     40   O  BDP B   3      11.370  16.937  22.4270  0.00  0.00     0.000 O
ATOM     42  HD  BDP B   3      10.729  16.463  22.0880  0.00  0.00     0.000 HD
ATOM     42   O  BDP B   3      13.492  17.088  20.3970  0.00  0.00     0.000 O
ATOM     44  HD  BDP B   3      12.851  16.615  20.0580  0.00  0.00     0.000 HD
BRANCH 38 44
ATOM     44   C  BDP B   3      11.058  21.164  18.8450  0.00  0.00     0.000 C
ATOM     45   O  BDP B   3      10.332  20.917  17.8560  0.00  0.00     0.000 OA
ATOM     46   O  BDP B   3      11.605  22.276  19.0150  0.00  0.00     0.000 OA
ENDBRANCH 38 44
BRANCH 34 47
ATOM     47  O3  NAG B   4       8.896  17.906  20.7420  0.00  0.00     0.000 O
BRANCH 47 50
ATOM     48  C1  NAG B   4       5.973  18.288  23.0790  0.00  0.00     0.000 C
ATOM     49  C2  NAG B   4       7.348  17.834  22.6200  0.00  0.00     0.000 C
ATOM     50  C3  NAG B   4       7.622  18.382  21.2240  0.00  0.00     0.000 C
ATOM     51  C4  NAG B   4       6.529  17.987  20.2430  0.00  0.00     0.000 C
ATOM     52  C5  NAG B   4       5.165  18.407  20.7910  0.00  0.00     0.000 C
ATOM     53  O5  NAG B   4       4.978  17.892  22.1150  0.00  0.00     0.000 O
ATOM     54   O  NAG B   4       6.783  18.617  18.9850  0.00  0.00     0.000 O
ATOM     56  HD  NAG B   4       6.191  17.988  18.9290  0.00  0.00     0.000 HD
ATOM     56   C  NAG B   4       4.034  17.917  19.8940  0.00  0.00     0.000 C
ATOM     57   O  NAG B   4       4.082  16.486  19.8210  0.00  0.00     0.000 O
ATOM     59  HD  NAG B   4       3.489  15.857  19.7650  0.00  0.00     0.000 HD
BRANCH 49 61
ATOM     59   N  NAG B   4       7.134  16.521  23.2280  0.00  0.00     0.000 N
ATOM     61  HD  NAG B   4       7.723  16.920  22.7350  0.00  0.00     0.000 HD
ATOM     61   O  NAG B   4       9.258  16.195  23.9240  0.00  0.00     0.000 OA
ATOM     62   C  NAG B   4       8.086  15.850  23.8890  0.00  0.00     0.000 C
ATOM     63   C  NAG B   4       7.627  14.631  24.6230  0.00  0.00     0.000 C
ENDBRANCH 49 61
BRANCH 48 64
ATOM     64  O4  BDP B   5       5.419  18.554  24.3640  0.00  0.00     0.000 O
BRANCH 64 68
ATOM     65  C1  BDP B   5       3.710  15.718  26.8950  0.00  0.00     0.000 C
ATOM     66  C2  BDP B   5       2.735  16.589  26.1150  0.00  0.00     0.000 C
ATOM     67  C3  BDP B   5       3.458  17.251  24.9490  0.00  0.00     0.000 C
ATOM     68  C4  BDP B   5       4.661  18.038  25.4570  0.00  0.00     0.000 C
ATOM     69  C5  BDP B   5       5.580  17.187  26.3250  0.00  0.00     0.000 C
ATOM     70  O5  BDP B   5       4.825  16.505  27.3430  0.00  0.00     0.000 O
ATOM     71   O  BDP B   5       1.628  15.791  25.6680  0.00  0.00     0.000 O
ATOM     73  HD  BDP B   5       0.995  15.261  25.4070  0.00  0.00     0.000 HD
ATOM     73   O  BDP B   5       2.577  18.136  24.2470  0.00  0.00     0.000 O
ATOM     75  HD  BDP B   5       1.944  17.606  23.9860  0.00  0.00     0.000 HD
BRANCH 69 75
ATOM     75   C  BDP B   5       6.593  18.095  26.9740  0.00  0.00     0.000 C
ATOM     76   O  BDP B   5       7.794  17.975  26.6580  0.00  0.00     0.000 OA
ATOM     77   O  BDP B   5       6.204  18.939  27.8020  0.00  0.00     0.000 OA
ENDBRANCH 69 75
BRANCH 65 78
ATOM     78  O3  NAG B   6       3.651  15.420  28.2930  0.00  0.00     0.000 O
BRANCH 78 81
ATOM     79  C1  NAG B   6       3.624  12.323  30.4700  0.00  0.00     0.000 C
ATOM     80  C2  NAG B   6       3.070  13.397  29.5210  0.00  0.00     0.000 C
ATOM     81  C3  NAG B   6       4.187  14.319  29.0600  0.00  0.00     0.000 C
ATOM     82  C4  NAG B   6       4.983  14.853  30.2550  0.00  0.00     0.000 C
ATOM     83  C5  NAG B   6       5.479  13.683  31.0960  0.00  0.00     0.000 C
ATOM     84  O5  NAG B   6       4.334  12.958  31.5480  0.00  0.00     0.000 O
BRANCH 80 87
ATOM     85   N  NAG B   6       2.321  12.653  28.5130  0.00  0.00     0.000 N
ATOM     87  HD  NAG B   6       1.598  12.244  28.2670  0.00  0.00     0.000 HD
ATOM     87   C  NAG B   6       1.216  13.110  27.9110  0.00  0.00     0.000 C
ATOM     88   C  NAG B   6       0.618  12.207  26.8790  0.00  0.00     0.000 C
ATOM     89   O  NAG B   6       0.720  14.202  28.1640  0.00  0.00     0.000 OA
ENDBRANCH 80 87
ATOM     90   O  NAG B   6       7.672  13.698  32.1150  0.00  0.00     0.000 O
ATOM     92  HD  NAG B   6       7.043  13.209  31.7760  0.00  0.00     0.000 HD
ATOM     92   O  NAG B   6       7.672  13.698  32.1150  0.00  0.00     0.000 O
ATOM     94  HD  NAG B   6       7.043  13.209  31.7760  0.00  0.00     0.000 HD
ENDBRANCH 78 81
ENDBRANCH 65 78
ENDBRANCH 64 68
ENDBRANCH 48 64
ENDBRANCH 47 50
ENDBRANCH 34 47
ENDBRANCH 33 37
ENDBRANCH 17 33
ENDBRANCH 16 19
ENDBRANCH 1 16
TORSDOF 16
ENDMDL
MODEL 21
REMARK VINA RESULT:      -7.4      8.914     15.586
ROOT
ATOM      1  C1  BDP B   1      14.418  11.351   9.6390  0.00  0.00     0.000 C
ATOM      2  C2  BDP B   1      14.033   9.935  10.0310  0.00  0.00     0.000 C
ATOM      3  C3  BDP B   1      12.550   9.683   9.8680  0.00  0.00     0.000 C
ATOM      4  C4  BDP B   1      11.828  10.736   9.0350  0.00  0.00     0.000 C
ATOM      5  C5  BDP B   1      12.196  12.161   9.4370  0.00  0.00     0.000 C
ATOM      6  O5  BDP B   1      13.427  12.214  10.1760  0.00  0.00     0.000 O
ATOM      7   O  BDP B   1      14.770   8.994   9.2430  0.00  0.00     0.000 O
ATOM      9  HD  BDP B   1      15.507   8.719   8.8800  0.00  0.00     0.000 HD
ATOM      9   O  BDP B   1      11.916   9.636  11.1570  0.00  0.00     0.000 O
ATOM     11  HD  BDP B   1      12.653   9.362  10.7940  0.00  0.00     0.000 HD
ATOM     11   O  BDP B   1      12.097  10.541   7.6410  0.00  0.00     0.000 O
ATOM     13  HD  BDP B   1      12.834  10.267   7.2790  0.00  0.00     0.000 HD
ENDROOT
BRANCH 5 13
ATOM     13   C  BDP B   1      11.083  12.683  10.2770  0.00  0.00     0.000 C
ATOM     14   O  BDP B   1      10.141  13.272   9.7070  0.00  0.00     0.000 OA
ATOM     15   O  BDP B   1      11.113  12.495  11.5120  0.00  0.00     0.000 OA
ENDBRANCH 5 13
BRANCH 1 16
ATOM     16  O3  NAG B   2      15.335  11.823   8.6540  0.00  0.00     0.000 O
BRANCH 16 19
ATOM     17  C1  NAG B   2      18.767  12.809   9.3640  0.00  0.00     0.000 C
ATOM     18  C2  NAG B   2      17.713  11.718   9.1740  0.00  0.00     0.000 C
ATOM     19  C3  NAG B   2      16.642  12.174   8.1950  0.00  0.00     0.000 C
ATOM     20  C4  NAG B   2      16.711  13.682   7.9390  0.00  0.00     0.000 C
ATOM     21  C5  NAG B   2      17.118  14.530   9.1530  0.00  0.00     0.000 C
ATOM     22  O5  NAG B   2      18.078  13.889   9.9990  0.00  0.00     0.000 O
ATOM     23   O  NAG B   2      17.617  13.919   6.8570  0.00  0.00     0.000 O
ATOM     25  HD  NAG B   2      18.194  13.328   7.1180  0.00  0.00     0.000 HD
ATOM     25   C  NAG B   2      15.887  14.894   9.9950  0.00  0.00     0.000 C
ATOM     26   O  NAG B   2      15.229  16.067   9.4960  0.00  0.00     0.000 O
ATOM     28  HD  NAG B   2      15.806  15.476   9.7570  0.00  0.00     0.000 HD
BRANCH 18 30
ATOM     28   N  NAG B   2      18.390  10.466   8.8380  0.00  0.00     0.000 N
ATOM     30  HD  NAG B   2      19.034   9.947   9.0940  0.00  0.00     0.000 HD
ATOM     30   C  NAG B   2      19.153  10.273   7.7530  0.00  0.00     0.000 C
ATOM     31   C  NAG B   2      19.731   8.892   7.6240  0.00  0.00     0.000 C
ATOM     32   O  NAG B   2      19.377  11.134   6.9340  0.00  0.00     0.000 OA
ENDBRANCH 18 30
BRANCH 17 33
ATOM     33  O4  BDP B   3      19.819  13.451  10.1170  0.00  0.00     0.000 O
BRANCH 33 37
ATOM     34  C1  BDP B   3      21.401  12.827  14.0350  0.00  0.00     0.000 C
ATOM     35  C2  BDP B   3      20.818  14.201  13.7300  0.00  0.00     0.000 C
ATOM     36  C3  BDP B   3      19.912  14.222  12.5030  0.00  0.00     0.000 C
ATOM     37  C4  BDP B   3      20.589  13.458  11.3550  0.00  0.00     0.000 C
ATOM     38  C5  BDP B   3      20.897  12.038  11.8690  0.00  0.00     0.000 C
ATOM     39  O5  BDP B   3      21.916  12.198  12.8560  0.00  0.00     0.000 O
ATOM     40   O  BDP B   3      20.134  14.617  14.9140  0.00  0.00     0.000 O
ATOM     42  HD  BDP B   3      20.949  14.817  15.1280  0.00  0.00     0.000 HD
ATOM     42   O  BDP B   3      19.699  15.594  12.1750  0.00  0.00     0.000 O
ATOM     44  HD  BDP B   3      20.514  15.794  12.3890  0.00  0.00     0.000 HD
BRANCH 38 44
ATOM     44   C  BDP B   3      21.359  11.084  10.8130  0.00  0.00     0.000 C
ATOM     45   O  BDP B   3      22.229  11.480  10.0060  0.00  0.00     0.000 OA
ATOM     46   O  BDP B   3      20.871   9.934  10.7620  0.00  0.00     0.000 OA
ENDBRANCH 38 44
BRANCH 34 47
ATOM     47  O3  NAG B   4      22.745  12.910  14.5050  0.00  0.00     0.000 O
BRANCH 47 50
ATOM     48  C1  NAG B   4      23.461  10.580  17.3700  0.00  0.00     0.000 C
ATOM     49  C2  NAG B   4      22.759  11.695  16.6150  0.00  0.00     0.000 C
ATOM     50  C3  NAG B   4      23.352  11.811  15.2160  0.00  0.00     0.000 C
ATOM     51  C4  NAG B   4      24.859  12.007  15.2610  0.00  0.00     0.000 C
ATOM     52  C5  NAG B   4      25.502  10.896  16.0920  0.00  0.00     0.000 C
ATOM     53  O5  NAG B   4      24.882  10.814  17.3810  0.00  0.00     0.000 O
ATOM     54   O  NAG B   4      25.371  12.000  13.9260  0.00  0.00     0.000 O
ATOM     56  HD  NAG B   4      25.945  12.299  14.5020  0.00  0.00     0.000 HD
ATOM     56   C  NAG B   4      26.999  11.129  16.2640  0.00  0.00     0.000 C
ATOM     57   O  NAG B   4      27.203  12.382  16.9320  0.00  0.00     0.000 O
ATOM     59  HD  NAG B   4      27.777  12.681  17.5080  0.00  0.00     0.000 HD
BRANCH 49 61
ATOM     59   N  NAG B   4      22.881  12.869  17.4810  0.00  0.00     0.000 N
ATOM     61  HD  NAG B   4      22.471  12.637  16.7540  0.00  0.00     0.000 HD
ATOM     61   O  NAG B   4      20.699  13.454  17.4550  0.00  0.00     0.000 OA
ATOM     62   C  NAG B   4      21.835  13.600  17.8830  0.00  0.00     0.000 C
ATOM     63   C  NAG B   4      22.127  14.625  18.9330  0.00  0.00     0.000 C
ENDBRANCH 49 61
BRANCH 48 64
ATOM     64  O4  BDP B   5      23.041   9.696  18.4050  0.00  0.00     0.000 O
BRANCH 64 68
ATOM     65  C1  BDP B   5      21.174   7.866  21.6510  0.00  0.00     0.000 C
ATOM     66  C2  BDP B   5      20.698   7.426  20.2730  0.00  0.00     0.000 C
ATOM     67  C3  BDP B   5      21.726   7.830  19.2230  0.00  0.00     0.000 C
ATOM     68  C4  BDP B   5      21.988   9.330  19.2960  0.00  0.00     0.000 C
ATOM     69  C5  BDP B   5      22.362   9.781  20.7020  0.00  0.00     0.000 C
ATOM     70  O5  BDP B   5      21.414   9.282  21.6620  0.00  0.00     0.000 O
ATOM     71   O  BDP B   5      20.468   6.009  20.2730  0.00  0.00     0.000 O
ATOM     73  HD  BDP B   5      20.365   5.150  20.3210  0.00  0.00     0.000 HD
ATOM     73   O  BDP B   5      21.261   7.494  17.9100  0.00  0.00     0.000 O
ATOM     75  HD  BDP B   5      21.158   6.636  17.9590  0.00  0.00     0.000 HD
BRANCH 69 75
ATOM     75   C  BDP B   5      22.362  11.288  20.7310  0.00  0.00     0.000 C
ATOM     76   O  BDP B   5      21.279  11.885  20.8900  0.00  0.00     0.000 OA
ATOM     77   O  BDP B   5      23.442  11.893  20.6010  0.00  0.00     0.000 OA
ENDBRANCH 69 75
BRANCH 65 78
ATOM     78  O3  NAG B   6      20.346   8.226  22.7600  0.00  0.00     0.000 O
BRANCH 78 81
ATOM     79  C1  NAG B   6      20.832   7.471  26.4380  0.00  0.00     0.000 C
ATOM     80  C2  NAG B   6      20.659   7.181  24.9390  0.00  0.00     0.000 C
ATOM     81  C3  NAG B   6      20.661   8.478  24.1470  0.00  0.00     0.000 C
ATOM     82  C4  NAG B   6      19.662   9.479  24.7370  0.00  0.00     0.000 C
ATOM     83  C5  NAG B   6      19.960   9.679  26.2180  0.00  0.00     0.000 C
ATOM     84  O5  NAG B   6      19.828   8.410  26.8610  0.00  0.00     0.000 O
BRANCH 80 87
ATOM     85   N  NAG B   6      20.509   5.897  24.2590  0.00  0.00     0.000 N
ATOM     87  HD  NAG B   6      20.553   5.423  23.5360  0.00  0.00     0.000 HD
ATOM     87   C  NAG B   6      21.525   5.210  23.7220  0.00  0.00     0.000 C
ATOM     88   C  NAG B   6      21.165   3.898  23.1010  0.00  0.00     0.000 C
ATOM     89   O  NAG B   6      22.683   5.608  23.7400  0.00  0.00     0.000 OA
ENDBRANCH 80 87
ATOM     90   O  NAG B   6      19.778  11.853  27.2620  0.00  0.00     0.000 O
ATOM     92  HD  NAG B   6      20.182  11.087  27.2680  0.00  0.00     0.000 HD
ATOM     92   O  NAG B   6      19.778  11.853  27.2620  0.00  0.00     0.000 O
ATOM     94  HD  NAG B   6      20.182  11.087  27.2680  0.00  0.00     0.000 HD
ENDBRANCH 78 81
ENDBRANCH 65 78
ENDBRANCH 64 68
ENDBRANCH 48 64
ENDBRANCH 47 50
ENDBRANCH 34 47
ENDBRANCH 33 37
ENDBRANCH 17 33
ENDBRANCH 16 19
ENDBRANCH 1 16
TORSDOF 16
ENDMDL
MODEL 22
REMARK VINA RESULT:      -7.4      6.581     13.926
ROOT
ATOM      1  C1  BDP B   1      10.442  17.852  21.7260  0.00  0.00     0.000 C
ATOM      2  C2  BDP B   1       9.222  17.878  20.8230  0.00  0.00     0.000 C
ATOM      3  C3  BDP B   1       7.949  18.162  21.5920  0.00  0.00     0.000 C
ATOM      4  C4  BDP B   1       8.181  18.703  22.9980  0.00  0.00     0.000 C
ATOM      5  C5  BDP B   1       9.233  17.913  23.7690  0.00  0.00     0.000 C
ATOM      6  O5  BDP B   1      10.075  17.139  22.8980  0.00  0.00     0.000 O
ATOM      7   O  BDP B   1       9.395  18.863  19.7990  0.00  0.00     0.000 O
ATOM      9  HD  BDP B   1       9.878  19.257  19.1980  0.00  0.00     0.000 HD
ATOM      9   O  BDP B   1       7.170  16.961  21.7100  0.00  0.00     0.000 O
ATOM     11  HD  BDP B   1       7.653  17.356  21.1090  0.00  0.00     0.000 HD
ATOM     11   O  BDP B   1       8.556  20.085  22.9460  0.00  0.00     0.000 O
ATOM     13  HD  BDP B   1       9.039  20.480  22.3450  0.00  0.00     0.000 HD
ENDROOT
BRANCH 5 13
ATOM     13   C  BDP B   1       8.509  17.007  24.7020  0.00  0.00     0.000 C
ATOM     14   O  BDP B   1       9.053  15.930  25.0200  0.00  0.00     0.000 OA
ATOM     15   O  BDP B   1       7.400  17.363  25.1560  0.00  0.00     0.000 OA
ENDBRANCH 5 13
BRANCH 1 16
ATOM     16  O3  NAG B   2      11.635  18.634  21.6960  0.00  0.00     0.000 O
BRANCH 16 19
ATOM     17  C1  NAG B   2      14.616  18.308  23.7610  0.00  0.00     0.000 C
ATOM     18  C2  NAG B   2      13.636  17.721  22.7440  0.00  0.00     0.000 C
ATOM     19  C3  NAG B   2      13.039  18.821  21.8790  0.00  0.00     0.000 C
ATOM     20  C4  NAG B   2      13.302  20.211  22.4670  0.00  0.00     0.000 C
ATOM     21  C5  NAG B   2      13.286  20.284  24.0000  0.00  0.00     0.000 C
ATOM     22  O5  NAG B   2      13.816  19.112  24.6310  0.00  0.00     0.000 O
ATOM     23   O  NAG B   2      14.560  20.682  21.9720  0.00  0.00     0.000 O
ATOM     25  HD  NAG B   2      14.956  19.916  22.0460  0.00  0.00     0.000 HD
ATOM     25   C  NAG B   2      11.858  20.514  24.5150  0.00  0.00     0.000 C
ATOM     26   O  NAG B   2      11.515  21.907  24.5240  0.00  0.00     0.000 O
ATOM     28  HD  NAG B   2      11.911  21.141  24.5980  0.00  0.00     0.000 HD
BRANCH 18 30
ATOM     28   N  NAG B   2      14.673  17.811  21.7170  0.00  0.00     0.000 N
ATOM     30  HD  NAG B   2      14.786  17.955  20.8710  0.00  0.00     0.000 HD
ATOM     30   C  NAG B   2      15.398  16.777  21.2660  0.00  0.00     0.000 C
ATOM     31   C  NAG B   2      16.411  17.127  20.2140  0.00  0.00     0.000 C
ATOM     32   O  NAG B   2      15.256  15.642  21.6590  0.00  0.00     0.000 OA
ENDBRANCH 18 30
BRANCH 17 33
ATOM     33  O4  BDP B   3      15.354  18.255  25.0010  0.00  0.00     0.000 O
BRANCH 33 37
ATOM     34  C1  BDP B   3      16.879  15.058  27.3880  0.00  0.00     0.000 C
ATOM     35  C2  BDP B   3      15.524  15.635  27.7790  0.00  0.00     0.000 C
ATOM     36  C3  BDP B   3      14.863  16.448  26.6710  0.00  0.00     0.000 C
ATOM     37  C4  BDP B   3      15.896  17.400  26.0490  0.00  0.00     0.000 C
ATOM     38  C5  BDP B   3      17.076  16.538  25.5600  0.00  0.00     0.000 C
ATOM     39  O5  BDP B   3      17.702  16.036  26.7410  0.00  0.00     0.000 O
ATOM     40   O  BDP B   3      14.721  14.526  28.1880  0.00  0.00     0.000 O
ATOM     42  HD  BDP B   3      15.181  14.658  28.9100  0.00  0.00     0.000 HD
ATOM     42   O  BDP B   3      13.782  17.158  27.2730  0.00  0.00     0.000 O
ATOM     44  HD  BDP B   3      14.242  17.290  27.9950  0.00  0.00     0.000 HD
BRANCH 38 44
ATOM     44   C  BDP B   3      18.079  17.277  24.7290  0.00  0.00     0.000 C
ATOM     45   O  BDP B   3      18.880  18.036  25.3170  0.00  0.00     0.000 OA
ATOM     46   O  BDP B   3      18.089  17.120  23.4890  0.00  0.00     0.000 OA
ENDBRANCH 38 44
BRANCH 34 47
ATOM     47  O3  NAG B   4      17.804  15.086  28.4730  0.00  0.00     0.000 O
BRANCH 47 50
ATOM     48  C1  NAG B   4      20.144  12.153  28.2090  0.00  0.00     0.000 C
ATOM     49  C2  NAG B   4      18.814  12.885  28.2160  0.00  0.00     0.000 C
ATOM     50  C3  NAG B   4      19.059  14.379  28.3960  0.00  0.00     0.000 C
ATOM     51  C4  NAG B   4      19.879  14.664  29.6450  0.00  0.00     0.000 C
ATOM     52  C5  NAG B   4      21.171  13.847  29.6150  0.00  0.00     0.000 C
ATOM     53  O5  NAG B   4      20.880  12.459  29.4090  0.00  0.00     0.000 O
ATOM     54   O  NAG B   4      20.168  16.063  29.7020  0.00  0.00     0.000 O
ATOM     56  HD  NAG B   4      20.328  15.659  30.4510  0.00  0.00     0.000 HD
ATOM     56   C  NAG B   4      21.960  14.011  30.9090  0.00  0.00     0.000 C
ATOM     57   O  NAG B   4      21.155  13.563  32.0070  0.00  0.00     0.000 O
ATOM     59  HD  NAG B   4      21.315  13.158  32.7560  0.00  0.00     0.000 HD
BRANCH 49 61
ATOM     59   N  NAG B   4      18.137  11.950  29.1150  0.00  0.00     0.000 N
ATOM     61  HD  NAG B   4      17.959  12.678  28.6800  0.00  0.00     0.000 HD
ATOM     61   O  NAG B   4      16.173  11.876  28.0010  0.00  0.00     0.000 OA
ATOM     62   C  NAG B   4      16.907  11.472  28.8910  0.00  0.00     0.000 C
ATOM     63   C  NAG B   4      16.467  10.368  29.8000  0.00  0.00     0.000 C
ENDBRANCH 49 61
BRANCH 48 64
ATOM     64  O4  BDP B   5      20.586  10.950  27.5860  0.00  0.00     0.000 O
BRANCH 64 68
ATOM     65  C1  BDP B   5      19.995   9.745  23.6400  0.00  0.00     0.000 C
ATOM     66  C2  BDP B   5      19.945   8.642  24.6880  0.00  0.00     0.000 C
ATOM     67  C3  BDP B   5      19.744   9.255  26.0680  0.00  0.00     0.000 C
ATOM     68  C4  BDP B   5      20.838  10.278  26.3520  0.00  0.00     0.000 C
ATOM     69  C5  BDP B   5      20.953  11.319  25.2460  0.00  0.00     0.000 C
ATOM     70  O5  BDP B   5      21.035  10.683  23.9590  0.00  0.00     0.000 O
ATOM     71   O  BDP B   5      18.899   7.714  24.3620  0.00  0.00     0.000 O
ATOM     73  HD  BDP B   5      18.244   7.197  24.1310  0.00  0.00     0.000 HD
ATOM     73   O  BDP B   5      19.771   8.241  27.0790  0.00  0.00     0.000 O
ATOM     75  HD  BDP B   5      19.116   7.724  26.8470  0.00  0.00     0.000 HD
BRANCH 69 75
ATOM     75   C  BDP B   5      22.201  12.130  25.4870  0.00  0.00     0.000 C
ATOM     76   O  BDP B   5      22.092  13.359  25.6710  0.00  0.00     0.000 OA
ATOM     77   O  BDP B   5      23.304  11.551  25.5000  0.00  0.00     0.000 OA
ENDBRANCH 69 75
BRANCH 65 78
ATOM     78  O3  NAG B   6      20.718   9.710  22.4060  0.00  0.00     0.000 O
BRANCH 78 81
ATOM     79  C1  NAG B   6      20.353   9.683  18.6370  0.00  0.00     0.000 C
ATOM     80  C2  NAG B   6      20.545   9.110  20.0500  0.00  0.00     0.000 C
ATOM     81  C3  NAG B   6      20.388  10.207  21.0900  0.00  0.00     0.000 C
ATOM     82  C4  NAG B   6      21.271  11.412  20.7500  0.00  0.00     0.000 C
ATOM     83  C5  NAG B   6      20.964  11.880  19.3320  0.00  0.00     0.000 C
ATOM     84  O5  NAG B   6      21.246  10.794  18.4480  0.00  0.00     0.000 O
BRANCH 80 87
ATOM     85   N  NAG B   6      20.650   7.950  20.9320  0.00  0.00     0.000 N
ATOM     87  HD  NAG B   6      20.302   7.432  21.5320  0.00  0.00     0.000 HD
ATOM     87   C  NAG B   6      19.901   6.847  20.8110  0.00  0.00     0.000 C
ATOM     88   C  NAG B   6      20.188   5.757  21.7930  0.00  0.00     0.000 C
ATOM     89   O  NAG B   6      19.041   6.715  19.9480  0.00  0.00     0.000 OA
ENDBRANCH 80 87
ATOM     90   O  NAG B   6      20.904  14.229  18.7600  0.00  0.00     0.000 O
ATOM     92  HD  NAG B   6      20.591  13.441  18.5850  0.00  0.00     0.000 HD
ATOM     92   O  NAG B   6      20.904  14.229  18.7600  0.00  0.00     0.000 O
ATOM     94  HD  NAG B   6      20.591  13.441  18.5850  0.00  0.00     0.000 HD
ENDBRANCH 78 81
ENDBRANCH 65 78
ENDBRANCH 64 68
ENDBRANCH 48 64
ENDBRANCH 47 50
ENDBRANCH 34 47
ENDBRANCH 33 37
ENDBRANCH 17 33
ENDBRANCH 16 19
ENDBRANCH 1 16
TORSDOF 16
ENDMDL
MODEL 23
REMARK VINA RESULT:      -7.3      8.577     15.988
ROOT
ATOM      1  C1  BDP B   1       9.105  18.955  23.4260  0.00  0.00     0.000 C
ATOM      2  C2  BDP B   1       8.015  18.658  24.4410  0.00  0.00     0.000 C
ATOM      3  C3  BDP B   1       7.050  17.601  23.9490  0.00  0.00     0.000 C
ATOM      4  C4  BDP B   1       7.551  16.816  22.7410  0.00  0.00     0.000 C
ATOM      5  C5  BDP B   1       8.129  17.715  21.6520  0.00  0.00     0.000 C
ATOM      6  O5  BDP B   1       8.480  19.016  22.1520  0.00  0.00     0.000 O
ATOM      7   O  BDP B   1       8.602  18.236  25.6760  0.00  0.00     0.000 O
ATOM      9  HD  BDP B   1       9.196  18.316  26.3010  0.00  0.00     0.000 HD
ATOM      9   O  BDP B   1       5.800  18.208  23.5860  0.00  0.00     0.000 O
ATOM     11  HD  BDP B   1       6.394  18.288  24.2110  0.00  0.00     0.000 HD
ATOM     11   O  BDP B   1       8.532  15.852  23.1430  0.00  0.00     0.000 O
ATOM     13  HD  BDP B   1       9.126  15.932  23.7680  0.00  0.00     0.000 HD
ENDROOT
BRANCH 5 13
ATOM     13   C  BDP B   1       7.090  17.848  20.5930  0.00  0.00     0.000 C
ATOM     14   O  BDP B   1       7.468  18.031  19.4170  0.00  0.00     0.000 OA
ATOM     15   O  BDP B   1       5.885  17.746  20.9080  0.00  0.00     0.000 OA
ENDBRANCH 5 13
BRANCH 1 16
ATOM     16  O3  NAG B   2      10.524  18.858  23.5340  0.00  0.00     0.000 O
BRANCH 16 19
ATOM     17  C1  NAG B   2      13.935  19.300  22.3410  0.00  0.00     0.000 C
ATOM     18  C2  NAG B   2      12.924  19.274  23.4880  0.00  0.00     0.000 C
ATOM     19  C3  NAG B   2      11.792  18.304  23.1820  0.00  0.00     0.000 C
ATOM     20  C4  NAG B   2      11.784  17.889  21.7080  0.00  0.00     0.000 C
ATOM     21  C5  NAG B   2      12.202  18.987  20.7200  0.00  0.00     0.000 C
ATOM     22  O5  NAG B   2      13.226  19.851  21.2290  0.00  0.00     0.000 O
ATOM     23   O  NAG B   2      12.632  16.747  21.5520  0.00  0.00     0.000 O
ATOM     25  HD  NAG B   2      13.245  17.042  22.0880  0.00  0.00     0.000 HD
ATOM     25   C  NAG B   2      10.993  19.844  20.3180  0.00  0.00     0.000 C
ATOM     26   O  NAG B   2      10.263  19.255  19.2330  0.00  0.00     0.000 O
ATOM     28  HD  NAG B   2      10.876  19.550  19.7690  0.00  0.00     0.000 HD
BRANCH 18 30
ATOM     28   N  NAG B   2      14.119  18.501  23.8220  0.00  0.00     0.000 N
ATOM     30  HD  NAG B   2      14.516  17.750  23.6540  0.00  0.00     0.000 HD
ATOM     30   C  NAG B   2      14.366  17.947  25.0170  0.00  0.00     0.000 C
ATOM     31   C  NAG B   2      15.671  17.209  25.1150  0.00  0.00     0.000 C
ATOM     32   O  NAG B   2      13.605  18.018  25.9540  0.00  0.00     0.000 OA
ENDBRANCH 18 30
BRANCH 17 33
ATOM     33  O4  BDP B   3      14.988  19.932  21.5810  0.00  0.00     0.000 O
BRANCH 33 37
ATOM     34  C1  BDP B   3      18.932  18.836  20.3630  0.00  0.00     0.000 C
ATOM     35  C2  BDP B   3      18.699  20.294  20.7420  0.00  0.00     0.000 C
ATOM     36  C3  BDP B   3      17.427  20.519  21.5510  0.00  0.00     0.000 C
ATOM     37  C4  BDP B   3      16.265  19.751  20.9030  0.00  0.00     0.000 C
ATOM     38  C5  BDP B   3      16.686  18.272  20.8170  0.00  0.00     0.000 C
ATOM     39  O5  BDP B   3      17.740  18.225  19.8550  0.00  0.00     0.000 O
ATOM     40   O  BDP B   3      19.870  20.716  21.4450  0.00  0.00     0.000 O
ATOM     42  HD  BDP B   3      20.145  20.790  20.6270  0.00  0.00     0.000 HD
ATOM     42   O  BDP B   3      17.193  21.926  21.5620  0.00  0.00     0.000 O
ATOM     44  HD  BDP B   3      17.468  22.001  20.7450  0.00  0.00     0.000 HD
BRANCH 38 44
ATOM     44   C  BDP B   3      15.588  17.338  20.4120  0.00  0.00     0.000 C
ATOM     45   O  BDP B   3      15.395  16.322  21.1150  0.00  0.00     0.000 OA
ATOM     46   O  BDP B   3      14.904  17.592  19.3970  0.00  0.00     0.000 OA
ENDBRANCH 38 44
BRANCH 34 47
ATOM     47  O3  NAG B   4      19.484  18.706  19.0540  0.00  0.00     0.000 O
BRANCH 47 50
ATOM     48  C1  NAG B   4      21.751  15.719  18.7550  0.00  0.00     0.000 C
ATOM     49  C2  NAG B   4      21.225  17.025  19.3240  0.00  0.00     0.000 C
ATOM     50  C3  NAG B   4      19.962  17.432  18.5740  0.00  0.00     0.000 C
ATOM     51  C4  NAG B   4      20.203  17.514  17.0750  0.00  0.00     0.000 C
ATOM     52  C5  NAG B   4      20.797  16.197  16.5720  0.00  0.00     0.000 C
ATOM     53  O5  NAG B   4      21.959  15.850  17.3350  0.00  0.00     0.000 O
ATOM     54   O  NAG B   4      18.964  17.792  16.4180  0.00  0.00     0.000 O
ATOM     56  HD  NAG B   4      19.649  17.907  15.9010  0.00  0.00     0.000 HD
ATOM     56   C  NAG B   4      21.168  16.285  15.0970  0.00  0.00     0.000 C
ATOM     57   O  NAG B   4      22.138  17.326  14.9200  0.00  0.00     0.000 O
ATOM     59  HD  NAG B   4      22.823  17.442  14.4030  0.00  0.00     0.000 HD
BRANCH 49 61
ATOM     59   N  NAG B   4      22.471  17.792  19.3210  0.00  0.00     0.000 N
ATOM     61  HD  NAG B   4      21.648  17.891  19.5710  0.00  0.00     0.000 HD
ATOM     61   O  NAG B   4      22.260  18.663  21.3940  0.00  0.00     0.000 OA
ATOM     62   C  NAG B   4      22.915  18.482  20.3780  0.00  0.00     0.000 C
ATOM     63   C  NAG B   4      24.305  19.022  20.2610  0.00  0.00     0.000 C
ENDBRANCH 49 61
BRANCH 48 64
ATOM     64  O4  BDP B   5      22.492  14.643  19.3220  0.00  0.00     0.000 O
BRANCH 64 68
ATOM     65  C1  BDP B   5      21.397  12.456  22.6970  0.00  0.00     0.000 C
ATOM     66  C2  BDP B   5      22.456  13.530  22.9120  0.00  0.00     0.000 C
ATOM     67  C3  BDP B   5      22.440  14.506  21.7430  0.00  0.00     0.000 C
ATOM     68  C4  BDP B   5      22.634  13.756  20.4300  0.00  0.00     0.000 C
ATOM     69  C5  BDP B   5      21.637  12.615  20.2690  0.00  0.00     0.000 C
ATOM     70  O5  BDP B   5      21.620  11.787  21.4450  0.00  0.00     0.000 O
ATOM     71   O  BDP B   5      22.219  14.195  24.1620  0.00  0.00     0.000 O
ATOM     73  HD  BDP B   5      22.020  14.576  24.9140  0.00  0.00     0.000 HD
ATOM     73   O  BDP B   5      23.481  15.480  21.8880  0.00  0.00     0.000 O
ATOM     75  HD  BDP B   5      23.282  15.861  22.6400  0.00  0.00     0.000 HD
BRANCH 69 75
ATOM     75   C  BDP B   5      22.053  11.788  19.0780  0.00  0.00     0.000 C
ATOM     76   O  BDP B   5      23.125  11.152  19.1340  0.00  0.00     0.000 OA
ATOM     77   O  BDP B   5      21.315  11.760  18.0760  0.00  0.00     0.000 OA
ENDBRANCH 69 75
BRANCH 65 78
ATOM     78  O3  NAG B   6      21.449  11.107  23.1680  0.00  0.00     0.000 O
BRANCH 78 81
ATOM     79  C1  NAG B   6      19.498   8.008  24.1300  0.00  0.00     0.000 C
ATOM     80  C2  NAG B   6      20.345   9.274  24.3340  0.00  0.00     0.000 C
ATOM     81  C3  NAG B   6      20.529  10.004  23.0130  0.00  0.00     0.000 C
ATOM     82  C4  NAG B   6      21.035   9.049  21.9270  0.00  0.00     0.000 C
ATOM     83  C5  NAG B   6      20.095   7.853  21.8270  0.00  0.00     0.000 C
ATOM     84  O5  NAG B   6      20.089   7.200  23.0970  0.00  0.00     0.000 O
BRANCH 80 87
ATOM     85   N  NAG B   6      20.903  10.321  25.1850  0.00  0.00     0.000 N
ATOM     87  HD  NAG B   6      20.840  11.108  25.5420  0.00  0.00     0.000 HD
ATOM     87   C  NAG B   6      20.354  10.719  26.3400  0.00  0.00     0.000 C
ATOM     88   C  NAG B   6      21.100  11.783  27.0800  0.00  0.00     0.000 C
ATOM     89   O  NAG B   6      19.316  10.244  26.7850  0.00  0.00     0.000 OA
ENDBRANCH 80 87
ATOM     90   O  NAG B   6      19.528   6.867  19.6930  0.00  0.00     0.000 O
ATOM     92  HD  NAG B   6      19.261   7.029  20.5010  0.00  0.00     0.000 HD
ATOM     92   O  NAG B   6      19.528   6.867  19.6930  0.00  0.00     0.000 O
ATOM     94  HD  NAG B   6      19.261   7.029  20.5010  0.00  0.00     0.000 HD
ENDBRANCH 78 81
ENDBRANCH 65 78
ENDBRANCH 64 68
ENDBRANCH 48 64
ENDBRANCH 47 50
ENDBRANCH 34 47
ENDBRANCH 33 37
ENDBRANCH 17 33
ENDBRANCH 16 19
ENDBRANCH 1 16
TORSDOF 16
ENDMDL
MODEL 24
REMARK VINA RESULT:      -7.3      9.612     18.133
ROOT
ATOM      1  C1  BDP B   1      22.892   7.367  22.8890  0.00  0.00     0.000 C
ATOM      2  C2  BDP B   1      22.760   5.855  22.9120  0.00  0.00     0.000 C
ATOM      3  C3  BDP B   1      21.314   5.408  22.8760  0.00  0.00     0.000 C
ATOM      4  C4  BDP B   1      20.334   6.505  22.4730  0.00  0.00     0.000 C
ATOM      5  C5  BDP B   1      20.582   7.817  23.2100  0.00  0.00     0.000 C
ATOM      6  O5  BDP B   1      21.905   7.883  23.7700  0.00  0.00     0.000 O
ATOM      7   O  BDP B   1      23.466   5.288  21.8030  0.00  0.00     0.000 O
ATOM      9  HD  BDP B   1      24.160   5.244  21.2870  0.00  0.00     0.000 HD
ATOM      9   O  BDP B   1      20.918   4.924  24.1690  0.00  0.00     0.000 O
ATOM     11  HD  BDP B   1      21.612   4.880  23.6530  0.00  0.00     0.000 HD
ATOM     11   O  BDP B   1      20.387   6.726  21.0590  0.00  0.00     0.000 O
ATOM     13  HD  BDP B   1      21.081   6.683  20.5420  0.00  0.00     0.000 HD
ENDROOT
BRANCH 5 13
ATOM     13   C  BDP B   1      19.571   7.910  24.2980  0.00  0.00     0.000 C
ATOM     14   O  BDP B   1      18.857   8.933  24.3540  0.00  0.00     0.000 OA
ATOM     15   O  BDP B   1      19.449   6.958  25.0980  0.00  0.00     0.000 OA
ENDBRANCH 5 13
BRANCH 1 16
ATOM     16  O3  NAG B   2      23.562   8.225  21.9680  0.00  0.00     0.000 O
BRANCH 16 19
ATOM     17  C1  NAG B   2      22.801  10.330  19.0960  0.00  0.00     0.000 C
ATOM     18  C2  NAG B   2      22.457   9.823  20.4970  0.00  0.00     0.000 C
ATOM     19  C3  NAG B   2      23.722   9.455  21.2590  0.00  0.00     0.000 C
ATOM     20  C4  NAG B   2      24.936   9.362  20.3300  0.00  0.00     0.000 C
ATOM     21  C5  NAG B   2      24.643   8.812  18.9280  0.00  0.00     0.000 C
ATOM     22  O5  NAG B   2      23.364   9.205  18.4180  0.00  0.00     0.000 O
ATOM     23   O  NAG B   2      25.530  10.660  20.2280  0.00  0.00     0.000 O
ATOM     25  HD  NAG B   2      24.774  11.080  20.1850  0.00  0.00     0.000 HD
ATOM     25   C  NAG B   2      24.724   7.279  18.9200  0.00  0.00     0.000 C
ATOM     26   O  NAG B   2      26.070   6.818  18.7330  0.00  0.00     0.000 O
ATOM     28  HD  NAG B   2      25.313   7.238  18.6900  0.00  0.00     0.000 HD
BRANCH 18 30
ATOM     28   N  NAG B   2      22.442  11.284  20.4630  0.00  0.00     0.000 N
ATOM     30  HD  NAG B   2      22.963  11.974  20.5110  0.00  0.00     0.000 HD
ATOM     30   C  NAG B   2      21.916  12.069  21.4140  0.00  0.00     0.000 C
ATOM     31   C  NAG B   2      22.015  13.544  21.1420  0.00  0.00     0.000 C
ATOM     32   O  NAG B   2      21.405  11.642  22.4230  0.00  0.00     0.000 OA
ENDBRANCH 18 30
BRANCH 17 33
ATOM     33  O4  BDP B   3      22.466  10.598  17.7170  0.00  0.00     0.000 O
BRANCH 33 37
ATOM     34  C1  BDP B   3      21.203  13.006  14.4230  0.00  0.00     0.000 C
ATOM     35  C2  BDP B   3      22.577  12.354  14.3240  0.00  0.00     0.000 C
ATOM     36  C3  BDP B   3      22.779  11.202  15.3020  0.00  0.00     0.000 C
ATOM     37  C4  BDP B   3      22.282  11.619  16.6940  0.00  0.00     0.000 C
ATOM     38  C5  BDP B   3      20.809  12.048  16.5440  0.00  0.00     0.000 C
ATOM     39  O5  BDP B   3      20.835  13.257  15.7850  0.00  0.00     0.000 O
ATOM     40   O  BDP B   3      22.726  11.941  12.9640  0.00  0.00     0.000 O
ATOM     42  HD  BDP B   3      22.926  12.781  12.8930  0.00  0.00     0.000 HD
ATOM     42   O  BDP B   3      24.175  10.906  15.3040  0.00  0.00     0.000 O
ATOM     44  HD  BDP B   3      24.375  11.746  15.2330  0.00  0.00     0.000 HD
BRANCH 38 44
ATOM     44   C  BDP B   3      20.097  12.279  17.8400  0.00  0.00     0.000 C
ATOM     45   O  BDP B   3      19.527  11.303  18.3760  0.00  0.00     0.000 OA
ATOM     46   O  BDP B   3      20.088  13.422  18.3460  0.00  0.00     0.000 OA
ENDBRANCH 38 44
BRANCH 34 47
ATOM     47  O3  NAG B   4      21.268  14.419  14.2440  0.00  0.00     0.000 O
BRANCH 47 50
ATOM     48  C1  NAG B   4      19.012  16.049  11.7140  0.00  0.00     0.000 C
ATOM     49  C2  NAG B   4      20.173  15.210  12.2180  0.00  0.00     0.000 C
ATOM     50  C3  NAG B   4      20.135  15.156  13.7410  0.00  0.00     0.000 C
ATOM     51  C4  NAG B   4      20.126  16.550  14.3500  0.00  0.00     0.000 C
ATOM     52  C5  NAG B   4      18.981  17.369  13.7530  0.00  0.00     0.000 C
ATOM     53  O5  NAG B   4      19.049  17.355  12.3220  0.00  0.00     0.000 O
ATOM     54   O  NAG B   4      19.981  16.438  15.7680  0.00  0.00     0.000 O
ATOM     56  HD  NAG B   4      20.228  17.230  15.5190  0.00  0.00     0.000 HD
ATOM     56   C  NAG B   4      19.017  18.811  14.2470  0.00  0.00     0.000 C
ATOM     57   O  NAG B   4      20.262  19.407  13.8600  0.00  0.00     0.000 O
ATOM     59  HD  NAG B   4      20.509  20.199  13.6110  0.00  0.00     0.000 HD
BRANCH 49 61
ATOM     59   N  NAG B   4      21.254  15.821  11.4450  0.00  0.00     0.000 N
ATOM     61  HD  NAG B   4      21.143  15.168  12.0020  0.00  0.00     0.000 HD
ATOM     61   O  NAG B   4      22.236  13.898  10.7830  0.00  0.00     0.000 OA
ATOM     62   C  NAG B   4      22.144  15.116  10.7370  0.00  0.00     0.000 C
ATOM     63   C  NAG B   4      23.039  15.914   9.8420  0.00  0.00     0.000 C
ENDBRANCH 49 61
BRANCH 48 64
ATOM     64  O4  BDP B   5      18.248  16.025  10.5120  0.00  0.00     0.000 O
BRANCH 64 68
ATOM     65  C1  BDP B   5      16.047  12.814   9.0210  0.00  0.00     0.000 C
ATOM     66  C2  BDP B   5      17.467  12.954   8.4890  0.00  0.00     0.000 C
ATOM     67  C3  BDP B   5      18.271  13.865   9.4070  0.00  0.00     0.000 C
ATOM     68  C4  BDP B   5      17.571  15.212   9.5540  0.00  0.00     0.000 C
ATOM     69  C5  BDP B   5      16.118  15.059   9.9860  0.00  0.00     0.000 C
ATOM     70  O5  BDP B   5      15.438  14.108   9.1480  0.00  0.00     0.000 O
ATOM     71   O  BDP B   5      18.068  11.655   8.3720  0.00  0.00     0.000 O
ATOM     73  HD  BDP B   5      18.389  10.851   8.3400  0.00  0.00     0.000 HD
ATOM     73   O  BDP B   5      19.588  14.073   8.8830  0.00  0.00     0.000 O
ATOM     75  HD  BDP B   5      19.909  13.269   8.8510  0.00  0.00     0.000 HD
BRANCH 69 75
ATOM     75   C  BDP B   5      15.446  16.404   9.8700  0.00  0.00     0.000 C
ATOM     76   O  BDP B   5      14.654  16.758  10.7660  0.00  0.00     0.000 OA
ATOM     77   O  BDP B   5      15.702  17.123   8.8870  0.00  0.00     0.000 OA
ENDBRANCH 69 75
BRANCH 65 78
ATOM     78  O3  NAG B   6      14.868  12.586   8.2450  0.00  0.00     0.000 O
BRANCH 78 81
ATOM     79  C1  NAG B   6      12.100  10.007   8.1020  0.00  0.00     0.000 C
ATOM     80  C2  NAG B   6      13.499  10.603   7.8800  0.00  0.00     0.000 C
ATOM     81  C3  NAG B   6      13.614  11.950   8.5750  0.00  0.00     0.000 C
ATOM     82  C4  NAG B   6      12.447  12.865   8.1870  0.00  0.00     0.000 C
ATOM     83  C5  NAG B   6      11.129  12.153   8.4720  0.00  0.00     0.000 C
ATOM     84  O5  NAG B   6      11.105  10.960   7.6870  0.00  0.00     0.000 O
BRANCH 80 87
ATOM     85   N  NAG B   6      14.435   9.558   8.2870  0.00  0.00     0.000 N
ATOM     87  HD  NAG B   6      14.854   8.820   8.1150  0.00  0.00     0.000 HD
ATOM     87   C  NAG B   6      15.615   9.337   7.6950  0.00  0.00     0.000 C
ATOM     88   C  NAG B   6      16.442   8.240   8.2860  0.00  0.00     0.000 C
ATOM     89   O  NAG B   6      16.016   9.991   6.7390  0.00  0.00     0.000 OA
ENDBRANCH 80 87
ATOM     90   O  NAG B   6       9.217  13.339   9.3580  0.00  0.00     0.000 O
ATOM     92  HD  NAG B   6       9.637  12.582   9.3210  0.00  0.00     0.000 HD
ATOM     92   O  NAG B   6       9.217  13.339   9.3580  0.00  0.00     0.000 O
ATOM     94  HD  NAG B   6       9.637  12.582   9.3210  0.00  0.00     0.000 HD
ENDBRANCH 78 81
ENDBRANCH 65 78
ENDBRANCH 64 68
ENDBRANCH 48 64
ENDBRANCH 47 50
ENDBRANCH 34 47
ENDBRANCH 33 37
ENDBRANCH 17 33
ENDBRANCH 16 19
ENDBRANCH 1 16
TORSDOF 16
ENDMDL
MODEL 25
REMARK VINA RESULT:      -7.1      9.630     18.132
ROOT
ATOM      1  C1  BDP B   1      22.009   8.267  23.7080  0.00  0.00     0.000 C
ATOM      2  C2  BDP B   1      21.565   6.953  24.3260  0.00  0.00     0.000 C
ATOM      3  C3  BDP B   1      20.398   7.134  25.2740  0.00  0.00     0.000 C
ATOM      4  C4  BDP B   1      19.699   8.483  25.1470  0.00  0.00     0.000 C
ATOM      5  C5  BDP B   1      20.676   9.653  25.1010  0.00  0.00     0.000 C
ATOM      6  O5  BDP B   1      22.005   9.235  24.7470  0.00  0.00     0.000 O
ATOM      7   O  BDP B   1      21.206   6.027  23.2940  0.00  0.00     0.000 O
ATOM      9  HD  BDP B   1      21.353   5.647  22.5300  0.00  0.00     0.000 HD
ATOM      9   O  BDP B   1      20.846   7.001  26.6320  0.00  0.00     0.000 O
ATOM     11  HD  BDP B   1      20.993   6.620  25.8680  0.00  0.00     0.000 HD
ATOM     11   O  BDP B   1      18.863   8.504  23.9830  0.00  0.00     0.000 O
ATOM     13  HD  BDP B   1      19.010   8.124  23.2200  0.00  0.00     0.000 HD
ENDROOT
BRANCH 5 13
ATOM     13   C  BDP B   1      20.688  10.271  26.4550  0.00  0.00     0.000 C
ATOM     14   O  BDP B   1      19.789   9.947  27.2590  0.00  0.00     0.000 OA
ATOM     15   O  BDP B   1      21.604  11.068  26.7520  0.00  0.00     0.000 OA
ENDBRANCH 5 13
BRANCH 1 16
ATOM     16  O3  NAG B   2      22.092   8.668  22.3420  0.00  0.00     0.000 O
BRANCH 16 19
ATOM     17  C1  NAG B   2      22.293  10.449  19.1730  0.00  0.00     0.000 C
ATOM     18  C2  NAG B   2      22.595   9.213  20.0210  0.00  0.00     0.000 C
ATOM     19  C3  NAG B   2      21.520   9.016  21.0800  0.00  0.00     0.000 C
ATOM     20  C4  NAG B   2      20.642  10.260  21.2370  0.00  0.00     0.000 C
ATOM     21  C5  NAG B   2      21.372  11.599  21.0590  0.00  0.00     0.000 C
ATOM     22  O5  NAG B   2      22.407  11.556  20.0700  0.00  0.00     0.000 O
ATOM     23   O  NAG B   2      19.558  10.172  20.3060  0.00  0.00     0.000 O
ATOM     25  HD  NAG B   2      20.045   9.859  19.6620  0.00  0.00     0.000 HD
ATOM     25   C  NAG B   2      21.983  12.063  22.3890  0.00  0.00     0.000 C
ATOM     26   O  NAG B   2      21.032  12.778  23.1900  0.00  0.00     0.000 O
ATOM     28  HD  NAG B   2      21.519  12.465  22.5450  0.00  0.00     0.000 HD
BRANCH 18 30
ATOM     28   N  NAG B   2      22.825   8.404  18.8250  0.00  0.00     0.000 N
ATOM     30  HD  NAG B   2      22.944   8.468  17.9700  0.00  0.00     0.000 HD
ATOM     30   C  NAG B   2      21.924   7.580  18.2700  0.00  0.00     0.000 C
ATOM     31   C  NAG B   2      22.404   6.849  17.0490  0.00  0.00     0.000 C
ATOM     32   O  NAG B   2      20.804   7.430  18.7020  0.00  0.00     0.000 OA
ENDBRANCH 18 30
BRANCH 17 33
ATOM     33  O4  BDP B   3      22.692  11.523  18.2940  0.00  0.00     0.000 O
BRANCH 33 37
ATOM     34  C1  BDP B   3      21.358  12.842  14.4570  0.00  0.00     0.000 C
ATOM     35  C2  BDP B   3      22.567  11.915  14.4940  0.00  0.00     0.000 C
ATOM     36  C3  BDP B   3      22.721  11.163  15.8110  0.00  0.00     0.000 C
ATOM     37  C4  BDP B   3      22.527  12.137  16.9830  0.00  0.00     0.000 C
ATOM     38  C5  BDP B   3      21.144  12.795  16.8070  0.00  0.00     0.000 C
ATOM     39  O5  BDP B   3      21.257  13.626  15.6520  0.00  0.00     0.000 O
ATOM     40   O  BDP B   3      22.427  11.032  13.3790  0.00  0.00     0.000 O
ATOM     42  HD  BDP B   3      22.755  11.729  12.9840  0.00  0.00     0.000 HD
ATOM     42   O  BDP B   3      24.028  10.592  15.8060  0.00  0.00     0.000 O
ATOM     44  HD  BDP B   3      24.355  11.289  15.4110  0.00  0.00     0.000 HD
BRANCH 38 44
ATOM     44   C  BDP B   3      20.694  13.612  17.9770  0.00  0.00     0.000 C
ATOM     45   O  BDP B   3      19.676  13.234  18.5980  0.00  0.00     0.000 OA
ATOM     46   O  BDP B   3      21.335  14.636  18.2990  0.00  0.00     0.000 OA
ENDBRANCH 38 44
BRANCH 34 47
ATOM     47  O3  NAG B   4      21.634  14.053  13.7570  0.00  0.00     0.000 O
BRANCH 47 50
ATOM     48  C1  NAG B   4      19.659  15.135  10.7450  0.00  0.00     0.000 C
ATOM     49  C2  NAG B   4      20.704  14.361  11.5280  0.00  0.00     0.000 C
ATOM     50  C3  NAG B   4      20.605  14.727  13.0050  0.00  0.00     0.000 C
ATOM     51  C4  NAG B   4      20.721  16.228  13.2180  0.00  0.00     0.000 C
ATOM     52  C5  NAG B   4      19.692  16.956  12.3520  0.00  0.00     0.000 C
ATOM     53  O5  NAG B   4      19.812  16.548  10.9840  0.00  0.00     0.000 O
ATOM     54   O  NAG B   4      20.512  16.520  14.6020  0.00  0.00     0.000 O
ATOM     56  HD  NAG B   4      20.851  17.188  14.1680  0.00  0.00     0.000 HD
ATOM     56   C  NAG B   4      19.862  18.468  12.4450  0.00  0.00     0.000 C
ATOM     57   O  NAG B   4      21.176  18.820  11.9930  0.00  0.00     0.000 O
ATOM     59  HD  NAG B   4      21.515  19.488  11.5590  0.00  0.00     0.000 HD
BRANCH 49 61
ATOM     59   N  NAG B   4      20.491  13.057  10.8990  0.00  0.00     0.000 N
ATOM     61  HD  NAG B   4      21.005  13.748  10.8050  0.00  0.00     0.000 HD
ATOM     61   O  NAG B   4      22.669  12.524  10.6310  0.00  0.00     0.000 OA
ATOM     62   C  NAG B   4      21.486  12.224  10.5730  0.00  0.00     0.000 C
ATOM     63   C  NAG B   4      21.067  10.855  10.1400  0.00  0.00     0.000 C
ENDBRANCH 49 61
BRANCH 48 64
ATOM     64  O4  BDP B   5      18.941  14.855   9.5460  0.00  0.00     0.000 O
BRANCH 64 68
ATOM     65  C1  BDP B   5      15.114  13.224   9.2900  0.00  0.00     0.000 C
ATOM     66  C2  BDP B   5      16.151  12.646   8.3360  0.00  0.00     0.000 C
ATOM     67  C3  BDP B   5      17.550  13.006   8.8200  0.00  0.00     0.000 C
ATOM     68  C4  BDP B   5      17.679  14.517   8.9720  0.00  0.00     0.000 C
ATOM     69  C5  BDP B   5      16.576  15.104   9.8430  0.00  0.00     0.000 C
ATOM     70  O5  BDP B   5      15.286  14.646   9.4030  0.00  0.00     0.000 O
ATOM     71   O  BDP B   5      15.973  11.224   8.2360  0.00  0.00     0.000 O
ATOM     73  HD  BDP B   5      15.836  10.369   8.2280  0.00  0.00     0.000 HD
ATOM     73   O  BDP B   5      18.538  12.537   7.8950  0.00  0.00     0.000 O
ATOM     75  HD  BDP B   5      18.400  11.682   7.8870  0.00  0.00     0.000 HD
BRANCH 69 75
ATOM     75   C  BDP B   5      16.639  16.607   9.7380  0.00  0.00     0.000 C
ATOM     76   O  BDP B   5      16.768  17.125   8.6110  0.00  0.00     0.000 OA
ATOM     77   O  BDP B   5      16.558  17.288  10.7770  0.00  0.00     0.000 OA
ENDBRANCH 69 75
BRANCH 65 78
ATOM     78  O3  NAG B   6      13.788  13.639   8.9520  0.00  0.00     0.000 O
BRANCH 78 81
ATOM     79  C1  NAG B   6      10.374  13.688  10.5890  0.00  0.00     0.000 C
ATOM     80  C2  NAG B   6      11.592  13.099   9.8590  0.00  0.00     0.000 C
ATOM     81  C3  NAG B   6      12.703  14.132   9.7680  0.00  0.00     0.000 C
ATOM     82  C4  NAG B   6      12.175  15.452   9.1950  0.00  0.00     0.000 C
ATOM     83  C5  NAG B   6      10.983  15.922  10.0210  0.00  0.00     0.000 C
ATOM     84  O5  NAG B   6       9.978  14.911   9.9430  0.00  0.00     0.000 O
BRANCH 80 87
ATOM     85   N  NAG B   6      12.170  11.939  10.5320  0.00  0.00     0.000 N
ATOM     87  HD  NAG B   6      12.086  11.136  10.8440  0.00  0.00     0.000 HD
ATOM     87   C  NAG B   6      12.353  10.748   9.9480  0.00  0.00     0.000 C
ATOM     88   C  NAG B   6      12.994   9.700  10.8010  0.00  0.00     0.000 C
ATOM     89   O  NAG B   6      12.037  10.517   8.7880  0.00  0.00     0.000 OA
ENDBRANCH 80 87
ATOM     90   O  NAG B   6      10.644  18.261  10.5330  0.00  0.00     0.000 O
ATOM     92  HD  NAG B   6      10.527  17.445  10.7980  0.00  0.00     0.000 HD
ATOM     92   O  NAG B   6      10.644  18.261  10.5330  0.00  0.00     0.000 O
ATOM     94  HD  NAG B   6      10.527  17.445  10.7980  0.00  0.00     0.000 HD
ENDBRANCH 78 81
ENDBRANCH 65 78
ENDBRANCH 64 68
ENDBRANCH 48 64
ENDBRANCH 47 50
ENDBRANCH 34 47
ENDBRANCH 33 37
ENDBRANCH 17 33
ENDBRANCH 16 19
ENDBRANCH 1 16
TORSDOF 16
ENDMDL
MODEL 26
REMARK VINA RESULT:      -7.1      5.624     16.855
ROOT
ATOM      1  C1  BDP B   1      19.763   8.507  32.1870  0.00  0.00     0.000 C
ATOM      2  C2  BDP B   1      18.953   8.297  33.4540  0.00  0.00     0.000 C
ATOM      3  C3  BDP B   1      19.572   8.993  34.6470  0.00  0.00     0.000 C
ATOM      4  C4  BDP B   1      20.637  10.021  34.2830  0.00  0.00     0.000 C
ATOM      5  C5  BDP B   1      21.637   9.498  33.2560  0.00  0.00     0.000 C
ATOM      6  O5  BDP B   1      21.130   8.359  32.5390  0.00  0.00     0.000 O
ATOM      7   O  BDP B   1      17.616   8.771  33.2610  0.00  0.00     0.000 O
ATOM      9  HD  BDP B   1      16.897   8.842  32.7840  0.00  0.00     0.000 HD
ATOM      9   O  BDP B   1      20.179   8.026  35.5180  0.00  0.00     0.000 O
ATOM     11  HD  BDP B   1      19.460   8.097  35.0410  0.00  0.00     0.000 HD
ATOM     11   O  BDP B   1      20.027  11.222  33.7950  0.00  0.00     0.000 O
ATOM     13  HD  BDP B   1      19.307  11.293  33.3180  0.00  0.00     0.000 HD
ENDROOT
BRANCH 5 13
ATOM     13   C  BDP B   1      22.871   9.117  33.9960  0.00  0.00     0.000 C
ATOM     14   O  BDP B   1      22.896   9.295  35.2320  0.00  0.00     0.000 OA
ATOM     15   O  BDP B   1      23.825   8.612  33.3680  0.00  0.00     0.000 OA
ENDBRANCH 5 13
BRANCH 1 16
ATOM     16  O3  NAG B   2      19.394   9.084  30.9360  0.00  0.00     0.000 O
BRANCH 16 19
ATOM     17  C1  NAG B   2      19.849  10.207  27.5030  0.00  0.00     0.000 C
ATOM     18  C2  NAG B   2      18.957   9.630  28.6020  0.00  0.00     0.000 C
ATOM     19  C3  NAG B   2      19.397  10.135  29.9680  0.00  0.00     0.000 C
ATOM     20  C4  NAG B   2      20.784  10.783  29.9140  0.00  0.00     0.000 C
ATOM     21  C5  NAG B   2      21.768  10.134  28.9310  0.00  0.00     0.000 C
ATOM     22  O5  NAG B   2      21.143   9.647  27.7380  0.00  0.00     0.000 O
ATOM     23   O  NAG B   2      20.625  12.170  29.5970  0.00  0.00     0.000 O
ATOM     25  HD  NAG B   2      20.002  12.036  29.0100  0.00  0.00     0.000 HD
ATOM     25   C  NAG B   2      22.516   8.973  29.6020  0.00  0.00     0.000 C
ATOM     26   O  NAG B   2      23.665   9.430  30.3280  0.00  0.00     0.000 O
ATOM     28  HD  NAG B   2      23.043   9.297  29.7410  0.00  0.00     0.000 HD
BRANCH 18 30
ATOM     28   N  NAG B   2      18.290  10.731  27.9070  0.00  0.00     0.000 N
ATOM     30  HD  NAG B   2      18.282  11.595  27.8450  0.00  0.00     0.000 HD
ATOM     30   C  NAG B   2      17.014  11.096  28.0940  0.00  0.00     0.000 C
ATOM     31   C  NAG B   2      16.558  12.253  27.2510  0.00  0.00     0.000 C
ATOM     32   O  NAG B   2      16.274  10.552  28.8800  0.00  0.00     0.000 OA
ENDBRANCH 18 30
BRANCH 17 33
ATOM     33  O4  BDP B   3      20.423  10.179  26.1780  0.00  0.00     0.000 O
BRANCH 33 37
ATOM     34  C1  BDP B   3      21.367   8.713  22.2790  0.00  0.00     0.000 C
ATOM     35  C2  BDP B   3      19.903   8.677  22.7010  0.00  0.00     0.000 C
ATOM     36  C3  BDP B   3      19.588   9.580  23.8880  0.00  0.00     0.000 C
ATOM     37  C4  BDP B   3      20.655   9.386  24.9770  0.00  0.00     0.000 C
ATOM     38  C5  BDP B   3      22.024   9.673  24.3320  0.00  0.00     0.000 C
ATOM     39  O5  BDP B   3      22.245   8.609  23.4060  0.00  0.00     0.000 O
ATOM     40   O  BDP B   3      19.144   9.024  21.5410  0.00  0.00     0.000 O
ATOM     42  HD  BDP B   3      19.299   8.187  21.3800  0.00  0.00     0.000 HD
ATOM     42   O  BDP B   3      18.288   9.214  24.3480  0.00  0.00     0.000 O
ATOM     44  HD  BDP B   3      18.443   8.377  24.1870  0.00  0.00     0.000 HD
BRANCH 38 44
ATOM     44   C  BDP B   3      23.162   9.745  25.3020  0.00  0.00     0.000 C
ATOM     45   O  BDP B   3      23.620   8.671  25.7480  0.00  0.00     0.000 OA
ATOM     46   O  BDP B   3      23.618  10.860  25.6370  0.00  0.00     0.000 OA
ENDBRANCH 38 44
BRANCH 34 47
ATOM     47  O3  NAG B   4      21.837   7.429  21.8720  0.00  0.00     0.000 O
BRANCH 47 50
ATOM     48  C1  NAG B   4      23.740   7.065  18.6470  0.00  0.00     0.000 C
ATOM     49  C2  NAG B   4      22.532   7.274  19.5430  0.00  0.00     0.000 C
ATOM     50  C3  NAG B   4      22.979   7.299  21.0000  0.00  0.00     0.000 C
ATOM     51  C4  NAG B   4      23.757   6.045  21.3670  0.00  0.00     0.000 C
ATOM     52  C5  NAG B   4      24.917   5.849  20.3910  0.00  0.00     0.000 C
ATOM     53  O5  NAG B   4      24.441   5.869  19.0390  0.00  0.00     0.000 O
ATOM     54   O  NAG B   4      24.241   6.173  22.7070  0.00  0.00     0.000 O
ATOM     56  HD  NAG B   4      24.297   5.362  22.4080  0.00  0.00     0.000 HD
ATOM     56   C  NAG B   4      25.644   4.535  20.6510  0.00  0.00     0.000 C
ATOM     57   O  NAG B   4      24.721   3.450  20.4940  0.00  0.00     0.000 O
ATOM     59  HD  NAG B   4      24.776   2.639  20.1960  0.00  0.00     0.000 HD
BRANCH 49 61
ATOM     59   N  NAG B   4      21.871   8.422  18.9210  0.00  0.00     0.000 N
ATOM     61  HD  NAG B   4      21.862   7.558  18.8640  0.00  0.00     0.000 HD
ATOM     61   O  NAG B   4      19.790   7.547  18.8750  0.00  0.00     0.000 OA
ATOM     62   C  NAG B   4      20.551   8.488  18.7080  0.00  0.00     0.000 C
ATOM     63   C  NAG B   4      20.033   9.819  18.2630  0.00  0.00     0.000 C
ENDBRANCH 49 61
BRANCH 48 64
ATOM     64  O4  BDP B   5      24.039   7.465  17.3130  0.00  0.00     0.000 O
BRANCH 64 68
ATOM     65  C1  BDP B   5      24.268   7.857  13.1700  0.00  0.00     0.000 C
ATOM     66  C2  BDP B   5      23.411   8.889  13.8910  0.00  0.00     0.000 C
ATOM     67  C3  BDP B   5      23.757   8.896  15.3750  0.00  0.00     0.000 C
ATOM     68  C4  BDP B   5      23.595   7.496  15.9580  0.00  0.00     0.000 C
ATOM     69  C5  BDP B   5      24.372   6.451  15.1680  0.00  0.00     0.000 C
ATOM     70  O5  BDP B   5      24.084   6.562  13.7630  0.00  0.00     0.000 O
ATOM     71   O  BDP B   5      23.606  10.180  13.2950  0.00  0.00     0.000 O
ATOM     73  HD  BDP B   5      23.776  10.938  12.9120  0.00  0.00     0.000 HD
ATOM     73   O  BDP B   5      22.907   9.804  16.0850  0.00  0.00     0.000 O
ATOM     75  HD  BDP B   5      23.077  10.562  15.7020  0.00  0.00     0.000 HD
BRANCH 69 75
ATOM     75   C  BDP B   5      23.964   5.086  15.6590  0.00  0.00     0.000 C
ATOM     76   O  BDP B   5      24.846   4.312  16.0810  0.00  0.00     0.000 OA
ATOM     77   O  BDP B   5      22.760   4.771  15.6340  0.00  0.00     0.000 OA
ENDBRANCH 69 75
BRANCH 65 78
ATOM     78  O3  NAG B   6      23.905   7.122  11.9980  0.00  0.00     0.000 O
BRANCH 78 81
ATOM     79  C1  NAG B   6      25.360   6.555   8.5490  0.00  0.00     0.000 C
ATOM     80  C2  NAG B   6      24.639   7.303   9.6820  0.00  0.00     0.000 C
ATOM     81  C3  NAG B   6      24.709   6.502  10.9710  0.00  0.00     0.000 C
ATOM     82  C4  NAG B   6      24.245   5.060  10.7440  0.00  0.00     0.000 C
ATOM     83  C5  NAG B   6      25.052   4.441   9.6080  0.00  0.00     0.000 C
ATOM     84  O5  NAG B   6      24.821   5.226   8.4370  0.00  0.00     0.000 O
BRANCH 80 87
ATOM     85   N  NAG B   6      24.072   8.625   9.4260  0.00  0.00     0.000 N
ATOM     87  HD  NAG B   6      23.654   9.328   9.7110  0.00  0.00     0.000 HD
ATOM     87   C  NAG B   6      24.531   9.755   9.9770  0.00  0.00     0.000 C
ATOM     88   C  NAG B   6      23.834  11.011   9.5580  0.00  0.00     0.000 C
ATOM     89   O  NAG B   6      25.470   9.783  10.7640  0.00  0.00     0.000 OA
ENDBRANCH 80 87
ATOM     90   O  NAG B   6      25.778   2.136   9.6810  0.00  0.00     0.000 O
ATOM     92  HD  NAG B   6      25.953   2.933   9.3940  0.00  0.00     0.000 HD
ATOM     92   O  NAG B   6      25.778   2.136   9.6810  0.00  0.00     0.000 O
ATOM     94  HD  NAG B   6      25.953   2.933   9.3940  0.00  0.00     0.000 HD
ENDBRANCH 78 81
ENDBRANCH 65 78
ENDBRANCH 64 68
ENDBRANCH 48 64
ENDBRANCH 47 50
ENDBRANCH 34 47
ENDBRANCH 33 37
ENDBRANCH 17 33
ENDBRANCH 16 19
ENDBRANCH 1 16
TORSDOF 16
ENDMDL
MODEL 27
REMARK VINA RESULT:      -7.0      9.032     17.085
ROOT
ATOM      1  C1  BDP B   1      13.040   9.261  33.2330  0.00  0.00     0.000 C
ATOM      2  C2  BDP B   1      12.773   9.611  31.7800  0.00  0.00     0.000 C
ATOM      3  C3  BDP B   1      12.794   8.389  30.8860  0.00  0.00     0.000 C
ATOM      4  C4  BDP B   1      12.719   7.066  31.6400  0.00  0.00     0.000 C
ATOM      5  C5  BDP B   1      13.675   7.009  32.8280  0.00  0.00     0.000 C
ATOM      6  O5  BDP B   1      14.102   8.317  33.2440  0.00  0.00     0.000 O
ATOM      7   O  BDP B   1      11.508  10.271  31.6630  0.00  0.00     0.000 O
ATOM      9  HD  BDP B   1      10.927  10.852  31.9350  0.00  0.00     0.000 HD
ATOM      9   O  BDP B   1      13.997   8.376  30.1010  0.00  0.00     0.000 O
ATOM     11  HD  BDP B   1      13.415   8.957  30.3740  0.00  0.00     0.000 HD
ATOM     11   O  BDP B   1      11.379   6.820  32.0850  0.00  0.00     0.000 O
ATOM     13  HD  BDP B   1      10.798   7.401  32.3580  0.00  0.00     0.000 HD
ENDROOT
BRANCH 5 13
ATOM     13   C  BDP B   1      14.855   6.207  32.4050  0.00  0.00     0.000 C
ATOM     14   O  BDP B   1      15.982   6.556  32.8130  0.00  0.00     0.000 OA
ATOM     15   O  BDP B   1      14.680   5.201  31.6830  0.00  0.00     0.000 OA
ENDBRANCH 5 13
BRANCH 1 16
ATOM     16  O3  NAG B   2      12.247   9.475  34.3990  0.00  0.00     0.000 O
BRANCH 16 19
ATOM     17  C1  NAG B   2      11.513   9.712  37.9570  0.00  0.00     0.000 C
ATOM     18  C2  NAG B   2      11.265  10.167  36.5180  0.00  0.00     0.000 C
ATOM     19  C3  NAG B   2      11.522   9.026  35.5450  0.00  0.00     0.000 C
ATOM     20  C4  NAG B   2      12.272   7.870  36.2110  0.00  0.00     0.000 C
ATOM     21  C5  NAG B   2      13.306   8.286  37.2660  0.00  0.00     0.000 C
ATOM     22  O5  NAG B   2      12.913   9.435  38.0260  0.00  0.00     0.000 O
ATOM     23   O  NAG B   2      11.313   6.983  36.7960  0.00  0.00     0.000 O
ATOM     25  HD  NAG B   2      10.803   7.617  37.0930  0.00  0.00     0.000 HD
ATOM     25   C  NAG B   2      14.664   8.574  36.6090  0.00  0.00     0.000 C
ATOM     26   O  NAG B   2      15.436   7.377  36.4400  0.00  0.00     0.000 O
ATOM     28  HD  NAG B   2      14.926   8.011  36.7370  0.00  0.00     0.000 HD
BRANCH 18 30
ATOM     28   N  NAG B   2      10.007  10.066  37.2580  0.00  0.00     0.000 N
ATOM     30  HD  NAG B   2       9.515   9.503  37.6930  0.00  0.00     0.000 HD
ATOM     30   C  NAG B   2       8.786  10.155  36.7120  0.00  0.00     0.000 C
ATOM     31   C  NAG B   2       7.648  10.029  37.6850  0.00  0.00     0.000 C
ATOM     32   O  NAG B   2       8.595  10.317  35.5290  0.00  0.00     0.000 OA
ENDBRANCH 18 30
BRANCH 17 33
ATOM     33  O4  BDP B   3      11.815   9.974  39.3450  0.00  0.00     0.000 O
BRANCH 33 37
ATOM     34  C1  BDP B   3      12.702   8.632  43.3010  0.00  0.00     0.000 C
ATOM     35  C2  BDP B   3      13.385   9.910  42.8290  0.00  0.00     0.000 C
ATOM     36  C3  BDP B   3      12.718  10.546  41.6140  0.00  0.00     0.000 C
ATOM     37  C4  BDP B   3      12.420   9.462  40.5680  0.00  0.00     0.000 C
ATOM     38  C5  BDP B   3      11.554   8.389  41.2540  0.00  0.00     0.000 C
ATOM     39  O5  BDP B   3      12.407   7.756  42.2070  0.00  0.00     0.000 O
ATOM     40   O  BDP B   3      13.410  10.790  43.9550  0.00  0.00     0.000 O
ATOM     42  HD  BDP B   3      14.090  10.286  44.1370  0.00  0.00     0.000 HD
ATOM     42   O  BDP B   3      13.625  11.530  41.1170  0.00  0.00     0.000 O
ATOM     44  HD  BDP B   3      14.305  11.026  41.3000  0.00  0.00     0.000 HD
BRANCH 38 44
ATOM     44   C  BDP B   3      10.985   7.364  40.3230  0.00  0.00     0.000 C
ATOM     45   O  BDP B   3       9.769   7.439  40.0430  0.00  0.00     0.000 OA
ATOM     46   O  BDP B   3      11.727   6.472  39.8580  0.00  0.00     0.000 OA
ENDBRANCH 38 44
BRANCH 34 47
ATOM     47  O3  NAG B   4      13.643   7.658  43.7490  0.00  0.00     0.000 O
BRANCH 47 50
ATOM     48  C1  NAG B   4      12.649   5.769  46.8450  0.00  0.00     0.000 C
ATOM     49  C2  NAG B   4      13.019   6.975  46.0010  0.00  0.00     0.000 C
ATOM     50  C3  NAG B   4      13.225   6.538  44.5550  0.00  0.00     0.000 C
ATOM     51  C4  NAG B   4      14.254   5.424  44.4490  0.00  0.00     0.000 C
ATOM     52  C5  NAG B   4      13.865   4.268  45.3720  0.00  0.00     0.000 C
ATOM     53  O5  NAG B   4      13.653   4.745  46.7070  0.00  0.00     0.000 O
ATOM     54   O  NAG B   4      14.324   4.983  43.0900  0.00  0.00     0.000 O
ATOM     56  HD  NAG B   4      14.987   4.697  43.5690  0.00  0.00     0.000 HD
ATOM     56   C  NAG B   4      14.939   3.186  45.3860  0.00  0.00     0.000 C
ATOM     57   O  NAG B   4      16.170   3.755  45.8520  0.00  0.00     0.000 O
ATOM     59  HD  NAG B   4      16.833   3.469  46.3300  0.00  0.00     0.000 HD
BRANCH 49 61
ATOM     59   N  NAG B   4      12.029   7.888  46.5740  0.00  0.00     0.000 N
ATOM     61  HD  NAG B   4      12.863   7.681  46.6850  0.00  0.00     0.000 HD
ATOM     61   O  NAG B   4      13.387   9.685  46.7510  0.00  0.00     0.000 OA
ATOM     62   C  NAG B   4      12.277   9.178  46.8300  0.00  0.00     0.000 C
ATOM     63   C  NAG B   4      11.088  10.002  47.2100  0.00  0.00     0.000 C
ENDBRANCH 49 61
BRANCH 48 64
ATOM     64  O4  BDP B   5      11.867   5.615  48.0260  0.00  0.00     0.000 O
BRANCH 64 68
ATOM     65  C1  BDP B   5       9.081   4.558  50.9410  0.00  0.00     0.000 C
ATOM     66  C2  BDP B   5      10.346   3.711  50.8880  0.00  0.00     0.000 C
ATOM     67  C3  BDP B   5      11.425   4.449  50.1070  0.00  0.00     0.000 C
ATOM     68  C4  BDP B   5      10.911   4.812  48.7180  0.00  0.00     0.000 C
ATOM     69  C5  BDP B   5       9.590   5.569  48.7740  0.00  0.00     0.000 C
ATOM     70  O5  BDP B   5       8.646   4.878  49.6110  0.00  0.00     0.000 O
ATOM     71   O  BDP B   5      10.775   3.402  52.2230  0.00  0.00     0.000 O
ATOM     73  HD  BDP B   5      11.001   3.262  53.0480  0.00  0.00     0.000 HD
ATOM     73   O  BDP B   5      12.598   3.636  49.9790  0.00  0.00     0.000 O
ATOM     75  HD  BDP B   5      12.823   3.496  50.8030  0.00  0.00     0.000 HD
BRANCH 69 75
ATOM     75   C  BDP B   5       9.043   5.670  47.3730  0.00  0.00     0.000 C
ATOM     76   O  BDP B   5       9.169   6.747  46.7560  0.00  0.00     0.000 OA
ATOM     77   O  BDP B   5       8.484   4.678  46.8710  0.00  0.00     0.000 OA
ENDBRANCH 69 75
BRANCH 65 78
ATOM     78  O3  NAG B   6       7.738   4.074  51.0210  0.00  0.00     0.000 O
BRANCH 78 81
ATOM     79  C1  NAG B   6       4.215   4.565  52.3160  0.00  0.00     0.000 C
ATOM     80  C2  NAG B   6       5.600   3.915  52.1800  0.00  0.00     0.000 C
ATOM     81  C3  NAG B   6       6.490   4.755  51.2770  0.00  0.00     0.000 C
ATOM     82  C4  NAG B   6       5.784   5.069  49.9540  0.00  0.00     0.000 C
ATOM     83  C5  NAG B   6       4.435   5.719  50.2410  0.00  0.00     0.000 C
ATOM     84  O5  NAG B   6       3.663   4.793  51.0070  0.00  0.00     0.000 O
BRANCH 80 87
ATOM     85   N  NAG B   6       6.000   2.679  52.8480  0.00  0.00     0.000 N
ATOM     87  HD  NAG B   6       6.619   2.117  53.0740  0.00  0.00     0.000 HD
ATOM     87   C  NAG B   6       6.793   2.634  53.9260  0.00  0.00     0.000 C
ATOM     88   C  NAG B   6       7.054   1.270  54.4810  0.00  0.00     0.000 C
ATOM     89   O  NAG B   6       7.270   3.634  54.4470  0.00  0.00     0.000 OA
ENDBRANCH 80 87
ATOM     90   O  NAG B   6       3.587   7.526  48.8770  0.00  0.00     0.000 O
ATOM     92  HD  NAG B   6       3.602   7.170  49.6660  0.00  0.00     0.000 HD
ATOM     92   O  NAG B   6       3.587   7.526  48.8770  0.00  0.00     0.000 O
ATOM     94  HD  NAG B   6       3.602   7.170  49.6660  0.00  0.00     0.000 HD
ENDBRANCH 78 81
ENDBRANCH 65 78
ENDBRANCH 64 68
ENDBRANCH 48 64
ENDBRANCH 47 50
ENDBRANCH 34 47
ENDBRANCH 33 37
ENDBRANCH 17 33
ENDBRANCH 16 19
ENDBRANCH 1 16
TORSDOF 16
ENDMDL
MODEL 28
REMARK VINA RESULT:      -7.0      4.189     15.726
ROOT
ATOM      1  C1  BDP B   1      14.545   9.031  31.0000  0.00  0.00     0.000 C
ATOM      2  C2  BDP B   1      13.029   8.964  30.9480  0.00  0.00     0.000 C
ATOM      3  C3  BDP B   1      12.459   8.090  32.0450  0.00  0.00     0.000 C
ATOM      4  C4  BDP B   1      13.451   7.761  33.1550  0.00  0.00     0.000 C
ATOM      5  C5  BDP B   1      14.809   7.316  32.6210  0.00  0.00     0.000 C
ATOM      6  O5  BDP B   1      15.010   7.714  31.2540  0.00  0.00     0.000 O
ATOM      7   O  BDP B   1      12.480  10.282  31.0500  0.00  0.00     0.000 O
ATOM      9  HD  BDP B   1      12.474  11.121  30.8360  0.00  0.00     0.000 HD
ATOM      9   O  BDP B   1      11.996   6.848  31.4920  0.00  0.00     0.000 O
ATOM     11  HD  BDP B   1      11.991   7.688  31.2780  0.00  0.00     0.000 HD
ATOM     11   O  BDP B   1      13.619   8.886  34.0260  0.00  0.00     0.000 O
ATOM     13  HD  BDP B   1      13.613   9.726  33.8120  0.00  0.00     0.000 HD
ENDROOT
BRANCH 5 13
ATOM     13   C  BDP B   1      14.859   5.832  32.7250  0.00  0.00     0.000 C
ATOM     14   O  BDP B   1      15.020   5.325  33.8550  0.00  0.00     0.000 OA
ATOM     15   O  BDP B   1      14.714   5.145  31.6910  0.00  0.00     0.000 OA
ENDBRANCH 5 13
BRANCH 1 16
ATOM     16  O3  NAG B   2      15.419  10.149  31.1420  0.00  0.00     0.000 O
BRANCH 16 19
ATOM     17  C1  NAG B   2      18.277  10.975  29.0430  0.00  0.00     0.000 C
ATOM     18  C2  NAG B   2      16.770  10.781  29.2160  0.00  0.00     0.000 C
ATOM     19  C3  NAG B   2      16.347  11.112  30.6390  0.00  0.00     0.000 C
ATOM     20  C4  NAG B   2      17.551  11.209  31.5800  0.00  0.00     0.000 C
ATOM     21  C5  NAG B   2      18.695  10.230  31.2790  0.00  0.00     0.000 C
ATOM     22  O5  NAG B   2      18.880   9.986  29.8800  0.00  0.00     0.000 O
ATOM     23   O  NAG B   2      18.043  12.553  31.5520  0.00  0.00     0.000 O
ATOM     25  HD  NAG B   2      17.941  12.646  30.6970  0.00  0.00     0.000 HD
ATOM     25   C  NAG B   2      18.458   8.887  31.9840  0.00  0.00     0.000 C
ATOM     26   O  NAG B   2      18.936   8.906  33.3360  0.00  0.00     0.000 O
ATOM     28  HD  NAG B   2      18.835   8.999  32.4810  0.00  0.00     0.000 HD
BRANCH 18 30
ATOM     28   N  NAG B   2      17.064  12.028  28.5120  0.00  0.00     0.000 N
ATOM     30  HD  NAG B   2      17.361  12.832  28.6400  0.00  0.00     0.000 HD
ATOM     30   C  NAG B   2      16.143  12.845  27.9800  0.00  0.00     0.000 C
ATOM     31   C  NAG B   2      16.698  14.063  27.2970  0.00  0.00     0.000 C
ATOM     32   O  NAG B   2      14.954  12.637  28.0410  0.00  0.00     0.000 OA
ENDBRANCH 18 30
BRANCH 17 33
ATOM     33  O4  BDP B   3      19.529  10.719  28.3700  0.00  0.00     0.000 O
BRANCH 33 37
ATOM     34  C1  BDP B   3      20.722  10.177  24.3050  0.00  0.00     0.000 C
ATOM     35  C2  BDP B   3      20.167   8.960  25.0360  0.00  0.00     0.000 C
ATOM     36  C3  BDP B   3      19.386   9.310  26.2980  0.00  0.00     0.000 C
ATOM     37  C4  BDP B   3      20.173  10.344  27.1180  0.00  0.00     0.000 C
ATOM     38  C5  BDP B   3      20.434  11.553  26.2000  0.00  0.00     0.000 C
ATOM     39  O5  BDP B   3      21.351  11.094  25.2070  0.00  0.00     0.000 O
ATOM     40   O  BDP B   3      19.369   8.252  24.0860  0.00  0.00     0.000 O
ATOM     42  HD  BDP B   3      20.159   7.975  23.8620  0.00  0.00     0.000 HD
ATOM     42   O  BDP B   3      19.202   8.092  27.0170  0.00  0.00     0.000 O
ATOM     44  HD  BDP B   3      19.991   7.815  26.7930  0.00  0.00     0.000 HD
BRANCH 38 44
ATOM     44   C  BDP B   3      21.000  12.750  26.8980  0.00  0.00     0.000 C
ATOM     45   O  BDP B   3      22.241  12.814  27.0380  0.00  0.00     0.000 OA
ATOM     46   O  BDP B   3      20.230  13.641  27.3190  0.00  0.00     0.000 OA
ENDBRANCH 38 44
BRANCH 34 47
ATOM     47  O3  NAG B   4      22.014   9.926  23.7550  0.00  0.00     0.000 O
BRANCH 47 50
ATOM     48  C1  NAG B   4      22.586  10.526  20.0860  0.00  0.00     0.000 C
ATOM     49  C2  NAG B   4      22.047   9.828  21.3220  0.00  0.00     0.000 C
ATOM     50  C3  NAG B   4      22.459  10.609  22.5650  0.00  0.00     0.000 C
ATOM     51  C4  NAG B   4      23.965  10.807  22.6280  0.00  0.00     0.000 C
ATOM     52  C5  NAG B   4      24.459  11.447  21.3300  0.00  0.00     0.000 C
ATOM     53  O5  NAG B   4      24.014  10.690  20.1980  0.00  0.00     0.000 O
ATOM     54   O  NAG B   4      24.280  11.634  23.7510  0.00  0.00     0.000 O
ATOM     56  HD  NAG B   4      24.977  11.237  23.4230  0.00  0.00     0.000 HD
ATOM     56   C  NAG B   4      25.980  11.547  21.3050  0.00  0.00     0.000 C
ATOM     57   O  NAG B   4      26.536  10.230  21.4100  0.00  0.00     0.000 O
ATOM     59  HD  NAG B   4      27.233   9.833  21.0830  0.00  0.00     0.000 HD
BRANCH 49 61
ATOM     59   N  NAG B   4      20.727   9.540  20.7600  0.00  0.00     0.000 N
ATOM     61  HD  NAG B   4      21.490   9.143  20.8630  0.00  0.00     0.000 HD
ATOM     61   O  NAG B   4      20.546   7.434  21.5590  0.00  0.00     0.000 OA
ATOM     62   C  NAG B   4      20.062   8.401  20.9870  0.00  0.00     0.000 C
ATOM     63   C  NAG B   4      18.644   8.373  20.5100  0.00  0.00     0.000 C
ENDBRANCH 49 61
BRANCH 48 64
ATOM     64  O4  BDP B   5      22.128  10.605  18.7400  0.00  0.00     0.000 O
BRANCH 64 68
ATOM     65  C1  BDP B   5      23.952   9.187  15.2710  0.00  0.00     0.000 C
ATOM     66  C2  BDP B   5      23.137  10.464  15.1210  0.00  0.00     0.000 C
ATOM     67  C3  BDP B   5      22.903  11.086  16.4920  0.00  0.00     0.000 C
ATOM     68  C4  BDP B   5      22.235  10.076  17.4190  0.00  0.00     0.000 C
ATOM     69  C5  BDP B   5      23.000   8.761  17.4820  0.00  0.00     0.000 C
ATOM     70  O5  BDP B   5      23.284   8.276  16.1580  0.00  0.00     0.000 O
ATOM     71   O  BDP B   5      23.818  11.369  14.2380  0.00  0.00     0.000 O
ATOM     73  HD  BDP B   5      24.278  11.884  13.7150  0.00  0.00     0.000 HD
ATOM     73   O  BDP B   5      22.072  12.248  16.3820  0.00  0.00     0.000 O
ATOM     75  HD  BDP B   5      22.533  12.763  15.8590  0.00  0.00     0.000 HD
BRANCH 69 75
ATOM     75   C  BDP B   5      22.151   7.754  18.2150  0.00  0.00     0.000 C
ATOM     76   O  BDP B   5      22.709   6.943  18.9810  0.00  0.00     0.000 OA
ATOM     77   O  BDP B   5      20.918   7.762  18.0400  0.00  0.00     0.000 OA
ENDBRANCH 69 75
BRANCH 65 78
ATOM     78  O3  NAG B   6      23.897   8.040  14.4180  0.00  0.00     0.000 O
BRANCH 78 81
ATOM     79  C1  NAG B   6      26.538   5.888  12.7660  0.00  0.00     0.000 C
ATOM     80  C2  NAG B   6      25.692   7.143  13.0350  0.00  0.00     0.000 C
ATOM     81  C3  NAG B   6      24.804   6.928  14.2500  0.00  0.00     0.000 C
ATOM     82  C4  NAG B   6      24.012   5.622  14.1240  0.00  0.00     0.000 C
ATOM     83  C5  NAG B   6      24.976   4.468  13.8730  0.00  0.00     0.000 C
ATOM     84  O5  NAG B   6      25.674   4.743  12.6580  0.00  0.00     0.000 O
BRANCH 80 87
ATOM     85   N  NAG B   6      26.635   8.255  13.1100  0.00  0.00     0.000 N
ATOM     87  HD  NAG B   6      27.149   8.828  12.7140  0.00  0.00     0.000 HD
ATOM     87   C  NAG B   6      26.383   9.484  12.6430  0.00  0.00     0.000 C
ATOM     88   C  NAG B   6      27.468  10.492  12.8490  0.00  0.00     0.000 C
ATOM     89   O  NAG B   6      25.330   9.787  12.0940  0.00  0.00     0.000 OA
ENDBRANCH 80 87
ATOM     90   O  NAG B   6      24.640   2.298  14.8860  0.00  0.00     0.000 O
ATOM     92  HD  NAG B   6      25.220   2.868  14.5900  0.00  0.00     0.000 HD
ATOM     92   O  NAG B   6      24.640   2.298  14.8860  0.00  0.00     0.000 O
ATOM     94  HD  NAG B   6      25.220   2.868  14.5900  0.00  0.00     0.000 HD
ENDBRANCH 78 81
ENDBRANCH 65 78
ENDBRANCH 64 68
ENDBRANCH 48 64
ENDBRANCH 47 50
ENDBRANCH 34 47
ENDBRANCH 33 37
ENDBRANCH 17 33
ENDBRANCH 16 19
ENDBRANCH 1 16
TORSDOF 16
ENDMDL
MODEL 29
REMARK VINA RESULT:      -7.0      6.721     19.336
ROOT
ATOM      1  C1  BDP B   1       9.225   6.315  48.6350  0.00  0.00     0.000 C
ATOM      2  C2  BDP B   1       8.344   5.126  48.2960  0.00  0.00     0.000 C
ATOM      3  C3  BDP B   1       6.881   5.403  48.5690  0.00  0.00     0.000 C
ATOM      4  C4  BDP B   1       6.556   6.878  48.7750  0.00  0.00     0.000 C
ATOM      5  C5  BDP B   1       7.529   7.570  49.7250  0.00  0.00     0.000 C
ATOM      6  O5  BDP B   1       8.758   6.838  49.8700  0.00  0.00     0.000 O
ATOM      7   O  BDP B   1       8.518   4.768  46.9200  0.00  0.00     0.000 O
ATOM      9  HD  BDP B   1       9.021   4.623  46.2310  0.00  0.00     0.000 HD
ATOM      9   O  BDP B   1       6.460   4.695  49.7450  0.00  0.00     0.000 O
ATOM     11  HD  BDP B   1       6.963   4.550  49.0560  0.00  0.00     0.000 HD
ATOM     11   O  BDP B   1       6.538   7.566  47.5180  0.00  0.00     0.000 O
ATOM     13  HD  BDP B   1       7.041   7.421  46.8280  0.00  0.00     0.000 HD
ENDROOT
BRANCH 5 13
ATOM     13   C  BDP B   1       6.851   7.679  51.0460  0.00  0.00     0.000 C
ATOM     14   O  BDP B   1       6.138   8.681  51.2610  0.00  0.00     0.000 OA
ATOM     15   O  BDP B   1       6.994   6.761  51.8810  0.00  0.00     0.000 OA
ENDBRANCH 5 13
BRANCH 1 16
ATOM     16  O3  NAG B   2      10.117   7.071  47.8190  0.00  0.00     0.000 O
BRANCH 16 19
ATOM     17  C1  NAG B   2      10.593   8.556  44.5290  0.00  0.00     0.000 C
ATOM     18  C2  NAG B   2       9.679   8.189  45.6990  0.00  0.00     0.000 C
ATOM     19  C3  NAG B   2      10.457   8.196  47.0070  0.00  0.00     0.000 C
ATOM     20  C4  NAG B   2      11.969   8.224  46.7680  0.00  0.00     0.000 C
ATOM     21  C5  NAG B   2      12.450   7.436  45.5420  0.00  0.00     0.000 C
ATOM     22  O5  NAG B   2      11.536   7.485  44.4390  0.00  0.00     0.000 O
ATOM     23   O  NAG B   2      12.387   9.588  46.6620  0.00  0.00     0.000 O
ATOM     25  HD  NAG B   2      11.702   9.836  46.1940  0.00  0.00     0.000 HD
ATOM     25   C  NAG B   2      12.698   5.965  45.9070  0.00  0.00     0.000 C
ATOM     26   O  NAG B   2      14.011   5.767  46.4500  0.00  0.00     0.000 O
ATOM     28  HD  NAG B   2      13.326   6.014  45.9810  0.00  0.00     0.000 HD
BRANCH 18 30
ATOM     28   N  NAG B   2       9.374   9.526  45.1920  0.00  0.00     0.000 N
ATOM     30  HD  NAG B   2       9.722  10.312  45.0850  0.00  0.00     0.000 HD
ATOM     30   C  NAG B   2       8.514  10.384  45.7590  0.00  0.00     0.000 C
ATOM     31   C  NAG B   2       8.364  11.695  45.0410  0.00  0.00     0.000 C
ATOM     32   O  NAG B   2       7.902  10.141  46.7730  0.00  0.00     0.000 OA
ENDBRANCH 18 30
BRANCH 17 33
ATOM     33  O4  BDP B   3      10.933   8.555  43.1250  0.00  0.00     0.000 O
BRANCH 33 37
ATOM     34  C1  BDP B   3      10.952   7.232  39.0640  0.00  0.00     0.000 C
ATOM     35  C2  BDP B   3       9.664   7.036  39.8550  0.00  0.00     0.000 C
ATOM     36  C3  BDP B   3       9.585   7.889  41.1150  0.00  0.00     0.000 C
ATOM     37  C4  BDP B   3      10.916   7.801  41.8770  0.00  0.00     0.000 C
ATOM     38  C5  BDP B   3      12.029   8.239  40.9060  0.00  0.00     0.000 C
ATOM     39  O5  BDP B   3      12.103   7.213  39.9160  0.00  0.00     0.000 O
ATOM     40   O  BDP B   3       8.593   7.309  38.9490  0.00  0.00     0.000 O
ATOM     42  HD  BDP B   3       8.784   6.495  38.7220  0.00  0.00     0.000 HD
ATOM     42   O  BDP B   3       8.498   7.382  41.8870  0.00  0.00     0.000 O
ATOM     44  HD  BDP B   3       8.688   6.568  41.6600  0.00  0.00     0.000 HD
BRANCH 38 44
ATOM     44   C  BDP B   3      13.371   8.425  41.5440  0.00  0.00     0.000 C
ATOM     45   O  BDP B   3      13.841   9.583  41.5900  0.00  0.00     0.000 OA
ATOM     46   O  BDP B   3      13.977   7.435  42.0070  0.00  0.00     0.000 OA
ENDBRANCH 38 44
BRANCH 34 47
ATOM     47  O3  NAG B   4      11.424   6.010  38.5010  0.00  0.00     0.000 O
BRANCH 47 50
ATOM     48  C1  NAG B   4      12.108   5.927  34.8030  0.00  0.00     0.000 C
ATOM     49  C2  NAG B   4      11.275   6.005  36.0700  0.00  0.00     0.000 C
ATOM     50  C3  NAG B   4      12.198   6.003  37.2840  0.00  0.00     0.000 C
ATOM     51  C4  NAG B   4      13.126   4.799  37.2790  0.00  0.00     0.000 C
ATOM     52  C5  NAG B   4      13.884   4.733  35.9530  0.00  0.00     0.000 C
ATOM     53  O5  NAG B   4      12.968   4.772  34.8510  0.00  0.00     0.000 O
ATOM     54   O  NAG B   4      14.037   4.908  38.3760  0.00  0.00     0.000 O
ATOM     56  HD  NAG B   4      14.032   4.117  38.0240  0.00  0.00     0.000 HD
ATOM     56   C  NAG B   4      14.732   3.469  35.8610  0.00  0.00     0.000 C
ATOM     57   O  NAG B   4      13.875   2.324  35.9610  0.00  0.00     0.000 O
ATOM     59  HD  NAG B   4      13.870   1.532  35.6090  0.00  0.00     0.000 HD
BRANCH 49 61
ATOM     59   N  NAG B   4      10.288   5.027  35.6120  0.00  0.00     0.000 N
ATOM     61  HD  NAG B   4      10.447   5.510  36.3130  0.00  0.00     0.000 HD
ATOM     61   O  NAG B   4       8.461   6.094  36.4040  0.00  0.00     0.000 OA
ATOM     62   C  NAG B   4       8.967   5.191  35.7530  0.00  0.00     0.000 C
ATOM     63   C  NAG B   4       8.111   4.196  35.0350  0.00  0.00     0.000 C
ENDBRANCH 49 61
BRANCH 48 64
ATOM     64  O4  BDP B   5      11.902   6.403  33.4760  0.00  0.00     0.000 O
BRANCH 64 68
ATOM     65  C1  BDP B   5      13.257  10.059  32.0030  0.00  0.00     0.000 C
ATOM     66  C2  BDP B   5      11.777   9.766  31.8010  0.00  0.00     0.000 C
ATOM     67  C3  BDP B   5      11.344   8.645  32.7370  0.00  0.00     0.000 C
ATOM     68  C4  BDP B   5      12.215   7.413  32.5180  0.00  0.00     0.000 C
ATOM     69  C5  BDP B   5      13.700   7.734  32.6180  0.00  0.00     0.000 C
ATOM     70  O5  BDP B   5      14.030   8.866  31.7940  0.00  0.00     0.000 O
ATOM     71   O  BDP B   5      11.015  10.963  32.0190  0.00  0.00     0.000 O
ATOM     73  HD  BDP B   5      10.602  11.707  32.1800  0.00  0.00     0.000 HD
ATOM     73   O  BDP B   5       9.972   8.300  32.5080  0.00  0.00     0.000 O
ATOM     75  HD  BDP B   5       9.560   9.044  32.6690  0.00  0.00     0.000 HD
BRANCH 69 75
ATOM     75   C  BDP B   5      14.478   6.529  32.1530  0.00  0.00     0.000 C
ATOM     76   O  BDP B   5      14.084   5.916  31.1400  0.00  0.00     0.000 OA
ATOM     77   O  BDP B   5      15.491   6.183  32.7880  0.00  0.00     0.000 OA
ENDBRANCH 69 75
BRANCH 65 78
ATOM     78  O3  NAG B   6      14.168  10.550  31.0170  0.00  0.00     0.000 O
BRANCH 78 81
ATOM     79  C1  NAG B   6      17.387  12.527  31.2740  0.00  0.00     0.000 C
ATOM     80  C2  NAG B   6      15.881  12.244  31.3870  0.00  0.00     0.000 C
ATOM     81  C3  NAG B   6      15.592  10.787  31.0630  0.00  0.00     0.000 C
ATOM     82  C4  NAG B   6      16.233  10.388  29.7290  0.00  0.00     0.000 C
ATOM     83  C5  NAG B   6      17.722  10.712  29.7650  0.00  0.00     0.000 C
ATOM     84  O5  NAG B   6      17.853  12.118  29.9760  0.00  0.00     0.000 O
BRANCH 80 87
ATOM     85   N  NAG B   6      14.667  12.979  31.7340  0.00  0.00     0.000 N
ATOM     87  HD  NAG B   6      13.890  13.003  32.1140  0.00  0.00     0.000 HD
ATOM     87   C  NAG B   6      14.312  13.290  32.9860  0.00  0.00     0.000 C
ATOM     88   C  NAG B   6      13.049  14.079  33.1260  0.00  0.00     0.000 C
ATOM     89   O  NAG B   6      14.974  12.972  33.9670  0.00  0.00     0.000 OA
ENDBRANCH 80 87
ATOM     90   O  NAG B   6      19.360   9.243  28.7620  0.00  0.00     0.000 O
ATOM     92  HD  NAG B   6      19.203   9.819  29.3890  0.00  0.00     0.000 HD
ATOM     92   O  NAG B   6      19.360   9.243  28.7620  0.00  0.00     0.000 O
ATOM     94  HD  NAG B   6      19.203   9.819  29.3890  0.00  0.00     0.000 HD
ENDBRANCH 78 81
ENDBRANCH 65 78
ENDBRANCH 64 68
ENDBRANCH 48 64
ENDBRANCH 47 50
ENDBRANCH 34 47
ENDBRANCH 33 37
ENDBRANCH 17 33
ENDBRANCH 16 19
ENDBRANCH 1 16
TORSDOF 16
ENDMDL
MODEL 30
REMARK VINA RESULT:      -6.9      9.500     16.596
ROOT
ATOM      1  C1  BDP B   1       6.941  18.556  21.0160  0.00  0.00     0.000 C
ATOM      2  C2  BDP B   1       6.143  17.910  19.8970  0.00  0.00     0.000 C
ATOM      3  C3  BDP B   1       4.651  18.073  20.0940  0.00  0.00     0.000 C
ATOM      4  C4  BDP B   1       4.272  19.120  21.1360  0.00  0.00     0.000 C
ATOM      5  C5  BDP B   1       5.079  18.990  22.4240  0.00  0.00     0.000 C
ATOM      6  O5  BDP B   1       6.286  18.232  22.2330  0.00  0.00     0.000 O
ATOM      7   O  BDP B   1       6.526  18.473  18.6380  0.00  0.00     0.000 O
ATOM      9  HD  BDP B   1       7.129  18.749  18.0810  0.00  0.00     0.000 HD
ATOM      9   O  BDP B   1       4.071  16.823  20.5010  0.00  0.00     0.000 O
ATOM     11  HD  BDP B   1       4.675  17.099  19.9450  0.00  0.00     0.000 HD
ATOM     11   O  BDP B   1       4.429  20.439  20.5980  0.00  0.00     0.000 O
ATOM     13  HD  BDP B   1       5.032  20.714  20.0420  0.00  0.00     0.000 HD
ENDROOT
BRANCH 5 13
ATOM     13   C  BDP B   1       4.210  18.308  23.4220  0.00  0.00     0.000 C
ATOM     14   O  BDP B   1       3.290  18.966  23.9500  0.00  0.00     0.000 OA
ATOM     15   O  BDP B   1       4.410  17.101  23.6780  0.00  0.00     0.000 OA
ENDBRANCH 5 13
BRANCH 1 16
ATOM     16  O3  NAG B   2       7.932  19.581  20.9750  0.00  0.00     0.000 O
BRANCH 16 19
ATOM     17  C1  NAG B   2      11.507  18.900  21.0590  0.00  0.00     0.000 C
ATOM     18  C2  NAG B   2      10.217  19.120  20.2680  0.00  0.00     0.000 C
ATOM     19  C3  NAG B   2       9.280  20.052  21.0220  0.00  0.00     0.000 C
ATOM     20  C4  NAG B   2       9.713  20.234  22.4800  0.00  0.00     0.000 C
ATOM     21  C5  NAG B   2      10.326  18.990  23.1380  0.00  0.00     0.000 C
ATOM     22  O5  NAG B   2      11.109  18.197  22.2380  0.00  0.00     0.000 O
ATOM     23   O  NAG B   2      10.639  21.324  22.5460  0.00  0.00     0.000 O
ATOM     25  HD  NAG B   2      11.056  21.104  21.8190  0.00  0.00     0.000 HD
ATOM     25   C  NAG B   2       9.229  18.103  23.7450  0.00  0.00     0.000 C
ATOM     26   O  NAG B   2       8.872  18.530  25.0670  0.00  0.00     0.000 O
ATOM     28  HD  NAG B   2       9.290  18.311  24.3410  0.00  0.00     0.000 HD
BRANCH 18 30
ATOM     28   N  NAG B   2      10.948  19.412  19.0360  0.00  0.00     0.000 N
ATOM     30  HD  NAG B   2      11.733  19.347  18.6750  0.00  0.00     0.000 HD
ATOM     30   C  NAG B   2      11.248  20.642  18.5940  0.00  0.00     0.000 C
ATOM     31   C  NAG B   2      11.998  20.681  17.2920  0.00  0.00     0.000 C
ATOM     32   O  NAG B   2      10.951  21.654  19.1860  0.00  0.00     0.000 OA
ENDBRANCH 18 30
BRANCH 17 33
ATOM     33  O4  BDP B   3      12.691  18.140  21.3850  0.00  0.00     0.000 O
BRANCH 33 37
ATOM     34  C1  BDP B   3      16.881  17.432  21.8200  0.00  0.00     0.000 C
ATOM     35  C2  BDP B   3      16.036  17.415  23.0880  0.00  0.00     0.000 C
ATOM     36  C3  BDP B   3      14.543  17.250  22.8250  0.00  0.00     0.000 C
ATOM     37  C4  BDP B   3      14.116  18.192  21.6900  0.00  0.00     0.000 C
ATOM     38  C5  BDP B   3      14.996  17.865  20.4680  0.00  0.00     0.000 C
ATOM     39  O5  BDP B   3      16.314  18.286  20.8190  0.00  0.00     0.000 O
ATOM     40   O  BDP B   3      16.561  16.366  23.9050  0.00  0.00     0.000 O
ATOM     42  HD  BDP B   3      17.126  16.998  24.0810  0.00  0.00     0.000 HD
ATOM     42   O  BDP B   3      13.875  17.556  24.0480  0.00  0.00     0.000 O
ATOM     44  HD  BDP B   3      14.441  18.187  24.2250  0.00  0.00     0.000 HD
BRANCH 38 44
ATOM     44   C  BDP B   3      14.570  18.538  19.2010  0.00  0.00     0.000 C
ATOM     45   O  BDP B   3      15.016  19.683  18.9670  0.00  0.00     0.000 OA
ATOM     46   O  BDP B   3      13.791  17.948  18.4200  0.00  0.00     0.000 OA
ENDBRANCH 38 44
BRANCH 34 47
ATOM     47  O3  NAG B   4      17.962  18.358  21.9120  0.00  0.00     0.000 O
BRANCH 47 50
ATOM     48  C1  NAG B   4      21.486  17.047  21.8140  0.00  0.00     0.000 C
ATOM     49  C2  NAG B   4      20.105  17.305  22.3890  0.00  0.00     0.000 C
ATOM     50  C3  NAG B   4      19.257  18.044  21.3600  0.00  0.00     0.000 C
ATOM     51  C4  NAG B   4      19.933  19.323  20.8920  0.00  0.00     0.000 C
ATOM     52  C5  NAG B   4      21.343  19.011  20.3900  0.00  0.00     0.000 C
ATOM     53  O5  NAG B   4      22.080  18.288  21.3860  0.00  0.00     0.000 O
ATOM     54   O  NAG B   4      19.147  19.913  19.8540  0.00  0.00     0.000 O
ATOM     56  HD  NAG B   4      19.744  20.455  20.1690  0.00  0.00     0.000 HD
ATOM     56   C  NAG B   4      22.098  20.285  20.0300  0.00  0.00     0.000 C
ATOM     57   O  NAG B   4      22.196  21.116  21.1950  0.00  0.00     0.000 O
ATOM     59  HD  NAG B   4      22.793  21.658  21.5100  0.00  0.00     0.000 HD
BRANCH 49 61
ATOM     59   N  NAG B   4      20.533  17.819  23.6910  0.00  0.00     0.000 N
ATOM     61  HD  NAG B   4      19.795  17.644  23.2720  0.00  0.00     0.000 HD
ATOM     61   O  NAG B   4      19.042  16.672  24.9410  0.00  0.00     0.000 OA
ATOM     62   C  NAG B   4      20.017  17.405  24.8540  0.00  0.00     0.000 C
ATOM     63   C  NAG B   4      20.724  17.882  26.0820  0.00  0.00     0.000 C
ENDBRANCH 49 61
BRANCH 48 64
ATOM     64  O4  BDP B   5      22.452  16.023  22.0330  0.00  0.00     0.000 O
BRANCH 64 68
ATOM     65  C1  BDP B   5      21.548  12.123  23.1930  0.00  0.00     0.000 C
ATOM     66  C2  BDP B   5      22.245  12.985  24.2370  0.00  0.00     0.000 C
ATOM     67  C3  BDP B   5      22.123  14.454  23.8530  0.00  0.00     0.000 C
ATOM     68  C4  BDP B   5      22.678  14.678  22.4510  0.00  0.00     0.000 C
ATOM     69  C5  BDP B   5      22.052  13.738  21.4280  0.00  0.00     0.000 C
ATOM     70  O5  BDP B   5      22.103  12.378  21.8930  0.00  0.00     0.000 O
ATOM     71   O  BDP B   5      21.680  12.726  25.5320  0.00  0.00     0.000 O
ATOM     73  HD  BDP B   5      21.290  12.547  26.2840  0.00  0.00     0.000 HD
ATOM     73   O  BDP B   5      22.839  15.278  24.7820  0.00  0.00     0.000 O
ATOM     75  HD  BDP B   5      22.449  15.099  25.5340  0.00  0.00     0.000 HD
BRANCH 69 75
ATOM     75   C  BDP B   5      22.824  13.859  20.1390  0.00  0.00     0.000 C
ATOM     76   O  BDP B   5      24.020  13.506  20.1210  0.00  0.00     0.000 OA
ATOM     77   O  BDP B   5      22.246  14.303  19.1300  0.00  0.00     0.000 OA
ENDBRANCH 69 75
BRANCH 65 78
ATOM     78  O3  NAG B   6      21.896  10.784  22.8290  0.00  0.00     0.000 O
BRANCH 78 81
ATOM     79  C1  NAG B   6      20.011   7.526  22.4220  0.00  0.00     0.000 C
ATOM     80  C2  NAG B   6      20.668   8.705  23.1570  0.00  0.00     0.000 C
ATOM     81  C3  NAG B   6      21.143   9.749  22.1600  0.00  0.00     0.000 C
ATOM     82  C4  NAG B   6      21.998   9.107  21.0620  0.00  0.00     0.000 C
ATOM     83  C5  NAG B   6      21.218   7.968  20.4140  0.00  0.00     0.000 C
ATOM     84  O5  NAG B   6      20.922   7.013  21.4330  0.00  0.00     0.000 O
BRANCH 80 87
ATOM     85   N  NAG B   6      19.694   9.106  24.1680  0.00  0.00     0.000 N
ATOM     87  HD  NAG B   6      19.329   8.989  24.9440  0.00  0.00     0.000 HD
ATOM     87   C  NAG B   6      20.020   9.591  25.3720  0.00  0.00     0.000 C
ATOM     88   C  NAG B   6      18.872   9.977  26.2490  0.00  0.00     0.000 C
ATOM     89   O  NAG B   6      21.179   9.730  25.7450  0.00  0.00     0.000 OA
ENDBRANCH 80 87
ATOM     90   O  NAG B   6      21.328   7.554  18.0340  0.00  0.00     0.000 O
ATOM     92  HD  NAG B   6      20.842   7.503  18.7490  0.00  0.00     0.000 HD
ATOM     92   O  NAG B   6      21.328   7.554  18.0340  0.00  0.00     0.000 O
ATOM     94  HD  NAG B   6      20.842   7.503  18.7490  0.00  0.00     0.000 HD
ENDBRANCH 78 81
ENDBRANCH 65 78
ENDBRANCH 64 68
ENDBRANCH 48 64
ENDBRANCH 47 50
ENDBRANCH 34 47
ENDBRANCH 33 37
ENDBRANCH 17 33
ENDBRANCH 16 19
ENDBRANCH 1 16
TORSDOF 16
ENDMDL
MODEL 31
REMARK VINA RESULT:      -6.9      6.534     11.525
ROOT
ATOM      1  C1  BDP B   1      15.676  16.739  28.8310  0.00  0.00     0.000 C
ATOM      2  C2  BDP B   1      14.616  16.973  27.7700  0.00  0.00     0.000 C
ATOM      3  C3  BDP B   1      15.217  17.144  26.3910  0.00  0.00     0.000 C
ATOM      4  C4  BDP B   1      16.673  16.704  26.2890  0.00  0.00     0.000 C
ATOM      5  C5  BDP B   1      17.531  17.233  27.4340  0.00  0.00     0.000 C
ATOM      6  O5  BDP B   1      16.739  17.642  28.5610  0.00  0.00     0.000 O
ATOM      7   O  BDP B   1      13.690  15.881  27.7590  0.00  0.00     0.000 O
ATOM      9  HD  BDP B   1      13.188  15.306  28.1690  0.00  0.00     0.000 HD
ATOM      9   O  BDP B   1      15.149  18.522  25.9950  0.00  0.00     0.000 O
ATOM     11  HD  BDP B   1      14.648  17.948  26.4050  0.00  0.00     0.000 HD
ATOM     11   O  BDP B   1      16.761  15.274  26.2410  0.00  0.00     0.000 O
ATOM     13  HD  BDP B   1      16.259  14.700  26.6510  0.00  0.00     0.000 HD
ENDROOT
BRANCH 5 13
ATOM     13   C  BDP B   1      18.296  18.398  26.9090  0.00  0.00     0.000 C
ATOM     14   O  BDP B   1      17.781  19.532  27.0030  0.00  0.00     0.000 OA
ATOM     15   O  BDP B   1      19.430  18.210  26.4180  0.00  0.00     0.000 OA
ENDBRANCH 5 13
BRANCH 1 16
ATOM     16  O3  NAG B   2      15.861  15.650  29.7340  0.00  0.00     0.000 O
BRANCH 16 19
ATOM     17  C1  NAG B   2      15.093  12.245  30.7690  0.00  0.00     0.000 C
ATOM     18  C2  NAG B   2      15.258  13.291  29.6650  0.00  0.00     0.000 C
ATOM     19  C3  NAG B   2      16.295  14.330  30.0640  0.00  0.00     0.000 C
ATOM     20  C4  NAG B   2      16.630  14.254  31.5560  0.00  0.00     0.000 C
ATOM     21  C5  NAG B   2      15.453  13.890  32.4710  0.00  0.00     0.000 C
ATOM     22  O5  NAG B   2      14.541  12.957  31.8790  0.00  0.00     0.000 O
ATOM     23   O  NAG B   2      17.694  13.314  31.7360  0.00  0.00     0.000 O
ATOM     25  HD  NAG B   2      17.382  12.745  31.1620  0.00  0.00     0.000 HD
ATOM     25   C  NAG B   2      14.672  15.148  32.8750  0.00  0.00     0.000 C
ATOM     26   O  NAG B   2      15.257  15.791  34.0170  0.00  0.00     0.000 O
ATOM     28  HD  NAG B   2      14.944  15.223  33.4430  0.00  0.00     0.000 HD
BRANCH 18 30
ATOM     28   N  NAG B   2      15.917  12.035  29.3090  0.00  0.00     0.000 N
ATOM     30  HD  NAG B   2      16.599  11.540  29.5100  0.00  0.00     0.000 HD
ATOM     30   C  NAG B   2      16.550  11.802  28.1500  0.00  0.00     0.000 C
ATOM     31   C  NAG B   2      17.139  10.426  28.0170  0.00  0.00     0.000 C
ATOM     32   O  NAG B   2      16.654  12.625  27.2710  0.00  0.00     0.000 OA
ENDBRANCH 18 30
BRANCH 17 33
ATOM     33  O4  BDP B   3      14.342  11.220  31.4550  0.00  0.00     0.000 O
BRANCH 33 37
ATOM     34  C1  BDP B   3      14.011   7.431  33.3990  0.00  0.00     0.000 C
ATOM     35  C2  BDP B   3      15.363   7.788  32.7920  0.00  0.00     0.000 C
ATOM     36  C3  BDP B   3      15.531   9.276  32.5050  0.00  0.00     0.000 C
ATOM     37  C4  BDP B   3      14.269   9.808  31.8100  0.00  0.00     0.000 C
ATOM     38  C5  BDP B   3      13.072   9.489  32.7260  0.00  0.00     0.000 C
ATOM     39  O5  BDP B   3      12.935   8.068  32.7010  0.00  0.00     0.000 O
ATOM     40   O  BDP B   3      16.351   7.298  33.7020  0.00  0.00     0.000 O
ATOM     42  HD  BDP B   3      16.157   6.569  33.2770  0.00  0.00     0.000 HD
ATOM     42   O  BDP B   3      16.687   9.406  31.6800  0.00  0.00     0.000 O
ATOM     44  HD  BDP B   3      16.492   8.677  31.2550  0.00  0.00     0.000 HD
BRANCH 38 44
ATOM     44   C  BDP B   3      11.785  10.130  32.3100  0.00  0.00     0.000 C
ATOM     45   O  BDP B   3      11.429  11.170  32.9070  0.00  0.00     0.000 OA
ATOM     46   O  BDP B   3      11.108   9.618  31.3920  0.00  0.00     0.000 OA
ENDBRANCH 38 44
BRANCH 34 47
ATOM     47  O3  NAG B   4      13.516   6.188  32.9050  0.00  0.00     0.000 O
BRANCH 47 50
ATOM     48  C1  NAG B   4      10.952   4.422  35.0160  0.00  0.00     0.000 C
ATOM     49  C2  NAG B   4      12.311   4.993  34.6510  0.00  0.00     0.000 C
ATOM     50  C3  NAG B   4      12.219   5.696  33.3020  0.00  0.00     0.000 C
ATOM     51  C4  NAG B   4      11.677   4.770  32.2240  0.00  0.00     0.000 C
ATOM     52  C5  NAG B   4      10.345   4.172  32.6770  0.00  0.00     0.000 C
ATOM     53  O5  NAG B   4      10.485   3.556  33.9630  0.00  0.00     0.000 O
ATOM     54   O  NAG B   4      11.512   5.512  31.0130  0.00  0.00     0.000 O
ATOM     56  HD  NAG B   4      11.468   4.656  30.8890  0.00  0.00     0.000 HD
ATOM     56   C  NAG B   4       9.832   3.143  31.6760  0.00  0.00     0.000 C
ATOM     57   O  NAG B   4      10.795   2.087  31.5560  0.00  0.00     0.000 O
ATOM     59  HD  NAG B   4      10.751   1.231  31.4320  0.00  0.00     0.000 HD
BRANCH 49 61
ATOM     59   N  NAG B   4      13.027   3.798  35.0980  0.00  0.00     0.000 N
ATOM     61  HD  NAG B   4      13.204   4.561  34.7300  0.00  0.00     0.000 HD
ATOM     61   O  NAG B   4      14.778   4.866  36.0430  0.00  0.00     0.000 OA
ATOM     62   C  NAG B   4      14.156   3.839  35.8160  0.00  0.00     0.000 C
ATOM     63   C  NAG B   4      14.624   2.528  36.3620  0.00  0.00     0.000 C
ENDBRANCH 49 61
BRANCH 48 64
ATOM     64  O4  BDP B   5      10.309   4.168  36.2620  0.00  0.00     0.000 O
BRANCH 64 68
ATOM     65  C1  BDP B   5       8.587   7.048  38.7350  0.00  0.00     0.000 C
ATOM     66  C2  BDP B   5       9.970   6.558  39.1430  0.00  0.00     0.000 C
ATOM     67  C3  BDP B   5      10.639   5.866  37.9620  0.00  0.00     0.000 C
ATOM     68  C4  BDP B   5       9.753   4.738  37.4450  0.00  0.00     0.000 C
ATOM     69  C5  BDP B   5       8.339   5.213  37.1370  0.00  0.00     0.000 C
ATOM     70  O5  BDP B   5       7.799   5.950  38.2490  0.00  0.00     0.000 O
ATOM     71   O  BDP B   5      10.751   7.664  39.6210  0.00  0.00     0.000 O
ATOM     73  HD  BDP B   5      11.184   8.368  39.8810  0.00  0.00     0.000 HD
ATOM     73   O  BDP B   5      11.910   5.329  38.3480  0.00  0.00     0.000 O
ATOM     75  HD  BDP B   5      12.343   6.033  38.6070  0.00  0.00     0.000 HD
BRANCH 69 75
ATOM     75   C  BDP B   5       7.480   4.003  36.8710  0.00  0.00     0.000 C
ATOM     76   O  BDP B   5       6.670   3.638  37.7470  0.00  0.00     0.000 OA
ATOM     77   O  BDP B   5       7.599   3.406  35.7850  0.00  0.00     0.000 OA
ENDBRANCH 69 75
BRANCH 65 78
ATOM     78  O3  NAG B   6       7.450   7.190  39.5900  0.00  0.00     0.000 O
BRANCH 78 81
ATOM     79  C1  NAG B   6       4.618   9.671  39.9870  0.00  0.00     0.000 C
ATOM     80  C2  NAG B   6       6.048   9.119  40.0920  0.00  0.00     0.000 C
ATOM     81  C3  NAG B   6       6.154   7.787  39.3670  0.00  0.00     0.000 C
ATOM     82  C4  NAG B   6       5.051   6.828  39.8240  0.00  0.00     0.000 C
ATOM     83  C5  NAG B   6       3.693   7.499  39.6520  0.00  0.00     0.000 C
ATOM     84  O5  NAG B   6       3.688   8.678  40.4580  0.00  0.00     0.000 O
BRANCH 80 87
ATOM     85   N  NAG B   6       7.200   9.717  40.7620  0.00  0.00     0.000 N
ATOM     87  HD  NAG B   6       8.057   9.765  40.8780  0.00  0.00     0.000 HD
ATOM     87   C  NAG B   6       8.129  10.453  40.1400  0.00  0.00     0.000 C
ATOM     88   C  NAG B   6       9.211  11.005  41.0140  0.00  0.00     0.000 C
ATOM     89   O  NAG B   6       8.105  10.683  38.9370  0.00  0.00     0.000 OA
ENDBRANCH 80 87
ATOM     90   O  NAG B   6       1.759   6.263  38.8910  0.00  0.00     0.000 O
ATOM     92  HD  NAG B   6       2.155   7.033  38.9100  0.00  0.00     0.000 HD
ATOM     92   O  NAG B   6       1.759   6.263  38.8910  0.00  0.00     0.000 O
ATOM     94  HD  NAG B   6       2.155   7.033  38.9100  0.00  0.00     0.000 HD
ENDBRANCH 78 81
ENDBRANCH 65 78
ENDBRANCH 64 68
ENDBRANCH 48 64
ENDBRANCH 47 50
ENDBRANCH 34 47
ENDBRANCH 33 37
ENDBRANCH 17 33
ENDBRANCH 16 19
ENDBRANCH 1 16
TORSDOF 16
ENDMDL
MODEL 32
REMARK VINA RESULT:      -6.9     16.094     21.102
ROOT
ATOM      1  C1  BDP B   1      16.132  18.708  22.8510  0.00  0.00     0.000 C
ATOM      2  C2  BDP B   1      16.665  17.315  23.1390  0.00  0.00     0.000 C
ATOM      3  C3  BDP B   1      16.496  16.931  24.5940  0.00  0.00     0.000 C
ATOM      4  C4  BDP B   1      15.539  17.830  25.3670  0.00  0.00     0.000 C
ATOM      5  C5  BDP B   1      15.794  19.314  25.1220  0.00  0.00     0.000 C
ATOM      6  O5  BDP B   1      16.552  19.542  23.9210  0.00  0.00     0.000 O
ATOM      7   O  BDP B   1      15.999  16.358  22.3080  0.00  0.00     0.000 O
ATOM      9  HD  BDP B   1      15.685  16.106  21.5420  0.00  0.00     0.000 HD
ATOM      9   O  BDP B   1      17.767  16.970  25.2610  0.00  0.00     0.000 O
ATOM     11  HD  BDP B   1      17.453  16.717  24.4950  0.00  0.00     0.000 HD
ATOM     11   O  BDP B   1      14.180  17.513  25.0400  0.00  0.00     0.000 O
ATOM     13  HD  BDP B   1      13.866  17.261  24.2730  0.00  0.00     0.000 HD
ENDROOT
BRANCH 5 13
ATOM     13   C  BDP B   1      16.548  19.832  26.2970  0.00  0.00     0.000 C
ATOM     14   O  BDP B   1      17.795  19.786  26.2640  0.00  0.00     0.000 OA
ATOM     15   O  BDP B   1      15.915  20.316  27.2590  0.00  0.00     0.000 OA
ENDBRANCH 5 13
BRANCH 1 16
ATOM     16  O3  NAG B   2      15.124  19.145  21.9420  0.00  0.00     0.000 O
BRANCH 16 19
ATOM     17  C1  NAG B   2      12.281  19.850  19.7800  0.00  0.00     0.000 C
ATOM     18  C2  NAG B   2      13.448  20.339  20.6380  0.00  0.00     0.000 C
ATOM     19  C3  NAG B   2      14.579  19.322  20.6340  0.00  0.00     0.000 C
ATOM     20  C4  NAG B   2      14.124  17.970  20.0770  0.00  0.00     0.000 C
ATOM     21  C5  NAG B   2      12.679  17.578  20.4180  0.00  0.00     0.000 C
ATOM     22  O5  NAG B   2      11.780  18.692  20.4530  0.00  0.00     0.000 O
ATOM     23   O  NAG B   2      14.301  17.980  18.6570  0.00  0.00     0.000 O
ATOM     25  HD  NAG B   2      14.022  18.794  18.5570  0.00  0.00     0.000 HD
ATOM     25   C  NAG B   2      12.619  16.857  21.7720  0.00  0.00     0.000 C
ATOM     26   O  NAG B   2      12.885  15.453  21.6380  0.00  0.00     0.000 O
ATOM     28  HD  NAG B   2      12.606  16.267  21.5390  0.00  0.00     0.000 HD
BRANCH 18 30
ATOM     28   N  NAG B   2      14.319  20.815  19.5650  0.00  0.00     0.000 N
ATOM     30  HD  NAG B   2      15.136  21.053  19.4030  0.00  0.00     0.000 HD
ATOM     30   C  NAG B   2      14.238  22.023  18.9880  0.00  0.00     0.000 C
ATOM     31   C  NAG B   2      15.242  22.271  17.8980  0.00  0.00     0.000 C
ATOM     32   O  NAG B   2      13.431  22.863  19.3120  0.00  0.00     0.000 OA
ENDBRANCH 18 30
BRANCH 17 33
ATOM     33  O4  BDP B   3      10.887  19.847  19.4020  0.00  0.00     0.000 O
BRANCH 33 37
ATOM     34  C1  BDP B   3       7.402  21.481  17.5490  0.00  0.00     0.000 C
ATOM     35  C2  BDP B   3       8.718  22.219  17.3330  0.00  0.00     0.000 C
ATOM     36  C3  BDP B   3       9.950  21.378  17.6490  0.00  0.00     0.000 C
ATOM     37  C4  BDP B   3       9.745  20.652  18.9870  0.00  0.00     0.000 C
ATOM     38  C5  BDP B   3       8.450  19.826  18.8660  0.00  0.00     0.000 C
ATOM     39  O5  BDP B   3       7.389  20.780  18.7990  0.00  0.00     0.000 O
ATOM     40   O  BDP B   3       8.704  22.671  15.9770  0.00  0.00     0.000 O
ATOM     42  HD  BDP B   3       8.219  23.285  16.3500  0.00  0.00     0.000 HD
ATOM     42   O  BDP B   3      11.057  22.276  17.6950  0.00  0.00     0.000 O
ATOM     44  HD  BDP B   3      10.573  22.889  18.0680  0.00  0.00     0.000 HD
BRANCH 38 44
ATOM     44   C  BDP B   3       8.210  18.881  20.0020  0.00  0.00     0.000 C
ATOM     45   O  BDP B   3       8.555  19.245  21.1480  0.00  0.00     0.000 OA
ATOM     46   O  BDP B   3       7.682  17.770  19.7810  0.00  0.00     0.000 OA
ENDBRANCH 38 44
BRANCH 34 47
ATOM     47  O3  NAG B   4       6.393  22.334  18.0870  0.00  0.00     0.000 O
BRANCH 47 50
ATOM     48  C1  NAG B   4       3.049  21.154  16.8320  0.00  0.00     0.000 C
ATOM     49  C2  NAG B   4       4.519  21.530  16.7570  0.00  0.00     0.000 C
ATOM     50  C3  NAG B   4       5.017  21.908  18.1480  0.00  0.00     0.000 C
ATOM     51  C4  NAG B   4       4.171  23.011  18.7640  0.00  0.00     0.000 C
ATOM     52  C5  NAG B   4       2.697  22.605  18.7490  0.00  0.00     0.000 C
ATOM     53  O5  NAG B   4       2.296  22.230  17.4250  0.00  0.00     0.000 O
ATOM     54   O  NAG B   4       4.616  23.245  20.1030  0.00  0.00     0.000 O
ATOM     56  HD  NAG B   4       4.097  23.873  19.8090  0.00  0.00     0.000 HD
ATOM     56   C  NAG B   4       1.806  23.738  19.2440  0.00  0.00     0.000 C
ATOM     57   O  NAG B   4       1.980  24.877  18.3920  0.00  0.00     0.000 O
ATOM     59  HD  NAG B   4       1.461  25.505  18.0980  0.00  0.00     0.000 HD
BRANCH 49 61
ATOM     59   N  NAG B   4       4.354  22.316  15.5340  0.00  0.00     0.000 N
ATOM     61  HD  NAG B   4       4.983  22.104  16.0900  0.00  0.00     0.000 HD
ATOM     61   O  NAG B   4       6.261  21.649  14.5230  0.00  0.00     0.000 OA
ATOM     62   C  NAG B   4       5.198  22.251  14.4970  0.00  0.00     0.000 C
ATOM     63   C  NAG B   4       4.754  22.959  13.2560  0.00  0.00     0.000 C
ENDBRANCH 49 61
BRANCH 48 64
ATOM     64  O4  BDP B   5       2.235  20.268  16.0690  0.00  0.00     0.000 O
BRANCH 64 68
ATOM     65  C1  BDP B   5       3.641  17.667  13.1320  0.00  0.00     0.000 C
ATOM     66  C2  BDP B   5       2.523  18.610  12.7080  0.00  0.00     0.000 C
ATOM     67  C3  BDP B   5       2.414  19.757  13.7050  0.00  0.00     0.000 C
ATOM     68  C4  BDP B   5       2.209  19.209  15.1130  0.00  0.00     0.000 C
ATOM     69  C5  BDP B   5       3.272  18.186  15.4920  0.00  0.00     0.000 C
ATOM     70  O5  BDP B   5       3.403  17.188  14.4650  0.00  0.00     0.000 O
ATOM     71   O  BDP B   5       2.773  19.087  11.3770  0.00  0.00     0.000 O
ATOM     73  HD  BDP B   5       2.982  19.359  10.5820  0.00  0.00     0.000 HD
ATOM     73   O  BDP B   5       1.317  20.614  13.3680  0.00  0.00     0.000 O
ATOM     75  HD  BDP B   5       1.526  20.886  12.5720  0.00  0.00     0.000 HD
BRANCH 69 75
ATOM     75   C  BDP B   5       2.857  17.528  16.7840  0.00  0.00     0.000 C
ATOM     76   O  BDP B   5       1.744  16.968  16.8400  0.00  0.00     0.000 OA
ATOM     77   O  BDP B   5       3.637  17.558  17.7540  0.00  0.00     0.000 OA
ENDBRANCH 69 75
BRANCH 65 78
ATOM     78  O3  NAG B   6       3.705  16.260  12.8810  0.00  0.00     0.000 O
BRANCH 78 81
ATOM     79  C1  NAG B   6       5.846  13.678  11.1260  0.00  0.00     0.000 C
ATOM     80  C2  NAG B   6       4.743  14.736  11.2890  0.00  0.00     0.000 C
ATOM     81  C3  NAG B   6       4.827  15.378  12.6640  0.00  0.00     0.000 C
ATOM     82  C4  NAG B   6       4.873  14.310  13.7630  0.00  0.00     0.000 C
ATOM     83  C5  NAG B   6       6.017  13.342  13.4810  0.00  0.00     0.000 C
ATOM     84  O5  NAG B   6       5.767  12.736  12.2120  0.00  0.00     0.000 O
BRANCH 80 87
ATOM     85   N  NAG B   6       4.878  15.651  10.1590  0.00  0.00     0.000 N
ATOM     87  HD  NAG B   6       4.764  15.824   9.3180  0.00  0.00     0.000 HD
ATOM     87   C  NAG B   6       3.842  16.194   9.5070  0.00  0.00     0.000 C
ATOM     88   C  NAG B   6       4.194  17.135   8.3990  0.00  0.00     0.000 C
ATOM     89   O  NAG B   6       2.674  15.959   9.7940  0.00  0.00     0.000 OA
ENDBRANCH 80 87
ATOM     90   O  NAG B   6       7.387  12.450  15.2630  0.00  0.00     0.000 O
ATOM     92  HD  NAG B   6       7.358  12.685  14.4300  0.00  0.00     0.000 HD
ATOM     92   O  NAG B   6       7.387  12.450  15.2630  0.00  0.00     0.000 O
ATOM     94  HD  NAG B   6       7.358  12.685  14.4300  0.00  0.00     0.000 HD
ENDBRANCH 78 81
ENDBRANCH 65 78
ENDBRANCH 64 68
ENDBRANCH 48 64
ENDBRANCH 47 50
ENDBRANCH 34 47
ENDBRANCH 33 37
ENDBRANCH 17 33
ENDBRANCH 16 19
ENDBRANCH 1 16
TORSDOF 16
ENDMDL
MODEL 33
REMARK VINA RESULT:      -6.8      5.927     11.884
ROOT
ATOM      1  C1  BDP B   1      17.066  11.318  29.6980  0.00  0.00     0.000 C
ATOM      2  C2  BDP B   1      17.489  11.752  28.3060  0.00  0.00     0.000 C
ATOM      3  C3  BDP B   1      18.964  11.519  28.0590  0.00  0.00     0.000 C
ATOM      4  C4  BDP B   1      19.627  10.601  29.0790  0.00  0.00     0.000 C
ATOM      5  C5  BDP B   1      19.265  10.957  30.5180  0.00  0.00     0.000 C
ATOM      6  O5  BDP B   1      18.075  11.760  30.5940  0.00  0.00     0.000 O
ATOM      7   O  BDP B   1      16.721  11.050  27.3230  0.00  0.00     0.000 O
ATOM      9  HD  BDP B   1      15.968  10.741  27.0250  0.00  0.00     0.000 HD
ATOM      9   O  BDP B   1      19.668  12.771  28.0780  0.00  0.00     0.000 O
ATOM     11  HD  BDP B   1      18.915  12.463  27.7800  0.00  0.00     0.000 HD
ATOM     11   O  BDP B   1      19.284   9.234  28.8190  0.00  0.00     0.000 O
ATOM     13  HD  BDP B   1      18.531   8.926  28.5210  0.00  0.00     0.000 HD
ENDROOT
BRANCH 5 13
ATOM     13   C  BDP B   1      20.416  11.709  31.0890  0.00  0.00     0.000 C
ATOM     14   O  BDP B   1      21.451  11.816  30.3980  0.00  0.00     0.000 OA
ATOM     15   O  BDP B   1      20.303  12.228  32.2200  0.00  0.00     0.000 OA
ENDBRANCH 5 13
BRANCH 1 16
ATOM     16  O3  NAG B   2      16.092  10.364  30.1160  0.00  0.00     0.000 O
BRANCH 16 19
ATOM     17  C1  NAG B   2      12.925  10.172  31.9030  0.00  0.00     0.000 C
ATOM     18  C2  NAG B   2      13.792   9.806  30.6980  0.00  0.00     0.000 C
ATOM     19  C3  NAG B   2      15.260   9.739  31.0950  0.00  0.00     0.000 C
ATOM     20  C4  NAG B   2      15.506  10.377  32.4650  0.00  0.00     0.000 C
ATOM     21  C5  NAG B   2      14.633  11.600  32.7810  0.00  0.00     0.000 C
ATOM     22  O5  NAG B   2      13.307  11.505  32.2480  0.00  0.00     0.000 O
ATOM     23   O  NAG B   2      15.322   9.376  33.4720  0.00  0.00     0.000 O
ATOM     25  HD  NAG B   2      14.630   9.021  33.0920  0.00  0.00     0.000 HD
ATOM     25   C  NAG B   2      15.286  12.883  32.2480  0.00  0.00     0.000 C
ATOM     26   O  NAG B   2      16.237  13.421  33.1770  0.00  0.00     0.000 O
ATOM     28  HD  NAG B   2      15.545  13.066  32.7970  0.00  0.00     0.000 HD
BRANCH 18 30
ATOM     28   N  NAG B   2      13.256   8.588  31.3040  0.00  0.00     0.000 N
ATOM     30  HD  NAG B   2      13.434   7.987  31.9020  0.00  0.00     0.000 HD
ATOM     30   C  NAG B   2      13.136   7.408  30.6790  0.00  0.00     0.000 C
ATOM     31   C  NAG B   2      12.545   6.308  31.5140  0.00  0.00     0.000 C
ATOM     32   O  NAG B   2      13.477   7.223  29.5340  0.00  0.00     0.000 OA
ENDBRANCH 18 30
BRANCH 17 33
ATOM     33  O4  BDP B   3      11.718  10.699  32.4940  0.00  0.00     0.000 O
BRANCH 33 37
ATOM     34  C1  BDP B   3       9.169  11.050  35.9040  0.00  0.00     0.000 C
ATOM     35  C2  BDP B   3       9.088  12.153  34.8560  0.00  0.00     0.000 C
ATOM     36  C3  BDP B   3       9.684  11.762  33.5090  0.00  0.00     0.000 C
ATOM     37  C4  BDP B   3      11.042  11.080  33.7280  0.00  0.00     0.000 C
ATOM     38  C5  BDP B   3      10.806   9.882  34.6680  0.00  0.00     0.000 C
ATOM     39  O5  BDP B   3      10.468  10.446  35.9350  0.00  0.00     0.000 O
ATOM     40   O  BDP B   3       7.707  12.507  34.7550  0.00  0.00     0.000 O
ATOM     42  HD  BDP B   3       7.929  12.954  35.4620  0.00  0.00     0.000 HD
ATOM     42   O  BDP B   3       9.810  12.965  32.7520  0.00  0.00     0.000 O
ATOM     44  HD  BDP B   3      10.033  13.412  33.4590  0.00  0.00     0.000 HD
BRANCH 38 44
ATOM     44   C  BDP B   3      11.984   8.970  34.8170  0.00  0.00     0.000 C
ATOM     45   O  BDP B   3      11.839   7.770  34.4980  0.00  0.00     0.000 OA
ATOM     46   O  BDP B   3      13.065   9.423  35.2510  0.00  0.00     0.000 OA
ENDBRANCH 38 44
BRANCH 34 47
ATOM     47  O3  NAG B   4       9.445  11.567  37.2040  0.00  0.00     0.000 O
BRANCH 47 50
ATOM     48  C1  NAG B   4       8.168   9.098  39.7380  0.00  0.00     0.000 C
ATOM     49  C2  NAG B   4       8.149   9.948  38.4800  0.00  0.00     0.000 C
ATOM     50  C3  NAG B   4       9.469  10.701  38.3580  0.00  0.00     0.000 C
ATOM     51  C4  NAG B   4       9.762  11.523  39.6030  0.00  0.00     0.000 C
ATOM     52  C5  NAG B   4       9.698  10.629  40.8410  0.00  0.00     0.000 C
ATOM     53  O5  NAG B   4       8.452   9.923  40.8850  0.00  0.00     0.000 O
ATOM     54   O  NAG B   4      11.056  12.117  39.4750  0.00  0.00     0.000 O
ATOM     56  HD  NAG B   4      10.592  12.465  40.1170  0.00  0.00     0.000 HD
ATOM     56   C  NAG B   4       9.863  11.442  42.1200  0.00  0.00     0.000 C
ATOM     57   O  NAG B   4       8.810  12.412  42.1970  0.00  0.00     0.000 O
ATOM     59  HD  NAG B   4       8.346  12.760  42.8390  0.00  0.00     0.000 HD
BRANCH 49 61
ATOM     59   N  NAG B   4       6.748  10.305  38.7100  0.00  0.00     0.000 N
ATOM     61  HD  NAG B   4       7.388  10.504  38.1610  0.00  0.00     0.000 HD
ATOM     61   O  NAG B   4       6.107  10.299  36.5450  0.00  0.00     0.000 OA
ATOM     62   C  NAG B   4       5.836  10.377  37.7340  0.00  0.00     0.000 C
ATOM     63   C  NAG B   4       4.419  10.543  38.1840  0.00  0.00     0.000 C
ENDBRANCH 49 61
BRANCH 48 64
ATOM     64  O4  BDP B   5       7.538   7.869  40.0880  0.00  0.00     0.000 O
BRANCH 64 68
ATOM     65  C1  BDP B   5       5.510   5.378  37.4330  0.00  0.00     0.000 C
ATOM     66  C2  BDP B   5       4.743   5.784  38.6840  0.00  0.00     0.000 C
ATOM     67  C3  BDP B   5       5.408   6.997  39.3220  0.00  0.00     0.000 C
ATOM     68  C4  BDP B   5       6.875   6.699  39.6100  0.00  0.00     0.000 C
ATOM     69  C5  BDP B   5       7.612   6.193  38.3770  0.00  0.00     0.000 C
ATOM     70  O5  BDP B   5       6.884   5.118  37.7590  0.00  0.00     0.000 O
ATOM     71   O  BDP B   5       3.373   6.047  38.3450  0.00  0.00     0.000 O
ATOM     73  HD  BDP B   5       2.564   6.212  38.0840  0.00  0.00     0.000 HD
ATOM     73   O  BDP B   5       4.748   7.348  40.5440  0.00  0.00     0.000 O
ATOM     75  HD  BDP B   5       3.939   7.513  40.2820  0.00  0.00     0.000 HD
BRANCH 69 75
ATOM     75   C  BDP B   5       8.971   5.699  38.8070  0.00  0.00     0.000 C
ATOM     76   O  BDP B   5       9.037   4.709  39.5630  0.00  0.00     0.000 OA
ATOM     77   O  BDP B   5       9.986   6.289  38.3920  0.00  0.00     0.000 OA
ENDBRANCH 69 75
BRANCH 65 78
ATOM     78  O3  NAG B   6       5.623   4.056  36.8970  0.00  0.00     0.000 O
BRANCH 78 81
ATOM     79  C1  NAG B   6       4.943   1.729  33.9900  0.00  0.00     0.000 C
ATOM     80  C2  NAG B   6       4.785   2.330  35.3950  0.00  0.00     0.000 C
ATOM     81  C3  NAG B   6       5.647   3.575  35.5360  0.00  0.00     0.000 C
ATOM     82  C4  NAG B   6       7.090   3.290  35.1080  0.00  0.00     0.000 C
ATOM     83  C5  NAG B   6       7.095   2.712  33.6970  0.00  0.00     0.000 C
ATOM     84  O5  NAG B   6       6.339   1.501  33.7230  0.00  0.00     0.000 O
BRANCH 80 87
ATOM     85   N  NAG B   6       3.338   2.405  35.5770  0.00  0.00     0.000 N
ATOM     87  HD  NAG B   6       2.592   2.029  35.8070  0.00  0.00     0.000 HD
ATOM     87   C  NAG B   6       2.727   2.322  36.7660  0.00  0.00     0.000 C
ATOM     88   C  NAG B   6       1.238   2.457  36.7410  0.00  0.00     0.000 C
ATOM     89   O  NAG B   6       3.333   2.161  37.8190  0.00  0.00     0.000 OA
ENDBRANCH 80 87
ATOM     90   O  NAG B   6       8.797   3.318  32.0890  0.00  0.00     0.000 O
ATOM     92  HD  NAG B   6       7.974   3.073  32.2040  0.00  0.00     0.000 HD
ATOM     92   O  NAG B   6       8.797   3.318  32.0890  0.00  0.00     0.000 O
ATOM     94  HD  NAG B   6       7.974   3.073  32.2040  0.00  0.00     0.000 HD
ENDBRANCH 78 81
ENDBRANCH 65 78
ENDBRANCH 64 68
ENDBRANCH 48 64
ENDBRANCH 47 50
ENDBRANCH 34 47
ENDBRANCH 33 37
ENDBRANCH 17 33
ENDBRANCH 16 19
ENDBRANCH 1 16
TORSDOF 16
ENDMDL
MODEL 34
REMARK VINA RESULT:      -6.8      5.512     16.001
ROOT
ATOM      1  C1  BDP B   1      20.645   8.335  31.5000  0.00  0.00     0.000 C
ATOM      2  C2  BDP B   1      19.952   8.158  32.8400  0.00  0.00     0.000 C
ATOM      3  C3  BDP B   1      20.697   8.849  33.9620  0.00  0.00     0.000 C
ATOM      4  C4  BDP B   1      21.749   9.846  33.4890  0.00  0.00     0.000 C
ATOM      5  C5  BDP B   1      22.634   9.288  32.3790  0.00  0.00     0.000 C
ATOM      6  O5  BDP B   1      22.035   8.156  31.7260  0.00  0.00     0.000 O
ATOM      7   O  BDP B   1      18.615   8.665  32.7670  0.00  0.00     0.000 O
ATOM      9  HD  BDP B   1      17.856   8.750  32.3590  0.00  0.00     0.000 HD
ATOM      9   O  BDP B   1      21.359   7.874  34.7840  0.00  0.00     0.000 O
ATOM     11  HD  BDP B   1      20.600   7.959  34.3750  0.00  0.00     0.000 HD
ATOM     11   O  BDP B   1      21.125  11.058  33.0470  0.00  0.00     0.000 O
ATOM     13  HD  BDP B   1      20.366  11.143  32.6380  0.00  0.00     0.000 HD
ENDROOT
BRANCH 5 13
ATOM     13   C  BDP B   1      23.923   8.882  33.0050  0.00  0.00     0.000 C
ATOM     14   O  BDP B   1      24.841   9.725  33.0620  0.00  0.00     0.000 OA
ATOM     15   O  BDP B   1      24.034   7.729  33.4740  0.00  0.00     0.000 OA
ENDBRANCH 5 13
BRANCH 1 16
ATOM     16  O3  NAG B   2      20.175   8.911  30.2830  0.00  0.00     0.000 O
BRANCH 16 19
ATOM     17  C1  NAG B   2      20.099  10.279  26.9100  0.00  0.00     0.000 C
ATOM     18  C2  NAG B   2      19.410   9.536  28.0560  0.00  0.00     0.000 C
ATOM     19  C3  NAG B   2      19.948  10.009  29.3980  0.00  0.00     0.000 C
ATOM     20  C4  NAG B   2      21.237  10.820  29.2400  0.00  0.00     0.000 C
ATOM     21  C5  NAG B   2      22.167  10.352  28.1120  0.00  0.00     0.000 C
ATOM     22  O5  NAG B   2      21.466   9.864  26.9620  0.00  0.00     0.000 O
ATOM     23   O  NAG B   2      20.888  12.194  29.0420  0.00  0.00     0.000 O
ATOM     25  HD  NAG B   2      20.220  12.022  28.5180  0.00  0.00     0.000 HD
ATOM     25   C  NAG B   2      23.113   9.251  28.6120  0.00  0.00     0.000 C
ATOM     26   O  NAG B   2      24.280   9.800  29.2400  0.00  0.00     0.000 O
ATOM     28  HD  NAG B   2      23.613   9.627  28.7160  0.00  0.00     0.000 HD
BRANCH 18 30
ATOM     28   N  NAG B   2      18.573  10.641  27.5900  0.00  0.00     0.000 N
ATOM     30  HD  NAG B   2      18.448  11.493  27.6890  0.00  0.00     0.000 HD
ATOM     30   C  NAG B   2      17.270  10.786  27.8680  0.00  0.00     0.000 C
ATOM     31   C  NAG B   2      16.626  12.002  27.2630  0.00  0.00     0.000 C
ATOM     32   O  NAG B   2      16.644  10.013  28.5550  0.00  0.00     0.000 OA
ENDBRANCH 18 30
BRANCH 17 33
ATOM     33  O4  BDP B   3      20.514  10.396  25.5310  0.00  0.00     0.000 O
BRANCH 33 37
ATOM     34  C1  BDP B   3      20.952   9.210  21.4520  0.00  0.00     0.000 C
ATOM     35  C2  BDP B   3      19.802   8.592  22.2380  0.00  0.00     0.000 C
ATOM     36  C3  BDP B   3      19.452   9.355  23.5100  0.00  0.00     0.000 C
ATOM     37  C4  BDP B   3      20.741   9.696  24.2730  0.00  0.00     0.000 C
ATOM     38  C5  BDP B   3      21.647  10.488  23.3100  0.00  0.00     0.000 C
ATOM     39  O5  BDP B   3      22.049   9.556  22.3060  0.00  0.00     0.000 O
ATOM     40   O  BDP B   3      18.698   8.512  21.3340  0.00  0.00     0.000 O
ATOM     42  HD  BDP B   3      19.144   7.809  21.0960  0.00  0.00     0.000 HD
ATOM     42   O  BDP B   3      18.593   8.509  24.2720  0.00  0.00     0.000 O
ATOM     44  HD  BDP B   3      19.038   7.805  24.0340  0.00  0.00     0.000 HD
BRANCH 38 44
ATOM     44   C  BDP B   3      22.855  11.093  23.9530  0.00  0.00     0.000 C
ATOM     45   O  BDP B   3      22.900  12.339  24.0570  0.00  0.00     0.000 OA
ATOM     46   O  BDP B   3      23.774  10.352  24.3630  0.00  0.00     0.000 OA
ENDBRANCH 38 44
BRANCH 34 47
ATOM     47  O3  NAG B   4      21.797   8.217  20.8720  0.00  0.00     0.000 O
BRANCH 47 50
ATOM     48  C1  NAG B   4      23.882   9.644  18.0850  0.00  0.00     0.000 C
ATOM     49  C2  NAG B   4      22.619   9.326  18.8670  0.00  0.00     0.000 C
ATOM     50  C3  NAG B   4      22.988   8.587  20.1480  0.00  0.00     0.000 C
ATOM     51  C4  NAG B   4      23.812   7.343  19.8580  0.00  0.00     0.000 C
ATOM     52  C5  NAG B   4      25.030   7.713  19.0110  0.00  0.00     0.000 C
ATOM     53  O5  NAG B   4      24.625   8.434  17.8400  0.00  0.00     0.000 O
ATOM     54   O  NAG B   4      24.219   6.754  21.0960  0.00  0.00     0.000 O
ATOM     56  HD  NAG B   4      24.333   6.224  20.4210  0.00  0.00     0.000 HD
ATOM     56   C  NAG B   4      25.813   6.473  18.5950  0.00  0.00     0.000 C
ATOM     57   O  NAG B   4      24.959   5.617  17.8250  0.00  0.00     0.000 O
ATOM     59  HD  NAG B   4      25.073   5.087  17.1500  0.00  0.00     0.000 HD
BRANCH 49 61
ATOM     59   N  NAG B   4      21.968  10.631  18.7440  0.00  0.00     0.000 N
ATOM     61  HD  NAG B   4      21.975   9.868  18.3360  0.00  0.00     0.000 HD
ATOM     61   O  NAG B   4      19.905   9.860  18.2440  0.00  0.00     0.000 OA
ATOM     62   C  NAG B   4      20.657  10.783  18.5170  0.00  0.00     0.000 C
ATOM     63   C  NAG B   4      20.138  12.181  18.6380  0.00  0.00     0.000 C
ENDBRANCH 49 61
BRANCH 48 64
ATOM     64  O4  BDP B   5      24.228  10.693  17.1860  0.00  0.00     0.000 O
BRANCH 64 68
ATOM     65  C1  BDP B   5      21.924  12.124  14.0210  0.00  0.00     0.000 C
ATOM     66  C2  BDP B   5      22.950  11.055  13.6690  0.00  0.00     0.000 C
ATOM     67  C3  BDP B   5      23.395  10.335  14.9360  0.00  0.00     0.000 C
ATOM     68  C4  BDP B   5      23.929  11.341  15.9500  0.00  0.00     0.000 C
ATOM     69  C5  BDP B   5      22.939  12.467  16.2190  0.00  0.00     0.000 C
ATOM     70  O5  BDP B   5      22.475  13.038  14.9830  0.00  0.00     0.000 O
ATOM     71   O  BDP B   5      22.388  10.145  12.7110  0.00  0.00     0.000 O
ATOM     73  HD  BDP B   5      21.994   9.615  12.1510  0.00  0.00     0.000 HD
ATOM     73   O  BDP B   5      24.417   9.377  14.6370  0.00  0.00     0.000 O
ATOM     75  HD  BDP B   5      24.023   8.847  14.0760  0.00  0.00     0.000 HD
BRANCH 69 75
ATOM     75   C  BDP B   5      23.637  13.527  17.0330  0.00  0.00     0.000 C
ATOM     76   O  BDP B   5      23.374  13.620  18.2490  0.00  0.00     0.000 OA
ATOM     77   O  BDP B   5      24.458  14.275  16.4710  0.00  0.00     0.000 OA
ENDBRANCH 69 75
BRANCH 65 78
ATOM     78  O3  NAG B   6      21.703  13.351  13.3200  0.00  0.00     0.000 O
BRANCH 78 81
ATOM     79  C1  NAG B   6      19.008  15.293  11.5040  0.00  0.00     0.000 C
ATOM     80  C2  NAG B   6      20.170  14.303  11.6830  0.00  0.00     0.000 C
ATOM     81  C3  NAG B   6      20.517  14.158  13.1560  0.00  0.00     0.000 C
ATOM     82  C4  NAG B   6      20.723  15.531  13.8050  0.00  0.00     0.000 C
ATOM     83  C5  NAG B   6      19.494  16.398  13.5600  0.00  0.00     0.000 C
ATOM     84  O5  NAG B   6      19.337  16.537  12.1470  0.00  0.00     0.000 O
BRANCH 80 87
ATOM     85   N  NAG B   6      19.873  12.954  11.2090  0.00  0.00     0.000 N
ATOM     87  HD  NAG B   6      19.641  12.420  10.5680  0.00  0.00     0.000 HD
ATOM     87   C  NAG B   6      20.609  12.300  10.3020  0.00  0.00     0.000 C
ATOM     88   C  NAG B   6      20.156  10.912   9.9770  0.00  0.00     0.000 C
ATOM     89   O  NAG B   6      21.603  12.784   9.7720  0.00  0.00     0.000 OA
ENDBRANCH 80 87
ATOM     90   O  NAG B   6      18.637  17.887  15.2620  0.00  0.00     0.000 O
ATOM     92  HD  NAG B   6      18.441  17.388  14.5820  0.00  0.00     0.000 HD
ATOM     92   O  NAG B   6      18.637  17.887  15.2620  0.00  0.00     0.000 O
ATOM     94  HD  NAG B   6      18.441  17.388  14.5820  0.00  0.00     0.000 HD
ENDBRANCH 78 81
ENDBRANCH 65 78
ENDBRANCH 64 68
ENDBRANCH 48 64
ENDBRANCH 47 50
ENDBRANCH 34 47
ENDBRANCH 33 37
ENDBRANCH 17 33
ENDBRANCH 16 19
ENDBRANCH 1 16
TORSDOF 16
ENDMDL
MODEL 35
REMARK VINA RESULT:      -6.8     11.614     15.020
ROOT
ATOM      1  C1  BDP B   1      20.135  18.916  16.9000  0.00  0.00     0.000 C
ATOM      2  C2  BDP B   1      20.003  17.952  15.7340  0.00  0.00     0.000 C
ATOM      3  C3  BDP B   1      20.492  16.563  16.0840  0.00  0.00     0.000 C
ATOM      4  C4  BDP B   1      20.673  16.326  17.5790  0.00  0.00     0.000 C
ATOM      5  C5  BDP B   1      21.419  17.463  18.2710  0.00  0.00     0.000 C
ATOM      6  O5  BDP B   1      21.401  18.674  17.4960  0.00  0.00     0.000 O
ATOM      7   O  BDP B   1      18.637  17.888  15.3090  0.00  0.00     0.000 O
ATOM      9  HD  BDP B   1      17.884  18.267  15.1130  0.00  0.00     0.000 HD
ATOM      9   O  BDP B   1      21.756  16.314  15.4480  0.00  0.00     0.000 O
ATOM     11  HD  BDP B   1      21.002  16.694  15.2510  0.00  0.00     0.000 HD
ATOM     11   O  BDP B   1      19.402  16.127  18.2110  0.00  0.00     0.000 O
ATOM     13  HD  BDP B   1      18.649  16.507  18.0140  0.00  0.00     0.000 HD
ENDROOT
BRANCH 5 13
ATOM     13   C  BDP B   1      22.824  17.013  18.4680  0.00  0.00     0.000 C
ATOM     14   O  BDP B   1      23.685  17.872  18.7500  0.00  0.00     0.000 OA
ATOM     15   O  BDP B   1      23.092  15.796  18.3710  0.00  0.00     0.000 OA
ENDBRANCH 5 13
BRANCH 1 16
ATOM     16  O3  NAG B   2      19.149  19.689  17.5800  0.00  0.00     0.000 O
BRANCH 16 19
ATOM     17  C1  NAG B   2      15.747  19.551  18.8680  0.00  0.00     0.000 C
ATOM     18  C2  NAG B   2      17.100  18.884  18.6240  0.00  0.00     0.000 C
ATOM     19  C3  NAG B   2      18.217  19.917  18.6380  0.00  0.00     0.000 C
ATOM     20  C4  NAG B   2      17.670  21.345  18.5460  0.00  0.00     0.000 C
ATOM     21  C5  NAG B   2      16.422  21.509  17.6680  0.00  0.00     0.000 C
ATOM     22  O5  NAG B   2      15.531  20.389  17.7300  0.00  0.00     0.000 O
ATOM     23   O  NAG B   2      17.396  21.813  19.8710  0.00  0.00     0.000 O
ATOM     25  HD  NAG B   2      17.065  21.061  20.1440  0.00  0.00     0.000 HD
ATOM     25   C  NAG B   2      16.818  21.740  16.2030  0.00  0.00     0.000 C
ATOM     26   O  NAG B   2      17.089  23.123  15.9380  0.00  0.00     0.000 O
ATOM     28  HD  NAG B   2      16.758  22.371  16.2100  0.00  0.00     0.000 HD
BRANCH 18 30
ATOM     28   N  NAG B   2      17.483  18.894  20.0360  0.00  0.00     0.000 N
ATOM     30  HD  NAG B   2      18.175  18.878  20.5560  0.00  0.00     0.000 HD
ATOM     30   C  NAG B   2      17.264  17.891  20.8970  0.00  0.00     0.000 C
ATOM     31   C  NAG B   2      17.742  18.146  22.2990  0.00  0.00     0.000 C
ATOM     32   O  NAG B   2      16.732  16.850  20.5880  0.00  0.00     0.000 OA
ENDBRANCH 18 30
BRANCH 17 33
ATOM     33  O4  BDP B   3      14.306  19.588  18.7760  0.00  0.00     0.000 O
BRANCH 33 37
ATOM     34  C1  BDP B   3      10.721  18.615  20.8830  0.00  0.00     0.000 C
ATOM     35  C2  BDP B   3      11.837  17.577  20.8910  0.00  0.00     0.000 C
ATOM     36  C3  BDP B   3      13.199  18.142  20.5020  0.00  0.00     0.000 C
ATOM     37  C4  BDP B   3      13.049  19.027  19.2560  0.00  0.00     0.000 C
ATOM     38  C5  BDP B   3      12.004  20.111  19.5860  0.00  0.00     0.000 C
ATOM     39  O5  BDP B   3      10.759  19.423  19.7010  0.00  0.00     0.000 O
ATOM     40   O  BDP B   3      11.842  17.006  22.2010  0.00  0.00     0.000 O
ATOM     42  HD  BDP B   3      11.193  16.560  21.8400  0.00  0.00     0.000 HD
ATOM     42   O  BDP B   3      14.052  17.025  20.2610  0.00  0.00     0.000 O
ATOM     44  HD  BDP B   3      13.403  16.579  19.9000  0.00  0.00     0.000 HD
BRANCH 38 44
ATOM     44   C  BDP B   3      11.892  21.195  18.5610  0.00  0.00     0.000 C
ATOM     45   O  BDP B   3      11.508  20.878  17.4130  0.00  0.00     0.000 OA
ATOM     46   O  BDP B   3      12.180  22.372  18.8710  0.00  0.00     0.000 OA
ENDBRANCH 38 44
BRANCH 34 47
ATOM     47  O3  NAG B   4       9.492  18.074  20.4010  0.00  0.00     0.000 O
BRANCH 47 50
ATOM     48  C1  NAG B   4       6.386  18.790  22.3980  0.00  0.00     0.000 C
ATOM     49  C2  NAG B   4       7.748  18.190  22.0960  0.00  0.00     0.000 C
ATOM     50  C3  NAG B   4       8.229  18.684  20.7360  0.00  0.00     0.000 C
ATOM     51  C4  NAG B   4       7.216  18.388  19.6430  0.00  0.00     0.000 C
ATOM     52  C5  NAG B   4       5.850  18.954  20.0340  0.00  0.00     0.000 C
ATOM     53  O5  NAG B   4       5.467  18.482  21.3320  0.00  0.00     0.000 O
ATOM     54   O  NAG B   4       7.670  18.968  18.4170  0.00  0.00     0.000 O
ATOM     56  HD  NAG B   4       7.025  18.402  18.2990  0.00  0.00     0.000 HD
ATOM     56   C  NAG B   4       4.780  18.567  19.0190  0.00  0.00     0.000 C
ATOM     57   O  NAG B   4       4.687  17.138  18.9590  0.00  0.00     0.000 O
ATOM     59  HD  NAG B   4       4.043  16.572  18.8410  0.00  0.00     0.000 HD
BRANCH 49 61
ATOM     59   N  NAG B   4       8.439  18.448  23.3600  0.00  0.00     0.000 N
ATOM     61  HD  NAG B   4       7.965  17.822  22.9940  0.00  0.00     0.000 HD
ATOM     61   O  NAG B   4       9.325  16.385  23.6110  0.00  0.00     0.000 OA
ATOM     62   C  NAG B   4       9.224  17.550  23.9680  0.00  0.00     0.000 C
ATOM     63   C  NAG B   4      10.013  18.063  25.1300  0.00  0.00     0.000 C
ENDBRANCH 49 61
BRANCH 48 64
ATOM     64  O4  BDP B   5       5.724  19.131  23.6120  0.00  0.00     0.000 O
BRANCH 64 68
ATOM     65  C1  BDP B   5       5.646  16.850  27.0990  0.00  0.00     0.000 C
ATOM     66  C2  BDP B   5       4.440  16.706  26.1810  0.00  0.00     0.000 C
ATOM     67  C3  BDP B   5       4.786  17.232  24.7940  0.00  0.00     0.000 C
ATOM     68  C4  BDP B   5       5.277  18.673  24.8870  0.00  0.00     0.000 C
ATOM     69  C5  BDP B   5       6.415  18.829  25.8870  0.00  0.00     0.000 C
ATOM     70  O5  BDP B   5       6.071  18.221  27.1440  0.00  0.00     0.000 O
ATOM     71   O  BDP B   5       4.027  15.331  26.1390  0.00  0.00     0.000 O
ATOM     73  HD  BDP B   5       3.834  14.487  26.1340  0.00  0.00     0.000 HD
ATOM     73   O  BDP B   5       3.641  17.178  23.9350  0.00  0.00     0.000 O
ATOM     75  HD  BDP B   5       3.447  16.333  23.9300  0.00  0.00     0.000 HD
BRANCH 69 75
ATOM     75   C  BDP B   5       6.667  20.301  26.0910  0.00  0.00     0.000 C
ATOM     76   O  BDP B   5       7.730  20.793  25.6610  0.00  0.00     0.000 OA
ATOM     77   O  BDP B   5       5.808  20.984  26.6790  0.00  0.00     0.000 OA
ENDBRANCH 69 75
BRANCH 65 78
ATOM     78  O3  NAG B   6       5.616  17.050  28.5150  0.00  0.00     0.000 O
BRANCH 78 81
ATOM     79  C1  NAG B   6       7.415  15.264  31.3270  0.00  0.00     0.000 C
ATOM     80  C2  NAG B   6       6.460  15.438  30.1350  0.00  0.00     0.000 C
ATOM     81  C3  NAG B   6       6.614  16.825  29.5340  0.00  0.00     0.000 C
ATOM     82  C4  NAG B   6       6.507  17.904  30.6180  0.00  0.00     0.000 C
ATOM     83  C5  NAG B   6       7.516  17.613  31.7230  0.00  0.00     0.000 C
ATOM     84  O5  NAG B   6       7.202  16.331  32.2680  0.00  0.00     0.000 O
BRANCH 80 87
ATOM     85   N  NAG B   6       6.730  14.373  29.1720  0.00  0.00     0.000 N
ATOM     87  HD  NAG B   6       6.691  13.537  28.9510  0.00  0.00     0.000 HD
ATOM     87   C  NAG B   6       5.777  13.676  28.5410  0.00  0.00     0.000 C
ATOM     88   C  NAG B   6       6.263  12.651  27.5650  0.00  0.00     0.000 C
ATOM     89   O  NAG B   6       4.580  13.861  28.7250  0.00  0.00     0.000 OA
ENDBRANCH 80 87
ATOM     90   O  NAG B   6       8.738  19.388  32.8190  0.00  0.00     0.000 O
ATOM     92  HD  NAG B   6       8.749  18.560  32.5680  0.00  0.00     0.000 HD
ATOM     92   O  NAG B   6       8.738  19.388  32.8190  0.00  0.00     0.000 O
ATOM     94  HD  NAG B   6       8.749  18.560  32.5680  0.00  0.00     0.000 HD
ENDBRANCH 78 81
ENDBRANCH 65 78
ENDBRANCH 64 68
ENDBRANCH 48 64
ENDBRANCH 47 50
ENDBRANCH 34 47
ENDBRANCH 33 37
ENDBRANCH 17 33
ENDBRANCH 16 19
ENDBRANCH 1 16
TORSDOF 16
ENDMDL
MODEL 36
REMARK VINA RESULT:      -6.8      6.527     11.466
ROOT
ATOM      1  C1  BDP B   1      15.787  16.661  28.9160  0.00  0.00     0.000 C
ATOM      2  C2  BDP B   1      14.724  16.959  27.8740  0.00  0.00     0.000 C
ATOM      3  C3  BDP B   1      15.311  17.111  26.4870  0.00  0.00     0.000 C
ATOM      4  C4  BDP B   1      16.740  16.596  26.3580  0.00  0.00     0.000 C
ATOM      5  C5  BDP B   1      17.643  17.070  27.4930  0.00  0.00     0.000 C
ATOM      6  O5  BDP B   1      16.891  17.509  28.6360  0.00  0.00     0.000 O
ATOM      7   O  BDP B   1      13.742  15.917  27.8690  0.00  0.00     0.000 O
ATOM      9  HD  BDP B   1      13.217  15.366  28.2820  0.00  0.00     0.000 HD
ATOM      9   O  BDP B   1      15.310  18.495  26.1030  0.00  0.00     0.000 O
ATOM     11  HD  BDP B   1      14.785  17.944  26.5160  0.00  0.00     0.000 HD
ATOM     11   O  BDP B   1      16.752  15.165  26.2960  0.00  0.00     0.000 O
ATOM     13  HD  BDP B   1      16.228  14.614  26.7090  0.00  0.00     0.000 HD
ENDROOT
BRANCH 5 13
ATOM     13   C  BDP B   1      18.459  18.198  26.9650  0.00  0.00     0.000 C
ATOM     14   O  BDP B   1      18.006  19.356  27.0760  0.00  0.00     0.000 OA
ATOM     15   O  BDP B   1      19.575  17.955  26.4560  0.00  0.00     0.000 OA
ENDBRANCH 5 13
BRANCH 1 16
ATOM     16  O3  NAG B   2      15.929  15.555  29.8060  0.00  0.00     0.000 O
BRANCH 16 19
ATOM     17  C1  NAG B   2      15.050  12.161  30.7860  0.00  0.00     0.000 C
ATOM     18  C2  NAG B   2      15.260  13.215  29.6980  0.00  0.00     0.000 C
ATOM     19  C3  NAG B   2      16.321  14.219  30.1240  0.00  0.00     0.000 C
ATOM     20  C4  NAG B   2      16.633  14.115  31.6190  0.00  0.00     0.000 C
ATOM     21  C5  NAG B   2      15.434  13.772  32.5130  0.00  0.00     0.000 C
ATOM     22  O5  NAG B   2      14.504  12.873  31.8980  0.00  0.00     0.000 O
ATOM     23   O  NAG B   2      17.667  13.142  31.8010  0.00  0.00     0.000 O
ATOM     25  HD  NAG B   2      17.347  12.589  31.2150  0.00  0.00     0.000 HD
ATOM     25   C  NAG B   2      14.684  15.047  32.9250  0.00  0.00     0.000 C
ATOM     26   O  NAG B   2      15.271  15.658  34.0820  0.00  0.00     0.000 O
ATOM     28  HD  NAG B   2      14.951  15.106  33.4970  0.00  0.00     0.000 HD
BRANCH 18 30
ATOM     28   N  NAG B   2      16.006  11.998  29.3800  0.00  0.00     0.000 N
ATOM     30  HD  NAG B   2      16.755  11.594  29.5420  0.00  0.00     0.000 HD
ATOM     30   C  NAG B   2      16.529  11.710  28.1800  0.00  0.00     0.000 C
ATOM     31   C  NAG B   2      17.243  10.390  28.1030  0.00  0.00     0.000 C
ATOM     32   O  NAG B   2      16.448  12.445  27.2240  0.00  0.00     0.000 OA
ENDBRANCH 18 30
BRANCH 17 33
ATOM     33  O4  BDP B   3      14.261  11.148  31.4480  0.00  0.00     0.000 O
BRANCH 33 37
ATOM     34  C1  BDP B   3      13.990   7.465  33.5930  0.00  0.00     0.000 C
ATOM     35  C2  BDP B   3      15.316   7.777  32.9090  0.00  0.00     0.000 C
ATOM     36  C3  BDP B   3      15.482   9.247  32.5400  0.00  0.00     0.000 C
ATOM     37  C4  BDP B   3      14.193   9.757  31.8760  0.00  0.00     0.000 C
ATOM     38  C5  BDP B   3      13.037   9.496  32.8610  0.00  0.00     0.000 C
ATOM     39  O5  BDP B   3      12.888   8.077  32.9130  0.00  0.00     0.000 O
ATOM     40   O  BDP B   3      16.340   7.323  33.7960  0.00  0.00     0.000 O
ATOM     42  HD  BDP B   3      16.121   6.575  33.4180  0.00  0.00     0.000 HD
ATOM     42   O  BDP B   3      16.600   9.324  31.6580  0.00  0.00     0.000 O
ATOM     44  HD  BDP B   3      16.380   8.577  31.2790  0.00  0.00     0.000 HD
BRANCH 38 44
ATOM     44   C  BDP B   3      11.738  10.128  32.4710  0.00  0.00     0.000 C
ATOM     45   O  BDP B   3      11.063   9.575  31.5750  0.00  0.00     0.000 OA
ATOM     46   O  BDP B   3      11.365  11.177  33.0410  0.00  0.00     0.000 OA
ENDBRANCH 38 44
BRANCH 34 47
ATOM     47  O3  NAG B   4      13.463   6.204  33.1850  0.00  0.00     0.000 O
BRANCH 47 50
ATOM     48  C1  NAG B   4      10.456   4.832  34.9810  0.00  0.00     0.000 C
ATOM     49  C2  NAG B   4      11.906   5.240  34.7900  0.00  0.00     0.000 C
ATOM     50  C3  NAG B   4      12.078   5.870  33.4130  0.00  0.00     0.000 C
ATOM     51  C4  NAG B   4      11.592   4.944  32.3090  0.00  0.00     0.000 C
ATOM     52  C5  NAG B   4      10.153   4.511  32.5920  0.00  0.00     0.000 C
ATOM     53  O5  NAG B   4      10.046   3.959  33.9100  0.00  0.00     0.000 O
ATOM     54   O  NAG B   4      11.677   5.627  31.0560  0.00  0.00     0.000 O
ATOM     56  HD  NAG B   4      11.557   4.775  30.9640  0.00  0.00     0.000 HD
ATOM     56   C  NAG B   4       9.674   3.483  31.5730  0.00  0.00     0.000 C
ATOM     57   O  NAG B   4      10.523   2.330  31.6370  0.00  0.00     0.000 O
ATOM     59  HD  NAG B   4      10.404   1.477  31.5450  0.00  0.00     0.000 HD
BRANCH 49 61
ATOM     59   N  NAG B   4      12.138   5.908  36.0710  0.00  0.00     0.000 N
ATOM     61  HD  NAG B   4      12.225   5.120  35.7250  0.00  0.00     0.000 HD
ATOM     61   O  NAG B   4      14.129   4.943  36.5250  0.00  0.00     0.000 OA
ATOM     62   C  NAG B   4      13.258   5.759  36.7890  0.00  0.00     0.000 C
ATOM     63   C  NAG B   4      13.406   6.682  37.9570  0.00  0.00     0.000 C
ENDBRANCH 49 61
BRANCH 48 64
ATOM     64  O4  BDP B   5       9.624   4.717  36.1320  0.00  0.00     0.000 O
BRANCH 64 68
ATOM     65  C1  BDP B   5       7.949   7.015  39.1780  0.00  0.00     0.000 C
ATOM     66  C2  BDP B   5       7.639   5.525  39.2200  0.00  0.00     0.000 C
ATOM     67  C3  BDP B   5       8.631   4.771  38.3440  0.00  0.00     0.000 C
ATOM     68  C4  BDP B   5       8.609   5.329  36.9260  0.00  0.00     0.000 C
ATOM     69  C5  BDP B   5       8.814   6.838  36.8990  0.00  0.00     0.000 C
ATOM     70  O5  BDP B   5       7.922   7.487  37.8220  0.00  0.00     0.000 O
ATOM     71   O  BDP B   5       7.674   5.063  40.5790  0.00  0.00     0.000 O
ATOM     73  HD  BDP B   5       7.728   4.834  41.4130  0.00  0.00     0.000 HD
ATOM     73   O  BDP B   5       8.310   3.375  38.3080  0.00  0.00     0.000 O
ATOM     75  HD  BDP B   5       8.364   3.146  39.1410  0.00  0.00     0.000 HD
BRANCH 69 75
ATOM     75   C  BDP B   5       8.536   7.329  35.5010  0.00  0.00     0.000 C
ATOM     76   O  BDP B   5       7.507   6.930  34.9180  0.00  0.00     0.000 OA
ATOM     77   O  BDP B   5       9.337   8.121  34.9690  0.00  0.00     0.000 OA
ENDBRANCH 69 75
BRANCH 65 78
ATOM     78  O3  NAG B   6       7.008   8.082  39.3280  0.00  0.00     0.000 O
BRANCH 78 81
ATOM     79  C1  NAG B   6       7.773  11.704  40.1230  0.00  0.00     0.000 C
ATOM     80  C2  NAG B   6       7.793  10.177  40.2950  0.00  0.00     0.000 C
ATOM     81  C3  NAG B   6       7.130   9.504  39.1040  0.00  0.00     0.000 C
ATOM     82  C4  NAG B   6       5.750  10.111  38.8320  0.00  0.00     0.000 C
ATOM     83  C5  NAG B   6       5.884  11.621  38.6710  0.00  0.00     0.000 C
ATOM     84  O5  NAG B   6       6.422  12.140  39.8880  0.00  0.00     0.000 O
BRANCH 80 87
ATOM     85   N  NAG B   6       8.331   9.359  41.3790  0.00  0.00     0.000 N
ATOM     87  HD  NAG B   6       8.630   8.598  41.6650  0.00  0.00     0.000 HD
ATOM     87   C  NAG B   6       9.570   8.853  41.3910  0.00  0.00     0.000 C
ATOM     88   C  NAG B   6       9.940   8.071  42.6110  0.00  0.00     0.000 C
ATOM     89   O  NAG B   6      10.370   9.020  40.4770  0.00  0.00     0.000 OA
ENDBRANCH 80 87
ATOM     90   O  NAG B   6       4.588  12.837  37.0310  0.00  0.00     0.000 O
ATOM     92  HD  NAG B   6       5.331  12.802  37.4750  0.00  0.00     0.000 HD
ATOM     92   O  NAG B   6       4.588  12.837  37.0310  0.00  0.00     0.000 O
ATOM     94  HD  NAG B   6       5.331  12.802  37.4750  0.00  0.00     0.000 HD
ENDBRANCH 78 81
ENDBRANCH 65 78
ENDBRANCH 64 68
ENDBRANCH 48 64
ENDBRANCH 47 50
ENDBRANCH 34 47
ENDBRANCH 33 37
ENDBRANCH 17 33
ENDBRANCH 16 19
ENDBRANCH 1 16
TORSDOF 16
ENDMDL
MODEL 37
REMARK VINA RESULT:      -6.7      9.248     16.771
ROOT
ATOM      1  C1  BDP B   1      10.137  18.993  24.3150  0.00  0.00     0.000 C
ATOM      2  C2  BDP B   1       9.466  18.462  25.5690  0.00  0.00     0.000 C
ATOM      3  C3  BDP B   1       8.387  17.447  25.2520  0.00  0.00     0.000 C
ATOM      4  C4  BDP B   1       8.436  16.913  23.8250  0.00  0.00     0.000 C
ATOM      5  C5  BDP B   1       8.602  18.019  22.7870  0.00  0.00     0.000 C
ATOM      6  O5  BDP B   1       9.109  19.234  23.3650  0.00  0.00     0.000 O
ATOM      7   O  BDP B   1      10.444  17.870  26.4310  0.00  0.00     0.000 O
ATOM      9  HD  BDP B   1      11.218  17.877  26.8190  0.00  0.00     0.000 HD
ATOM      9   O  BDP B   1       7.091  18.031  25.4550  0.00  0.00     0.000 O
ATOM     11  HD  BDP B   1       7.865  18.038  25.8430  0.00  0.00     0.000 HD
ATOM     11   O  BDP B   1       9.493  15.956  23.6860  0.00  0.00     0.000 O
ATOM     13  HD  BDP B   1      10.267  15.963  24.0740  0.00  0.00     0.000 HD
ENDROOT
BRANCH 5 13
ATOM     13   C  BDP B   1       7.262  18.267  22.1890  0.00  0.00     0.000 C
ATOM     14   O  BDP B   1       6.927  17.595  21.1920  0.00  0.00     0.000 OA
ATOM     15   O  BDP B   1       6.509  19.115  22.7160  0.00  0.00     0.000 OA
ENDBRANCH 5 13
BRANCH 1 16
ATOM     16  O3  NAG B   2      11.505  18.965  23.9130  0.00  0.00     0.000 O
BRANCH 16 19
ATOM     17  C1  NAG B   2      14.779  19.280  22.3520  0.00  0.00     0.000 C
ATOM     18  C2  NAG B   2      13.917  19.104  23.6030  0.00  0.00     0.000 C
ATOM     19  C3  NAG B   2      12.630  18.367  23.2670  0.00  0.00     0.000 C
ATOM     20  C4  NAG B   2      12.387  18.309  21.7560  0.00  0.00     0.000 C
ATOM     21  C5  NAG B   2      12.840  19.551  20.9750  0.00  0.00     0.000 C
ATOM     22  O5  NAG B   2      14.030  20.150  21.5010  0.00  0.00     0.000 O
ATOM     23   O  NAG B   2      13.037  17.145  21.2350  0.00  0.00     0.000 O
ATOM     25  HD  NAG B   2      13.745  17.235  21.7250  0.00  0.00     0.000 HD
ATOM     25   C  NAG B   2      11.729  20.609  20.9490  0.00  0.00     0.000 C
ATOM     26   O  NAG B   2      10.798  20.376  19.8830  0.00  0.00     0.000 O
ATOM     28  HD  NAG B   2      11.506  20.466  20.3730  0.00  0.00     0.000 HD
BRANCH 18 30
ATOM     28   N  NAG B   2      15.027  18.152  23.5880  0.00  0.00     0.000 N
ATOM     30  HD  NAG B   2      15.299  17.426  23.2030  0.00  0.00     0.000 HD
ATOM     30   C  NAG B   2      15.323  17.303  24.5820  0.00  0.00     0.000 C
ATOM     31   C  NAG B   2      16.521  16.431  24.3330  0.00  0.00     0.000 C
ATOM     32   O  NAG B   2      14.683  17.225  25.6050  0.00  0.00     0.000 OA
ENDBRANCH 18 30
BRANCH 17 33
ATOM     33  O4  BDP B   3      15.815  19.947  21.5990  0.00  0.00     0.000 O
BRANCH 33 37
ATOM     34  C1  BDP B   3      19.307  18.852  19.3970  0.00  0.00     0.000 C
ATOM     35  C2  BDP B   3      19.252  20.268  19.9570  0.00  0.00     0.000 C
ATOM     36  C3  BDP B   3      18.213  20.450  21.0580  0.00  0.00     0.000 C
ATOM     37  C4  BDP B   3      16.892  19.795  20.6280  0.00  0.00     0.000 C
ATOM     38  C5  BDP B   3      17.196  18.319  20.3050  0.00  0.00     0.000 C
ATOM     39  O5  BDP B   3      17.998  18.340  19.1250  0.00  0.00     0.000 O
ATOM     40   O  BDP B   3      20.574  20.573  20.4050  0.00  0.00     0.000 O
ATOM     42  HD  BDP B   3      20.660  20.725  19.5570  0.00  0.00     0.000 HD
ATOM     42   O  BDP B   3      18.069  21.855  21.2570  0.00  0.00     0.000 O
ATOM     44  HD  BDP B   3      18.155  22.006  20.4090  0.00  0.00     0.000 HD
BRANCH 38 44
ATOM     44   C  BDP B   3      15.982  17.472  20.0790  0.00  0.00     0.000 C
ATOM     45   O  BDP B   3      15.795  16.502  20.8460  0.00  0.00     0.000 OA
ATOM     46   O  BDP B   3      15.200  17.750  19.1450  0.00  0.00     0.000 OA
ENDBRANCH 38 44
BRANCH 34 47
ATOM     47  O3  NAG B   4      19.538  18.843  17.9890  0.00  0.00     0.000 O
BRANCH 47 50
ATOM     48  C1  NAG B   4      21.831  16.057  16.9280  0.00  0.00     0.000 C
ATOM     49  C2  NAG B   4      21.387  17.285  17.7030  0.00  0.00     0.000 C
ATOM     50  C3  NAG B   4      19.956  17.639  17.3140  0.00  0.00     0.000 C
ATOM     51  C4  NAG B   4      19.815  17.825  15.8110  0.00  0.00     0.000 C
ATOM     52  C5  NAG B   4      20.342  16.589  15.0830  0.00  0.00     0.000 C
ATOM     53  O5  NAG B   4      21.675  16.286  15.5140  0.00  0.00     0.000 O
ATOM     54   O  NAG B   4      18.438  18.047  15.4970  0.00  0.00     0.000 O
ATOM     56  HD  NAG B   4      18.966  18.244  14.8390  0.00  0.00     0.000 HD
ATOM     56   C  NAG B   4      20.333  16.790  13.5720  0.00  0.00     0.000 C
ATOM     57   O  NAG B   4      21.166  17.909  13.2440  0.00  0.00     0.000 O
ATOM     59  HD  NAG B   4      21.694  18.105  12.5860  0.00  0.00     0.000 HD
BRANCH 49 61
ATOM     59   N  NAG B   4      22.585  18.091  17.4690  0.00  0.00     0.000 N
ATOM     61  HD  NAG B   4      21.833  18.153  17.8930  0.00  0.00     0.000 HD
ATOM     61   O  NAG B   4      22.803  18.872  19.5780  0.00  0.00     0.000 OA
ATOM     62   C  NAG B   4      23.229  18.753  18.4380  0.00  0.00     0.000 C
ATOM     63   C  NAG B   4      24.549  19.343  18.0520  0.00  0.00     0.000 C
ENDBRANCH 49 61
BRANCH 48 64
ATOM     64  O4  BDP B   5      22.752  15.009  17.2160  0.00  0.00     0.000 O
BRANCH 64 68
ATOM     65  C1  BDP B   5      22.719  12.696  20.6840  0.00  0.00     0.000 C
ATOM     66  C2  BDP B   5      23.842  13.719  20.5750  0.00  0.00     0.000 C
ATOM     67  C3  BDP B   5      23.493  14.752  19.5120  0.00  0.00     0.000 C
ATOM     68  C4  BDP B   5      23.204  14.062  18.1830  0.00  0.00     0.000 C
ATOM     69  C5  BDP B   5      22.154  12.967  18.3210  0.00  0.00     0.000 C
ATOM     70  O5  BDP B   5      22.484  12.084  19.4060  0.00  0.00     0.000 O
ATOM     71   O  BDP B   5      24.065  14.329  21.8550  0.00  0.00     0.000 O
ATOM     73  HD  BDP B   5      24.144  14.679  22.6430  0.00  0.00     0.000 HD
ATOM     73   O  BDP B   5      24.571  15.679  19.3380  0.00  0.00     0.000 O
ATOM     75  HD  BDP B   5      24.650  16.029  20.1260  0.00  0.00     0.000 HD
BRANCH 69 75
ATOM     75   C  BDP B   5      22.112  12.187  17.0310  0.00  0.00     0.000 C
ATOM     76   O  BDP B   5      23.160  11.648  16.6220  0.00  0.00     0.000 OA
ATOM     77   O  BDP B   5      21.034  12.099  16.4140  0.00  0.00     0.000 OA
ENDBRANCH 69 75
BRANCH 65 78
ATOM     78  O3  NAG B   6      22.854  11.324  21.0630  0.00  0.00     0.000 O
BRANCH 78 81
ATOM     79  C1  NAG B   6      21.241   8.998  23.5770  0.00  0.00     0.000 C
ATOM     80  C2  NAG B   6      22.154  10.123  23.0650  0.00  0.00     0.000 C
ATOM     81  C3  NAG B   6      21.897  10.378  21.5880  0.00  0.00     0.000 C
ATOM     82  C4  NAG B   6      21.961   9.072  20.7890  0.00  0.00     0.000 C
ATOM     83  C5  NAG B   6      21.000   8.058  21.4000  0.00  0.00     0.000 C
ATOM     84  O5  NAG B   6      21.408   7.833  22.7490  0.00  0.00     0.000 O
BRANCH 80 87
ATOM     85   N  NAG B   6      23.119  10.861  23.8740  0.00  0.00     0.000 N
ATOM     87  HD  NAG B   6      23.658  11.533  23.9690  0.00  0.00     0.000 HD
ATOM     87   C  NAG B   6      22.909  12.094  24.3520  0.00  0.00     0.000 C
ATOM     88   C  NAG B   6      24.010  12.662  25.1890  0.00  0.00     0.000 C
ATOM     89   O  NAG B   6      21.881  12.726  24.1410  0.00  0.00     0.000 OA
ENDBRANCH 80 87
ATOM     90   O  NAG B   6      19.694   6.564  20.0180  0.00  0.00     0.000 O
ATOM     92  HD  NAG B   6      19.729   7.003  20.7630  0.00  0.00     0.000 HD
ATOM     92   O  NAG B   6      19.694   6.564  20.0180  0.00  0.00     0.000 O
ATOM     94  HD  NAG B   6      19.729   7.003  20.7630  0.00  0.00     0.000 HD
ENDBRANCH 78 81
ENDBRANCH 65 78
ENDBRANCH 64 68
ENDBRANCH 48 64
ENDBRANCH 47 50
ENDBRANCH 34 47
ENDBRANCH 33 37
ENDBRANCH 17 33
ENDBRANCH 16 19
ENDBRANCH 1 16
TORSDOF 16
ENDMDL
MODEL 38
REMARK VINA RESULT:      -6.7      4.983     15.892
ROOT
ATOM      1  C1  BDP B   1      14.056   9.142  31.6430  0.00  0.00     0.000 C
ATOM      2  C2  BDP B   1      13.002   8.102  31.3070  0.00  0.00     0.000 C
ATOM      3  C3  BDP B   1      11.666   8.419  31.9440  0.00  0.00     0.000 C
ATOM      4  C4  BDP B   1      11.551   9.845  32.4720  0.00  0.00     0.000 C
ATOM      5  C5  BDP B   1      12.769  10.272  33.2870  0.00  0.00     0.000 C
ATOM      6  O5  BDP B   1      13.915   9.445  33.0230  0.00  0.00     0.000 O
ATOM      7   O  BDP B   1      12.847   8.008  29.8870  0.00  0.00     0.000 O
ATOM      9  HD  BDP B   1      13.178   7.966  29.0880  0.00  0.00     0.000 HD
ATOM      9   O  BDP B   1      11.423   7.527  33.0430  0.00  0.00     0.000 O
ATOM     11  HD  BDP B   1      11.754   7.485  32.2440  0.00  0.00     0.000 HD
ATOM     11   O  BDP B   1      11.347  10.763  31.3910  0.00  0.00     0.000 O
ATOM     13  HD  BDP B   1      11.678  10.721  30.5920  0.00  0.00     0.000 HD
ENDROOT
BRANCH 5 13
ATOM     13   C  BDP B   1      12.395  10.169  34.7240  0.00  0.00     0.000 C
ATOM     14   O  BDP B   1      11.288  10.624  35.0800  0.00  0.00     0.000 OA
ATOM     15   O  BDP B   1      13.182   9.612  35.5190  0.00  0.00     0.000 OA
ENDBRANCH 5 13
BRANCH 1 16
ATOM     16  O3  NAG B   2      14.837   9.979  30.7920  0.00  0.00     0.000 O
BRANCH 16 19
ATOM     17  C1  NAG B   2      17.949  11.216  29.3650  0.00  0.00     0.000 C
ATOM     18  C2  NAG B   2      16.464  10.883  29.2200  0.00  0.00     0.000 C
ATOM     19  C3  NAG B   2      15.745  11.055  30.5500  0.00  0.00     0.000 C
ATOM     20  C4  NAG B   2      16.730  11.172  31.7170  0.00  0.00     0.000 C
ATOM     21  C5  NAG B   2      18.001  10.322  31.5840  0.00  0.00     0.000 C
ATOM     22  O5  NAG B   2      18.475  10.213  30.2370  0.00  0.00     0.000 O
ATOM     23   O  NAG B   2      17.083  12.550  31.8770  0.00  0.00     0.000 O
ATOM     25  HD  NAG B   2      17.139  12.707  31.0270  0.00  0.00     0.000 HD
ATOM     25   C  NAG B   2      17.766   8.908  32.1360  0.00  0.00     0.000 C
ATOM     26   O  NAG B   2      17.972   8.852  33.5550  0.00  0.00     0.000 O
ATOM     28  HD  NAG B   2      18.028   9.009  32.7050  0.00  0.00     0.000 HD
BRANCH 18 30
ATOM     28   N  NAG B   2      16.786  12.143  28.5510  0.00  0.00     0.000 N
ATOM     30  HD  NAG B   2      17.093  12.938  28.7040  0.00  0.00     0.000 HD
ATOM     30   C  NAG B   2      15.886  12.986  28.0260  0.00  0.00     0.000 C
ATOM     31   C  NAG B   2      16.469  14.211  27.3810  0.00  0.00     0.000 C
ATOM     32   O  NAG B   2      14.693  12.794  28.0630  0.00  0.00     0.000 OA
ENDBRANCH 18 30
BRANCH 17 33
ATOM     33  O4  BDP B   3      19.326  11.124  28.9390  0.00  0.00     0.000 O
BRANCH 33 37
ATOM     34  C1  BDP B   3      21.264  10.838  25.1440  0.00  0.00     0.000 C
ATOM     35  C2  BDP B   3      20.857   9.533  25.8190  0.00  0.00     0.000 C
ATOM     36  C3  BDP B   3      19.823   9.714  26.9240  0.00  0.00     0.000 C
ATOM     37  C4  BDP B   3      20.233  10.890  27.8220  0.00  0.00     0.000 C
ATOM     38  C5  BDP B   3      20.388  12.126  26.9160  0.00  0.00     0.000 C
ATOM     39  O5  BDP B   3      21.532  11.867  26.1030  0.00  0.00     0.000 O
ATOM     40   O  BDP B   3      20.392   8.673  24.7770  0.00  0.00     0.000 O
ATOM     42  HD  BDP B   3      21.248   8.567  24.6950  0.00  0.00     0.000 HD
ATOM     42   O  BDP B   3      19.776   8.485  27.6460  0.00  0.00     0.000 O
ATOM     44  HD  BDP B   3      20.631   8.379  27.5640  0.00  0.00     0.000 HD
BRANCH 38 44
ATOM     44   C  BDP B   3      20.572  13.416  27.6540  0.00  0.00     0.000 C
ATOM     45   O  BDP B   3      19.547  14.051  27.9860  0.00  0.00     0.000 OA
ATOM     46   O  BDP B   3      21.726  13.820  27.9150  0.00  0.00     0.000 OA
ENDBRANCH 38 44
BRANCH 34 47
ATOM     47  O3  NAG B   4      22.653  10.861  24.8200  0.00  0.00     0.000 O
BRANCH 47 50
ATOM     48  C1  NAG B   4      23.621  12.182  21.4340  0.00  0.00     0.000 C
ATOM     49  C2  NAG B   4      23.005  11.224  22.4380  0.00  0.00     0.000 C
ATOM     50  C3  NAG B   4      23.172  11.788  23.8450  0.00  0.00     0.000 C
ATOM     51  C4  NAG B   4      24.629  12.090  24.1570  0.00  0.00     0.000 C
ATOM     52  C5  NAG B   4      25.214  13.000  23.0760  0.00  0.00     0.000 C
ATOM     53  O5  NAG B   4      24.998  12.435  21.7770  0.00  0.00     0.000 O
ATOM     54   O  NAG B   4      24.711  12.715  25.4410  0.00  0.00     0.000 O
ATOM     56  HD  NAG B   4      25.481  12.443  25.1530  0.00  0.00     0.000 HD
ATOM     56   C  NAG B   4      26.707  13.223  23.2880  0.00  0.00     0.000 C
ATOM     57   O  NAG B   4      27.380  11.958  23.2400  0.00  0.00     0.000 O
ATOM     59  HD  NAG B   4      28.150  11.686  22.9520  0.00  0.00     0.000 HD
BRANCH 49 61
ATOM     59   N  NAG B   4      21.776  10.950  21.6920  0.00  0.00     0.000 N
ATOM     61  HD  NAG B   4      22.564  10.606  21.7960  0.00  0.00     0.000 HD
ATOM     61   O  NAG B   4      21.744   8.717  22.0340  0.00  0.00     0.000 OA
ATOM     62   C  NAG B   4      21.215   9.737  21.6160  0.00  0.00     0.000 C
ATOM     63   C  NAG B   4      19.856   9.691  20.9940  0.00  0.00     0.000 C
ENDBRANCH 49 61
BRANCH 48 64
ATOM     64  O4  BDP B   5      23.332  12.476  20.0700  0.00  0.00     0.000 O
BRANCH 64 68
ATOM     65  C1  BDP B   5      22.021  14.395  16.6110  0.00  0.00     0.000 C
ATOM     66  C2  BDP B   5      21.868  15.179  17.9070  0.00  0.00     0.000 C
ATOM     67  C3  BDP B   5      22.753  14.566  18.9840  0.00  0.00     0.000 C
ATOM     68  C4  BDP B   5      22.422  13.088  19.1570  0.00  0.00     0.000 C
ATOM     69  C5  BDP B   5      22.474  12.330  17.8370  0.00  0.00     0.000 C
ATOM     70  O5  BDP B   5      21.705  13.012  16.8310  0.00  0.00     0.000 O
ATOM     71   O  BDP B   5      22.191  16.559  17.6770  0.00  0.00     0.000 O
ATOM     73  HD  BDP B   5      22.415  17.374  17.4880  0.00  0.00     0.000 HD
ATOM     73   O  BDP B   5      22.566  15.242  20.2340  0.00  0.00     0.000 O
ATOM     75  HD  BDP B   5      22.791  16.056  20.0450  0.00  0.00     0.000 HD
BRANCH 69 75
ATOM     75   C  BDP B   5      21.903  10.952  18.0600  0.00  0.00     0.000 C
ATOM     76   O  BDP B   5      22.632  10.075  18.5650  0.00  0.00     0.000 OA
ATOM     77   O  BDP B   5      20.721  10.730  17.7380  0.00  0.00     0.000 OA
ENDBRANCH 69 75
BRANCH 65 78
ATOM     78  O3  NAG B   6      21.025  14.227  15.5980  0.00  0.00     0.000 O
BRANCH 78 81
ATOM     79  C1  NAG B   6      20.499  15.004  11.9300  0.00  0.00     0.000 C
ATOM     80  C2  NAG B   6      20.528  15.256  13.4460  0.00  0.00     0.000 C
ATOM     81  C3  NAG B   6      21.134  14.063  14.1670  0.00  0.00     0.000 C
ATOM     82  C4  NAG B   6      20.450  12.761  13.7370  0.00  0.00     0.000 C
ATOM     83  C5  NAG B   6      20.507  12.637  12.2180  0.00  0.00     0.000 C
ATOM     84  O5  NAG B   6      19.821  13.762  11.6670  0.00  0.00     0.000 O
BRANCH 80 87
ATOM     85   N  NAG B   6      21.092  16.600  13.5370  0.00  0.00     0.000 N
ATOM     87  HD  NAG B   6      20.982  17.459  13.5530  0.00  0.00     0.000 HD
ATOM     87   C  NAG B   6      20.874  17.437  14.5590  0.00  0.00     0.000 C
ATOM     88   C  NAG B   6      21.573  18.757  14.4770  0.00  0.00     0.000 C
ATOM     89   O  NAG B   6      20.162  17.153  15.5150  0.00  0.00     0.000 OA
ENDBRANCH 80 87
ATOM     90   O  NAG B   6      20.894  10.509  11.1370  0.00  0.00     0.000 O
ATOM     92  HD  NAG B   6      20.997  11.367  11.0870  0.00  0.00     0.000 HD
ATOM     92   O  NAG B   6      20.894  10.509  11.1370  0.00  0.00     0.000 O
ATOM     94  HD  NAG B   6      20.997  11.367  11.0870  0.00  0.00     0.000 HD
ENDBRANCH 78 81
ENDBRANCH 65 78
ENDBRANCH 64 68
ENDBRANCH 48 64
ENDBRANCH 47 50
ENDBRANCH 34 47
ENDBRANCH 33 37
ENDBRANCH 17 33
ENDBRANCH 16 19
ENDBRANCH 1 16
TORSDOF 16
ENDMDL
MODEL 39
REMARK VINA RESULT:      -6.6      4.545     16.321
ROOT
ATOM      1  C1  BDP B   1      14.914   9.326  31.8280  0.00  0.00     0.000 C
ATOM      2  C2  BDP B   1      13.897   8.207  31.6870  0.00  0.00     0.000 C
ATOM      3  C3  BDP B   1      12.517   8.631  32.1400  0.00  0.00     0.000 C
ATOM      4  C4  BDP B   1      12.350  10.139  32.2970  0.00  0.00     0.000 C
ATOM      5  C5  BDP B   1      13.503  10.783  33.0610  0.00  0.00     0.000 C
ATOM      6  O5  BDP B   1      14.674   9.949  33.0810  0.00  0.00     0.000 O
ATOM      7   O  BDP B   1      13.843   7.768  30.3250  0.00  0.00     0.000 O
ATOM      9  HD  BDP B   1      14.229   7.544  29.5830  0.00  0.00     0.000 HD
ATOM      9   O  BDP B   1      12.208   8.024  33.4040  0.00  0.00     0.000 O
ATOM     11  HD  BDP B   1      12.594   7.800  32.6630  0.00  0.00     0.000 HD
ATOM     11   O  BDP B   1      12.211  10.762  31.0150  0.00  0.00     0.000 O
ATOM     13  HD  BDP B   1      12.598  10.538  30.2730  0.00  0.00     0.000 HD
ENDROOT
BRANCH 5 13
ATOM     13   C  BDP B   1      13.031  11.020  34.4530  0.00  0.00     0.000 C
ATOM     14   O  BDP B   1      12.412  12.077  34.6940  0.00  0.00     0.000 OA
ATOM     15   O  BDP B   1      13.245  10.149  35.3240  0.00  0.00     0.000 OA
ENDBRANCH 5 13
BRANCH 1 16
ATOM     16  O3  NAG B   2      15.743   9.954  30.8520  0.00  0.00     0.000 O
BRANCH 16 19
ATOM     17  C1  NAG B   2      18.372  11.175  28.6490  0.00  0.00     0.000 C
ATOM     18  C2  NAG B   2      16.901  10.844  28.9010  0.00  0.00     0.000 C
ATOM     19  C3  NAG B   2      16.555  11.026  30.3720  0.00  0.00     0.000 C
ATOM     20  C4  NAG B   2      17.812  11.150  31.2390  0.00  0.00     0.000 C
ATOM     21  C5  NAG B   2      19.004  10.296  30.7840  0.00  0.00     0.000 C
ATOM     22  O5  NAG B   2      19.108  10.178  29.3600  0.00  0.00     0.000 O
ATOM     23   O  NAG B   2      18.194  12.528  31.2910  0.00  0.00     0.000 O
ATOM     25  HD  NAG B   2      18.026  12.679  30.4550  0.00  0.00     0.000 HD
ATOM     25   C  NAG B   2      18.922   8.888  31.3880  0.00  0.00     0.000 C
ATOM     26   O  NAG B   2      19.493   8.840  32.7040  0.00  0.00     0.000 O
ATOM     28  HD  NAG B   2      19.324   8.991  31.8680  0.00  0.00     0.000 HD
BRANCH 18 30
ATOM     28   N  NAG B   2      17.046  12.157  28.2760  0.00  0.00     0.000 N
ATOM     30  HD  NAG B   2      17.297  12.969  28.4430  0.00  0.00     0.000 HD
ATOM     30   C  NAG B   2      16.029  12.939  27.8850  0.00  0.00     0.000 C
ATOM     31   C  NAG B   2      16.438  14.241  27.2570  0.00  0.00     0.000 C
ATOM     32   O  NAG B   2      14.867  12.638  28.0250  0.00  0.00     0.000 OA
ENDBRANCH 18 30
BRANCH 17 33
ATOM     33  O4  BDP B   3      19.589  11.077  27.8780  0.00  0.00     0.000 O
BRANCH 33 37
ATOM     34  C1  BDP B   3      21.318   9.768  24.1980  0.00  0.00     0.000 C
ATOM     35  C2  BDP B   3      20.192   8.922  24.7790  0.00  0.00     0.000 C
ATOM     36  C3  BDP B   3      19.357   9.651  25.8270  0.00  0.00     0.000 C
ATOM     37  C4  BDP B   3      20.289  10.377  26.8080  0.00  0.00     0.000 C
ATOM     38  C5  BDP B   3      21.189  11.313  25.9780  0.00  0.00     0.000 C
ATOM     39  O5  BDP B   3      22.045  10.455  25.2240  0.00  0.00     0.000 O
ATOM     40   O  BDP B   3      19.405   8.487  23.6680  0.00  0.00     0.000 O
ATOM     42  HD  BDP B   3      20.053   7.914  23.6330  0.00  0.00     0.000 HD
ATOM     42   O  BDP B   3      18.565   8.661  26.4810  0.00  0.00     0.000 O
ATOM     44  HD  BDP B   3      19.213   8.088  26.4450  0.00  0.00     0.000 HD
BRANCH 38 44
ATOM     44   C  BDP B   3      22.012  12.263  26.7910  0.00  0.00     0.000 C
ATOM     45   O  BDP B   3      22.763  11.783  27.6680  0.00  0.00     0.000 OA
ATOM     46   O  BDP B   3      21.927  13.492  26.5780  0.00  0.00     0.000 OA
ENDBRANCH 38 44
BRANCH 34 47
ATOM     47  O3  NAG B   4      22.496   9.000  23.9620  0.00  0.00     0.000 O
BRANCH 47 50
ATOM     48  C1  NAG B   4      23.873   8.433  20.5080  0.00  0.00     0.000 C
ATOM     49  C2  NAG B   4      22.959   8.221  21.7020  0.00  0.00     0.000 C
ATOM     50  C3  NAG B   4      23.309   9.228  22.7920  0.00  0.00     0.000 C
ATOM     51  C4  NAG B   4      24.779   9.152  23.1730  0.00  0.00     0.000 C
ATOM     52  C5  NAG B   4      25.647   9.301  21.9230  0.00  0.00     0.000 C
ATOM     53  O5  NAG B   4      25.250   8.354  20.9230  0.00  0.00     0.000 O
ATOM     54   O  NAG B   4      25.070  10.187  24.1160  0.00  0.00     0.000 O
ATOM     56  HD  NAG B   4      25.697   9.592  24.0690  0.00  0.00     0.000 HD
ATOM     56   C  NAG B   4      27.123   9.105  22.2480  0.00  0.00     0.000 C
ATOM     57   O  NAG B   4      27.313   7.790  22.7870  0.00  0.00     0.000 O
ATOM     59  HD  NAG B   4      27.940   7.196  22.7400  0.00  0.00     0.000 HD
BRANCH 49 61
ATOM     59   N  NAG B   4      21.751   8.019  20.9000  0.00  0.00     0.000 N
ATOM     61  HD  NAG B   4      22.357   7.542  21.2940  0.00  0.00     0.000 HD
ATOM     61   O  NAG B   4      20.904   6.312  22.1120  0.00  0.00     0.000 OA
ATOM     62   C  NAG B   4      20.797   7.135  21.2150  0.00  0.00     0.000 C
ATOM     63   C  NAG B   4      19.543   7.220  20.4030  0.00  0.00     0.000 C
ENDBRANCH 49 61
BRANCH 48 64
ATOM     64  O4  BDP B   5      23.707   8.216  19.1090  0.00  0.00     0.000 O
BRANCH 64 68
ATOM     65  C1  BDP B   5      24.044   7.962  14.9630  0.00  0.00     0.000 C
ATOM     66  C2  BDP B   5      25.244   7.469  15.7610  0.00  0.00     0.000 C
ATOM     67  C3  BDP B   5      24.830   7.218  17.2050  0.00  0.00     0.000 C
ATOM     68  C4  BDP B   5      24.214   8.479  17.8020  0.00  0.00     0.000 C
ATOM     69  C5  BDP B   5      23.082   9.026  16.9430  0.00  0.00     0.000 C
ATOM     70  O5  BDP B   5      23.499   9.143  15.5710  0.00  0.00     0.000 O
ATOM     71   O  BDP B   5      25.777   6.285  15.1480  0.00  0.00     0.000 O
ATOM     73  HD  BDP B   5      26.045   5.564  14.7500  0.00  0.00     0.000 HD
ATOM     73   O  BDP B   5      25.962   6.827  17.9920  0.00  0.00     0.000 O
ATOM     75  HD  BDP B   5      26.231   6.106  17.5940  0.00  0.00     0.000 HD
BRANCH 69 75
ATOM     75   C  BDP B   5      22.702  10.386  17.4710  0.00  0.00     0.000 C
ATOM     76   O  BDP B   5      23.601  11.234  17.6470  0.00  0.00     0.000 OA
ATOM     77   O  BDP B   5      21.505  10.627  17.7130  0.00  0.00     0.000 OA
ENDBRANCH 69 75
BRANCH 65 78
ATOM     78  O3  NAG B   6      24.078   8.835  13.8310  0.00  0.00     0.000 O
BRANCH 78 81
ATOM     79  C1  NAG B   6      23.001   8.887  10.2010  0.00  0.00     0.000 C
ATOM     80  C2  NAG B   6      23.896   8.585  11.4140  0.00  0.00     0.000 C
ATOM     81  C3  NAG B   6      23.188   8.972  12.7010  0.00  0.00     0.000 C
ATOM     82  C4  NAG B   6      22.660  10.408  12.6230  0.00  0.00     0.000 C
ATOM     83  C5  NAG B   6      21.782  10.559  11.3860  0.00  0.00     0.000 C
ATOM     84  O5  NAG B   6      22.589  10.265  10.2450  0.00  0.00     0.000 O
BRANCH 80 87
ATOM     85   N  NAG B   6      25.197   7.950  11.2190  0.00  0.00     0.000 N
ATOM     87  HD  NAG B   6      25.925   7.618  11.5500  0.00  0.00     0.000 HD
ATOM     87   C  NAG B   6      25.492   6.707  11.6200  0.00  0.00     0.000 C
ATOM     88   C  NAG B   6      26.871   6.230  11.2940  0.00  0.00     0.000 C
ATOM     89   O  NAG B   6      24.692   5.986  12.2050  0.00  0.00     0.000 OA
ENDBRANCH 80 87
ATOM     90   O  NAG B   6      19.763  11.888  11.4230  0.00  0.00     0.000 O
ATOM     92  HD  NAG B   6      20.164  11.204  11.0750  0.00  0.00     0.000 HD
ATOM     92   O  NAG B   6      19.763  11.888  11.4230  0.00  0.00     0.000 O
ATOM     94  HD  NAG B   6      20.164  11.204  11.0750  0.00  0.00     0.000 HD
ENDBRANCH 78 81
ENDBRANCH 65 78
ENDBRANCH 64 68
ENDBRANCH 48 64
ENDBRANCH 47 50
ENDBRANCH 34 47
ENDBRANCH 33 37
ENDBRANCH 17 33
ENDBRANCH 16 19
ENDBRANCH 1 16
TORSDOF 16
ENDMDL
MODEL 40
REMARK VINA RESULT:      -6.6     11.955     20.170
ROOT
ATOM      1  C1  BDP B   1       8.819  16.862  23.4300  0.00  0.00     0.000 C
ATOM      2  C2  BDP B   1       7.449  16.422  22.9450  0.00  0.00     0.000 C
ATOM      3  C3  BDP B   1       6.335  16.967  23.8120  0.00  0.00     0.000 C
ATOM      4  C4  BDP B   1       6.766  18.097  24.7410  0.00  0.00     0.000 C
ATOM      5  C5  BDP B   1       8.064  17.789  25.4810  0.00  0.00     0.000 C
ATOM      6  O5  BDP B   1       8.816  16.742  24.8450  0.00  0.00     0.000 O
ATOM      7   O  BDP B   1       7.254  16.842  21.5900  0.00  0.00     0.000 O
ATOM      9  HD  BDP B   1       7.536  16.942  20.7780  0.00  0.00     0.000 HD
ATOM      9   O  BDP B   1       5.789  15.918  24.6270  0.00  0.00     0.000 O
ATOM     11  HD  BDP B   1       6.071  16.018  23.8140  0.00  0.00     0.000 HD
ATOM     11   O  BDP B   1       6.907  19.320  24.0080  0.00  0.00     0.000 O
ATOM     13  HD  BDP B   1       7.189  19.420  23.1950  0.00  0.00     0.000 HD
ENDROOT
BRANCH 5 13
ATOM     13   C  BDP B   1       7.695  17.373  26.8620  0.00  0.00     0.000 C
ATOM     14   O  BDP B   1       8.288  16.395  27.3620  0.00  0.00     0.000 OA
ATOM     15   O  BDP B   1       6.829  18.027  27.4830  0.00  0.00     0.000 OA
ENDBRANCH 5 13
BRANCH 1 16
ATOM     16  O3  NAG B   2       9.845  17.596  22.7660  0.00  0.00     0.000 O
BRANCH 16 19
ATOM     17  C1  NAG B   2      12.361  19.647  21.1170  0.00  0.00     0.000 C
ATOM     18  C2  NAG B   2      11.934  18.753  22.2810  0.00  0.00     0.000 C
ATOM     19  C3  NAG B   2      10.909  17.728  21.8210  0.00  0.00     0.000 C
ATOM     20  C4  NAG B   2      10.336  18.077  20.4440  0.00  0.00     0.000 C
ATOM     21  C5  NAG B   2      10.163  19.577  20.1720  0.00  0.00     0.000 C
ATOM     22  O5  NAG B   2      11.189  20.385  20.7610  0.00  0.00     0.000 O
ATOM     23   O  NAG B   2      11.176  17.495  19.4420  0.00  0.00     0.000 O
ATOM     25  HD  NAG B   2      11.915  17.688  19.8500  0.00  0.00     0.000 HD
ATOM     25   C  NAG B   2       8.801  20.067  20.6820  0.00  0.00     0.000 C
ATOM     26   O  NAG B   2       7.763  19.852  19.7160  0.00  0.00     0.000 O
ATOM     28  HD  NAG B   2       8.502  20.045  20.1230  0.00  0.00     0.000 HD
BRANCH 18 30
ATOM     28   N  NAG B   2      13.077  18.090  21.6560  0.00  0.00     0.000 N
ATOM     30  HD  NAG B   2      13.285  17.416  21.1540  0.00  0.00     0.000 HD
ATOM     30   C  NAG B   2      14.036  17.427  22.3180  0.00  0.00     0.000 C
ATOM     31   C  NAG B   2      15.113  16.840  21.4490  0.00  0.00     0.000 C
ATOM     32   O  NAG B   2      14.047  17.294  23.5190  0.00  0.00     0.000 OA
ENDBRANCH 18 30
BRANCH 17 33
ATOM     33  O4  BDP B   3      12.912  20.870  20.5800  0.00  0.00     0.000 O
BRANCH 33 37
ATOM     34  C1  BDP B   3      16.510  21.786  18.4690  0.00  0.00     0.000 C
ATOM     35  C2  BDP B   3      16.224  22.583  19.7360  0.00  0.00     0.000 C
ATOM     36  C3  BDP B   3      15.184  21.934  20.6430  0.00  0.00     0.000 C
ATOM     37  C4  BDP B   3      13.986  21.471  19.8000  0.00  0.00     0.000 C
ATOM     38  C5  BDP B   3      14.531  20.525  18.7130  0.00  0.00     0.000 C
ATOM     39  O5  BDP B   3      15.302  21.346  17.8370  0.00  0.00     0.000 O
ATOM     40   O  BDP B   3      17.481  22.756  20.3930  0.00  0.00     0.000 O
ATOM     42  HD  BDP B   3      17.529  23.384  19.7990  0.00  0.00     0.000 HD
ATOM     42   O  BDP B   3      14.807  22.919  21.6040  0.00  0.00     0.000 O
ATOM     44  HD  BDP B   3      14.854  23.548  21.0100  0.00  0.00     0.000 HD
BRANCH 38 44
ATOM     44   C  BDP B   3      13.475  19.804  17.9340  0.00  0.00     0.000 C
ATOM     45   O  BDP B   3      12.759  20.476  17.1590  0.00  0.00     0.000 OA
ATOM     46   O  BDP B   3      13.337  18.570  18.0750  0.00  0.00     0.000 OA
ENDBRANCH 38 44
BRANCH 34 47
ATOM     47  O3  NAG B   4      16.720  22.634  17.3410  0.00  0.00     0.000 O
BRANCH 47 50
ATOM     48  C1  NAG B   4      19.325  21.424  14.9120  0.00  0.00     0.000 C
ATOM     49  C2  NAG B   4      18.766  21.907  16.2390  0.00  0.00     0.000 C
ATOM     50  C3  NAG B   4      17.261  22.111  16.1110  0.00  0.00     0.000 C
ATOM     51  C4  NAG B   4      16.920  23.052  14.9660  0.00  0.00     0.000 C
ATOM     52  C5  NAG B   4      17.567  22.554  13.6740  0.00  0.00     0.000 C
ATOM     53  O5  NAG B   4      18.972  22.349  13.8650  0.00  0.00     0.000 O
ATOM     54   O  NAG B   4      15.498  23.119  14.8260  0.00  0.00     0.000 O
ATOM     56  HD  NAG B   4      15.906  23.747  14.3910  0.00  0.00     0.000 HD
ATOM     56   C  NAG B   4      17.351  23.540  12.5310  0.00  0.00     0.000 C
ATOM     57   O  NAG B   4      17.936  24.800  12.8840  0.00  0.00     0.000 O
ATOM     59  HD  NAG B   4      18.344  25.428  12.4480  0.00  0.00     0.000 HD
BRANCH 49 61
ATOM     59   N  NAG B   4      19.493  20.972  17.0990  0.00  0.00     0.000 N
ATOM     61  HD  NAG B   4      19.581  21.778  16.7960  0.00  0.00     0.000 HD
ATOM     61   O  NAG B   4      20.091  22.467  18.6830  0.00  0.00     0.000 OA
ATOM     62   C  NAG B   4      20.027  21.316  18.2770  0.00  0.00     0.000 C
ATOM     63   C  NAG B   4      20.540  20.184  19.1100  0.00  0.00     0.000 C
ENDBRANCH 49 61
BRANCH 48 64
ATOM     64  O4  BDP B   5      20.440  20.606  14.5700  0.00  0.00     0.000 O
BRANCH 64 68
ATOM     65  C1  BDP B   5      22.634  17.105  14.0220  0.00  0.00     0.000 C
ATOM     66  C2  BDP B   5      22.830  18.187  12.9680  0.00  0.00     0.000 C
ATOM     67  C3  BDP B   5      22.330  19.522  13.5050  0.00  0.00     0.000 C
ATOM     68  C4  BDP B   5      20.877  19.399  13.9480  0.00  0.00     0.000 C
ATOM     69  C5  BDP B   5      20.668  18.247  14.9220  0.00  0.00     0.000 C
ATOM     70  O5  BDP B   5      21.252  17.037  14.4080  0.00  0.00     0.000 O
ATOM     71   O  BDP B   5      24.214  18.250  12.5930  0.00  0.00     0.000 O
ATOM     73  HD  BDP B   5      25.063  18.260  12.4190  0.00  0.00     0.000 HD
ATOM     73   O  BDP B   5      22.434  20.538  12.5010  0.00  0.00     0.000 O
ATOM     75  HD  BDP B   5      23.282  20.548  12.3270  0.00  0.00     0.000 HD
BRANCH 69 75
ATOM     75   C  BDP B   5      19.186  18.049  15.1120  0.00  0.00     0.000 C
ATOM     76   O  BDP B   5      18.501  17.673  14.1400  0.00  0.00     0.000 OA
ATOM     77   O  BDP B   5      18.688  18.263  16.2330  0.00  0.00     0.000 OA
ENDBRANCH 69 75
BRANCH 65 78
ATOM     78  O3  NAG B   6      22.399  15.715  13.7780  0.00  0.00     0.000 O
BRANCH 78 81
ATOM     79  C1  NAG B   6      23.081  12.497  15.6520  0.00  0.00     0.000 C
ATOM     80  C2  NAG B   6      23.396  13.753  14.8250  0.00  0.00     0.000 C
ATOM     81  C3  NAG B   6      22.152  14.615  14.6800  0.00  0.00     0.000 C
ATOM     82  C4  NAG B   6      20.967  13.783  14.1780  0.00  0.00     0.000 C
ATOM     83  C5  NAG B   6      20.764  12.584  15.0970  0.00  0.00     0.000 C
ATOM     84  O5  NAG B   6      21.963  11.808  15.0660  0.00  0.00     0.000 O
BRANCH 80 87
ATOM     85   N  NAG B   6      24.673  14.142  14.2330  0.00  0.00     0.000 N
ATOM     87  HD  NAG B   6      25.184  14.750  13.8870  0.00  0.00     0.000 HD
ATOM     87   C  NAG B   6      25.535  14.992  14.8040  0.00  0.00     0.000 C
ATOM     88   C  NAG B   6      26.805  15.232  14.0510  0.00  0.00     0.000 C
ATOM     89   O  NAG B   6      25.323  15.537  15.8800  0.00  0.00     0.000 OA
ENDBRANCH 80 87
ATOM     90   O  NAG B   6      18.553  11.803  15.6870  0.00  0.00     0.000 O
ATOM     92  HD  NAG B   6      19.378  11.879  15.9410  0.00  0.00     0.000 HD
ATOM     92   O  NAG B   6      18.553  11.803  15.6870  0.00  0.00     0.000 O
ATOM     94  HD  NAG B   6      19.378  11.879  15.9410  0.00  0.00     0.000 HD
ENDBRANCH 78 81
ENDBRANCH 65 78
ENDBRANCH 64 68
ENDBRANCH 48 64
ENDBRANCH 47 50
ENDBRANCH 34 47
ENDBRANCH 33 37
ENDBRANCH 17 33
ENDBRANCH 16 19
ENDBRANCH 1 16
TORSDOF 16
ENDMDL
MODEL 41
REMARK VINA RESULT:      -6.5     11.110     18.866
ROOT
ATOM      1  C1  BDP B   1      21.085  10.123  20.5270  0.00  0.00     0.000 C
ATOM      2  C2  BDP B   1      20.488  10.593  21.8410  0.00  0.00     0.000 C
ATOM      3  C3  BDP B   1      20.392   9.474  22.8560  0.00  0.00     0.000 C
ATOM      4  C4  BDP B   1      21.212   8.240  22.5000  0.00  0.00     0.000 C
ATOM      5  C5  BDP B   1      21.028   7.807  21.0490  0.00  0.00     0.000 C
ATOM      6  O5  BDP B   1      20.497   8.864  20.2310  0.00  0.00     0.000 O
ATOM      7   O  BDP B   1      21.274  11.663  22.3780  0.00  0.00     0.000 O
ATOM      9  HD  BDP B   1      21.714  12.403  22.2850  0.00  0.00     0.000 HD
ATOM      9   O  BDP B   1      19.024   9.061  23.0020  0.00  0.00     0.000 O
ATOM     11  HD  BDP B   1      19.464   9.801  22.9090  0.00  0.00     0.000 HD
ATOM     11   O  BDP B   1      22.601   8.470  22.7630  0.00  0.00     0.000 O
ATOM     13  HD  BDP B   1      23.041   9.210  22.6700  0.00  0.00     0.000 HD
ENDROOT
BRANCH 5 13
ATOM     13   C  BDP B   1      20.088   6.653  21.0490  0.00  0.00     0.000 C
ATOM     14   O  BDP B   1      20.482   5.572  21.5350  0.00  0.00     0.000 OA
ATOM     15   O  BDP B   1      18.936   6.807  20.5900  0.00  0.00     0.000 OA
ENDBRANCH 5 13
BRANCH 1 16
ATOM     16  O3  NAG B   2      22.244  10.565  19.8250  0.00  0.00     0.000 O
BRANCH 16 19
ATOM     17  C1  NAG B   2      23.069  12.700  16.9930  0.00  0.00     0.000 C
ATOM     18  C2  NAG B   2      22.272  12.443  18.2720  0.00  0.00     0.000 C
ATOM     19  C3  NAG B   2      23.068  11.571  19.2320  0.00  0.00     0.000 C
ATOM     20  C4  NAG B   2      24.268  10.916  18.5430  0.00  0.00     0.000 C
ATOM     21  C5  NAG B   2      24.039  10.513  17.0800  0.00  0.00     0.000 C
ATOM     22  O5  NAG B   2      23.193  11.422  16.3650  0.00  0.00     0.000 O
ATOM     23   O  NAG B   2      25.385  11.808  18.6310  0.00  0.00     0.000 O
ATOM     25  HD  NAG B   2      24.918  12.520  18.4730  0.00  0.00     0.000 HD
ATOM     25   C  NAG B   2      23.430   9.107  16.9950  0.00  0.00     0.000 C
ATOM     26   O  NAG B   2      24.438   8.087  17.0350  0.00  0.00     0.000 O
ATOM     28  HD  NAG B   2      23.972   8.800  16.8770  0.00  0.00     0.000 HD
BRANCH 18 30
ATOM     28   N  NAG B   2      22.749  13.824  18.2170  0.00  0.00     0.000 N
ATOM     30  HD  NAG B   2      23.475  14.295  18.2010  0.00  0.00     0.000 HD
ATOM     30   C  NAG B   2      22.621  14.720  19.2050  0.00  0.00     0.000 C
ATOM     31   C  NAG B   2      23.184  16.080  18.9020  0.00  0.00     0.000 C
ATOM     32   O  NAG B   2      22.100  14.471  20.2670  0.00  0.00     0.000 OA
ENDBRANCH 18 30
BRANCH 17 33
ATOM     33  O4  BDP B   3      23.162  13.047  15.5940  0.00  0.00     0.000 O
BRANCH 33 37
ATOM     34  C1  BDP B   3      21.309  14.826  12.1820  0.00  0.00     0.000 C
ATOM     35  C2  BDP B   3      22.825  14.674  12.1520  0.00  0.00     0.000 C
ATOM     36  C3  BDP B   3      23.359  13.676  13.1730  0.00  0.00     0.000 C
ATOM     37  C4  BDP B   3      22.690  13.927  14.5330  0.00  0.00     0.000 C
ATOM     38  C5  BDP B   3      21.167  13.831  14.3180  0.00  0.00     0.000 C
ATOM     39  O5  BDP B   3      20.818  14.964  13.5210  0.00  0.00     0.000 O
ATOM     40   O  BDP B   3      23.163  14.310  10.8120  0.00  0.00     0.000 O
ATOM     42  HD  BDP B   3      23.072  15.166  10.7210  0.00  0.00     0.000 HD
ATOM     42   O  BDP B   3      24.772  13.868  13.2330  0.00  0.00     0.000 O
ATOM     44  HD  BDP B   3      24.681  14.725  13.1420  0.00  0.00     0.000 HD
BRANCH 38 44
ATOM     44   C  BDP B   3      20.362  13.832  15.5800  0.00  0.00     0.000 C
ATOM     45   O  BDP B   3      20.456  14.827  16.3320  0.00  0.00     0.000 OA
ATOM     46   O  BDP B   3      19.630  12.855  15.8460  0.00  0.00     0.000 OA
ENDBRANCH 38 44
BRANCH 34 47
ATOM     47  O3  NAG B   4      20.903  16.175  11.9590  0.00  0.00     0.000 O
BRANCH 47 50
ATOM     48  C1  NAG B   4      17.902  16.498   9.7140  0.00  0.00     0.000 C
ATOM     49  C2  NAG B   4      19.309  16.095  10.1200  0.00  0.00     0.000 C
ATOM     50  C3  NAG B   4      19.549  16.488  11.5730  0.00  0.00     0.000 C
ATOM     51  C4  NAG B   4      19.285  17.967  11.8040  0.00  0.00     0.000 C
ATOM     52  C5  NAG B   4      17.882  18.327  11.3120  0.00  0.00     0.000 C
ATOM     53  O5  NAG B   4      17.705  17.905   9.9540  0.00  0.00     0.000 O
ATOM     54   O  NAG B   4      19.420  18.253  13.1990  0.00  0.00     0.000 O
ATOM     56  HD  NAG B   4      19.407  18.969  12.7110  0.00  0.00     0.000 HD
ATOM     56   C  NAG B   4      17.629  19.827  11.4120  0.00  0.00     0.000 C
ATOM     57   O  NAG B   4      18.592  20.519  10.6070  0.00  0.00     0.000 O
ATOM     59  HD  NAG B   4      18.580  21.235  10.1190  0.00  0.00     0.000 HD
BRANCH 49 61
ATOM     59   N  NAG B   4      19.989  16.621   8.9360  0.00  0.00     0.000 N
ATOM     61  HD  NAG B   4      20.188  16.198   9.6650  0.00  0.00     0.000 HD
ATOM     61   O  NAG B   4      21.363  14.859   8.6060  0.00  0.00     0.000 OA
ATOM     62   C  NAG B   4      20.901  15.930   8.2420  0.00  0.00     0.000 C
ATOM     63   C  NAG B   4      21.327  16.542   6.9450  0.00  0.00     0.000 C
ENDBRANCH 49 61
BRANCH 48 64
ATOM     64  O4  BDP B   5      16.975  15.967   8.7710  0.00  0.00     0.000 O
BRANCH 64 68
ATOM     65  C1  BDP B   5      13.387  14.101   9.7780  0.00  0.00     0.000 C
ATOM     66  C2  BDP B   5      14.452  13.208   9.1560  0.00  0.00     0.000 C
ATOM     67  C3  BDP B   5      15.810  13.892   9.2420  0.00  0.00     0.000 C
ATOM     68  C4  BDP B   5      15.747  15.266   8.5830  0.00  0.00     0.000 C
ATOM     69  C5  BDP B   5      14.612  16.118   9.1370  0.00  0.00     0.000 C
ATOM     70  O5  BDP B   5      13.376  15.382   9.1280  0.00  0.00     0.000 O
ATOM     71   O  BDP B   5      14.458  11.933   9.8170  0.00  0.00     0.000 O
ATOM     73  HD  BDP B   5      14.433  11.190  10.2620  0.00  0.00     0.000 HD
ATOM     73   O  BDP B   5      16.813  13.103   8.5920  0.00  0.00     0.000 O
ATOM     75  HD  BDP B   5      16.788  12.360   9.0370  0.00  0.00     0.000 HD
BRANCH 69 75
ATOM     75   C  BDP B   5      14.474  17.344   8.2720  0.00  0.00     0.000 C
ATOM     76   O  BDP B   5      14.623  18.467   8.7950  0.00  0.00     0.000 OA
ATOM     77   O  BDP B   5      14.220  17.203   7.0610  0.00  0.00     0.000 OA
ENDBRANCH 69 75
BRANCH 65 78
ATOM     78  O3  NAG B   6      12.006  14.157   9.4120  0.00  0.00     0.000 O
BRANCH 78 81
ATOM     79  C1  NAG B   6       8.663  13.404  11.0230  0.00  0.00     0.000 C
ATOM     80  C2  NAG B   6      10.003  13.114  10.3290  0.00  0.00     0.000 C
ATOM     81  C3  NAG B   6      10.817  14.391  10.1980  0.00  0.00     0.000 C
ATOM     82  C4  NAG B   6       9.981  15.508   9.5630  0.00  0.00     0.000 C
ATOM     83  C5  NAG B   6       8.695  15.694  10.3590  0.00  0.00     0.000 C
ATOM     84  O5  NAG B   6       7.980  14.458  10.3210  0.00  0.00     0.000 O
BRANCH 80 87
ATOM     85   N  NAG B   6      10.629  12.033  11.0850  0.00  0.00     0.000 N
ATOM     87  HD  NAG B   6      10.680  11.192  11.2850  0.00  0.00     0.000 HD
ATOM     87   C  NAG B   6      11.335  11.040  10.5290  0.00  0.00     0.000 C
ATOM     88   C  NAG B   6      11.923  10.050  11.4830  0.00  0.00     0.000 C
ATOM     89   O  NAG B   6      11.511  10.941   9.3210  0.00  0.00     0.000 OA
ENDBRANCH 80 87
ATOM     90   O  NAG B   6       7.764  17.889  10.7630  0.00  0.00     0.000 O
ATOM     92  HD  NAG B   6       7.853  17.082  11.0640  0.00  0.00     0.000 HD
ATOM     92   O  NAG B   6       7.764  17.889  10.7630  0.00  0.00     0.000 O
ATOM     94  HD  NAG B   6       7.853  17.082  11.0640  0.00  0.00     0.000 HD
ENDBRANCH 78 81
ENDBRANCH 65 78
ENDBRANCH 64 68
ENDBRANCH 48 64
ENDBRANCH 47 50
ENDBRANCH 34 47
ENDBRANCH 33 37
ENDBRANCH 17 33
ENDBRANCH 16 19
ENDBRANCH 1 16
TORSDOF 16
ENDMDL
MODEL 42
REMARK VINA RESULT:      -6.5      9.844     16.940
ROOT
ATOM      1  C1  BDP B   1       9.937  18.458  22.8950  0.00  0.00     0.000 C
ATOM      2  C2  BDP B   1       9.342  19.628  23.6580  0.00  0.00     0.000 C
ATOM      3  C3  BDP B   1       8.706  19.194  24.9610  0.00  0.00     0.000 C
ATOM      4  C4  BDP B   1       9.094  17.788  25.4040  0.00  0.00     0.000 C
ATOM      5  C5  BDP B   1       9.002  16.767  24.2740  0.00  0.00     0.000 C
ATOM      6  O5  BDP B   1       9.005  17.390  22.9790  0.00  0.00     0.000 O
ATOM      7   O  BDP B   1      10.355  20.605  23.9180  0.00  0.00     0.000 O
ATOM      9  HD  BDP B   1      11.032  21.083  23.6670  0.00  0.00     0.000 HD
ATOM      9   O  BDP B   1       7.275  19.236  24.8470  0.00  0.00     0.000 O
ATOM     11  HD  BDP B   1       7.953  19.713  24.5960  0.00  0.00     0.000 HD
ATOM     11   O  BDP B   1      10.418  17.783  25.9520  0.00  0.00     0.000 O
ATOM     13  HD  BDP B   1      11.096  18.261  25.7010  0.00  0.00     0.000 HD
ENDROOT
BRANCH 5 13
ATOM     13   C  BDP B   1       7.733  16.012  24.4650  0.00  0.00     0.000 C
ATOM     14   O  BDP B   1       6.677  16.514  24.0280  0.00  0.00     0.000 OA
ATOM     15   O  BDP B   1       7.768  14.897  25.0280  0.00  0.00     0.000 OA
ENDBRANCH 5 13
BRANCH 1 16
ATOM     16  O3  NAG B   2      11.273  18.221  22.4550  0.00  0.00     0.000 O
BRANCH 16 19
ATOM     17  C1  NAG B   2      14.883  18.647  22.2400  0.00  0.00     0.000 C
ATOM     18  C2  NAG B   2      13.575  18.785  23.0210  0.00  0.00     0.000 C
ATOM     19  C3  NAG B   2      12.592  17.697  22.6150  0.00  0.00     0.000 C
ATOM     20  C4  NAG B   2      13.027  16.990  21.3290  0.00  0.00     0.000 C
ATOM     21  C5  NAG B   2      13.717  17.889  20.2930  0.00  0.00     0.000 C
ATOM     22  O5  NAG B   2      14.536  18.907  20.8780  0.00  0.00     0.000 O
ATOM     23   O  NAG B   2      13.889  15.902  21.6770  0.00  0.00     0.000 O
ATOM     25  HD  NAG B   2      14.312  16.342  22.2910  0.00  0.00     0.000 HD
ATOM     25   C  NAG B   2      12.678  18.559  19.3810  0.00  0.00     0.000 C
ATOM     26   O  NAG B   2      12.309  17.712  18.2840  0.00  0.00     0.000 O
ATOM     28  HD  NAG B   2      12.733  18.152  18.8980  0.00  0.00     0.000 HD
BRANCH 18 30
ATOM     28   N  NAG B   2      14.608  18.153  23.8400  0.00  0.00     0.000 N
ATOM     30  HD  NAG B   2      15.011  17.397  23.9670  0.00  0.00     0.000 HD
ATOM     30   C  NAG B   2      14.501  17.902  25.1520  0.00  0.00     0.000 C
ATOM     31   C  NAG B   2      15.705  17.253  25.7720  0.00  0.00     0.000 C
ATOM     32   O  NAG B   2      13.515  18.164  25.8020  0.00  0.00     0.000 OA
ENDBRANCH 18 30
BRANCH 17 33
ATOM     33  O4  BDP B   3      16.111  19.182  21.7020  0.00  0.00     0.000 O
BRANCH 33 37
ATOM     34  C1  BDP B   3      20.142  17.812  21.3570  0.00  0.00     0.000 C
ATOM     35  C2  BDP B   3      19.710  18.372  22.7070  0.00  0.00     0.000 C
ATOM     36  C3  BDP B   3      18.197  18.439  22.8840  0.00  0.00     0.000 C
ATOM     37  C4  BDP B   3      17.560  19.037  21.6210  0.00  0.00     0.000 C
ATOM     38  C5  BDP B   3      18.002  18.167  20.4290  0.00  0.00     0.000 C
ATOM     39  O5  BDP B   3      19.403  18.399  20.2800  0.00  0.00     0.000 O
ATOM     40   O  BDP B   3      20.334  17.553  23.6980  0.00  0.00     0.000 O
ATOM     42  HD  BDP B   3      20.992  18.079  23.4940  0.00  0.00     0.000 HD
ATOM     42   O  BDP B   3      17.954  19.247  24.0340  0.00  0.00     0.000 O
ATOM     44  HD  BDP B   3      18.612  19.772  23.8310  0.00  0.00     0.000 HD
BRANCH 38 44
ATOM     44   C  BDP B   3      17.298  18.473  19.1440  0.00  0.00     0.000 C
ATOM     45   O  BDP B   3      17.418  19.624  18.6700  0.00  0.00     0.000 OA
ATOM     46   O  BDP B   3      16.618  17.585  18.5850  0.00  0.00     0.000 OA
ENDBRANCH 38 44
BRANCH 34 47
ATOM     47  O3  NAG B   4      21.296  18.478  20.8480  0.00  0.00     0.000 O
BRANCH 47 50
ATOM     48  C1  NAG B   4      22.639  16.826  17.7470  0.00  0.00     0.000 C
ATOM     49  C2  NAG B   4      22.173  16.927  19.1890  0.00  0.00     0.000 C
ATOM     50  C3  NAG B   4      21.681  18.343  19.4640  0.00  0.00     0.000 C
ATOM     51  C4  NAG B   4      22.742  19.379  19.1290  0.00  0.00     0.000 C
ATOM     52  C5  NAG B   4      23.222  19.184  17.6910  0.00  0.00     0.000 C
ATOM     53  O5  NAG B   4      23.640  17.829  17.4830  0.00  0.00     0.000 O
ATOM     54   O  NAG B   4      22.189  20.686  19.3040  0.00  0.00     0.000 O
ATOM     56  HD  NAG B   4      23.052  20.696  19.2330  0.00  0.00     0.000 HD
ATOM     56   C  NAG B   4      24.375  20.124  17.3600  0.00  0.00     0.000 C
ATOM     57   O  NAG B   4      25.466  19.858  18.2500  0.00  0.00     0.000 O
ATOM     59  HD  NAG B   4      26.329  19.868  18.1790  0.00  0.00     0.000 HD
BRANCH 49 61
ATOM     59   N  NAG B   4      23.323  16.236  19.7730  0.00  0.00     0.000 N
ATOM     61  HD  NAG B   4      22.584  16.604  20.0350  0.00  0.00     0.000 HD
ATOM     61   O  NAG B   4      22.164  14.975  21.2450  0.00  0.00     0.000 OA
ATOM     62   C  NAG B   4      23.214  15.272  20.6940  0.00  0.00     0.000 C
ATOM     63   C  NAG B   4      24.477  14.537  21.0140  0.00  0.00     0.000 C
ENDBRANCH 49 61
BRANCH 48 64
ATOM     64  O4  BDP B   5      22.679  15.751  16.8140  0.00  0.00     0.000 O
BRANCH 64 68
ATOM     65  C1  BDP B   5      23.642  11.808  17.7630  0.00  0.00     0.000 C
ATOM     66  C2  BDP B   5      24.468  12.448  16.6560  0.00  0.00     0.000 C
ATOM     67  C3  BDP B   5      24.315  13.963  16.7120  0.00  0.00     0.000 C
ATOM     68  C4  BDP B   5      22.842  14.345  16.6320  0.00  0.00     0.000 C
ATOM     69  C5  BDP B   5      22.002  13.620  17.6770  0.00  0.00     0.000 C
ATOM     70  O5  BDP B   5      22.267  12.206  17.6460  0.00  0.00     0.000 O
ATOM     71   O  BDP B   5      25.841  12.048  16.7860  0.00  0.00     0.000 O
ATOM     73  HD  BDP B   5      26.657  11.793  16.9230  0.00  0.00     0.000 HD
ATOM     73   O  BDP B   5      25.023  14.581  15.6310  0.00  0.00     0.000 O
ATOM     75  HD  BDP B   5      25.839  14.325  15.7670  0.00  0.00     0.000 HD
BRANCH 69 75
ATOM     75   C  BDP B   5      20.547  13.866  17.3690  0.00  0.00     0.000 C
ATOM     76   O  BDP B   5      20.111  13.554  16.2430  0.00  0.00     0.000 OA
ATOM     77   O  BDP B   5      19.822  14.370  18.2470  0.00  0.00     0.000 OA
ENDBRANCH 69 75
BRANCH 65 78
ATOM     78  O3  NAG B   6      23.034  10.514  17.7290  0.00  0.00     0.000 O
BRANCH 78 81
ATOM     79  C1  NAG B   6      22.951   7.476  19.9870  0.00  0.00     0.000 C
ATOM     80  C2  NAG B   6      23.529   8.480  18.9770  0.00  0.00     0.000 C
ATOM     81  C3  NAG B   6      22.572   9.646  18.7870  0.00  0.00     0.000 C
ATOM     82  C4  NAG B   6      21.158   9.146  18.4740  0.00  0.00     0.000 C
ATOM     83  C5  NAG B   6      20.712   8.174  19.5600  0.00  0.00     0.000 C
ATOM     84  O5  NAG B   6      21.633   7.082  19.5670  0.00  0.00     0.000 O
BRANCH 80 87
ATOM     85   N  NAG B   6      24.872   8.787  19.4610  0.00  0.00     0.000 N
ATOM     87  HD  NAG B   6      25.707   8.570  19.5400  0.00  0.00     0.000 HD
ATOM     87   C  NAG B   6      25.920   9.026  18.6620  0.00  0.00     0.000 C
ATOM     88   C  NAG B   6      27.203   9.355  19.3560  0.00  0.00     0.000 C
ATOM     89   O  NAG B   6      25.848   8.996  17.4390  0.00  0.00     0.000 OA
ENDBRANCH 80 87
ATOM     90   O  NAG B   6      18.437   8.151  20.3790  0.00  0.00     0.000 O
ATOM     92  HD  NAG B   6      19.269   8.009  20.5710  0.00  0.00     0.000 HD
ATOM     92   O  NAG B   6      18.437   8.151  20.3790  0.00  0.00     0.000 O
ATOM     94  HD  NAG B   6      19.269   8.009  20.5710  0.00  0.00     0.000 HD
ENDBRANCH 78 81
ENDBRANCH 65 78
ENDBRANCH 64 68
ENDBRANCH 48 64
ENDBRANCH 47 50
ENDBRANCH 34 47
ENDBRANCH 33 37
ENDBRANCH 17 33
ENDBRANCH 16 19
ENDBRANCH 1 16
TORSDOF 16
ENDMDL
MODEL 43
REMARK VINA RESULT:      -6.5     11.576     19.301
ROOT
ATOM      1  C1  BDP B   1       9.096  18.029  23.2410  0.00  0.00     0.000 C
ATOM      2  C2  BDP B   1       8.953  18.070  24.7530  0.00  0.00     0.000 C
ATOM      3  C3  BDP B   1       7.715  17.341  25.2280  0.00  0.00     0.000 C
ATOM      4  C4  BDP B   1       7.081  16.439  24.1750  0.00  0.00     0.000 C
ATOM      5  C5  BDP B   1       6.942  17.124  22.8180  0.00  0.00     0.000 C
ATOM      6  O5  BDP B   1       7.806  18.266  22.6970  0.00  0.00     0.000 O
ATOM      7   O  BDP B   1      10.113  17.499  25.3670  0.00  0.00     0.000 O
ATOM      9  HD  BDP B   1      10.972  17.402  25.4260  0.00  0.00     0.000 HD
ATOM      9   O  BDP B   1       6.719  18.288  25.6470  0.00  0.00     0.000 O
ATOM     11  HD  BDP B   1       7.578  18.191  25.7070  0.00  0.00     0.000 HD
ATOM     11   O  BDP B   1       7.838  15.231  24.0310  0.00  0.00     0.000 O
ATOM     13  HD  BDP B   1       8.697  15.135  24.0900  0.00  0.00     0.000 HD
ENDROOT
BRANCH 5 13
ATOM     13   C  BDP B   1       5.522  17.552  22.6850  0.00  0.00     0.000 C
ATOM     14   O  BDP B   1       5.155  18.576  23.2970  0.00  0.00     0.000 OA
ATOM     15   O  BDP B   1       4.755  16.894  21.9500  0.00  0.00     0.000 OA
ENDBRANCH 5 13
BRANCH 1 16
ATOM     16  O3  NAG B   2      10.147  17.519  22.4230  0.00  0.00     0.000 O
BRANCH 16 19
ATOM     17  C1  NAG B   2      12.907  19.564  21.2160  0.00  0.00     0.000 C
ATOM     18  C2  NAG B   2      12.253  18.740  22.3260  0.00  0.00     0.000 C
ATOM     19  C3  NAG B   2      11.393  17.633  21.7350  0.00  0.00     0.000 C
ATOM     20  C4  NAG B   2      11.140  17.848  20.2400  0.00  0.00     0.000 C
ATOM     21  C5  NAG B   2      10.987  19.313  19.8090  0.00  0.00     0.000 C
ATOM     22  O5  NAG B   2      11.825  20.213  20.5440  0.00  0.00     0.000 O
ATOM     23   O  NAG B   2      12.205  17.235  19.5060  0.00  0.00     0.000 O
ATOM     25  HD  NAG B   2      12.825  17.495  20.0520  0.00  0.00     0.000 HD
ATOM     25   C  NAG B   2       9.529  19.771  19.9560  0.00  0.00     0.000 C
ATOM     26   O  NAG B   2       8.747  19.433  18.8020  0.00  0.00     0.000 O
ATOM     28  HD  NAG B   2       9.367  19.693  19.3480  0.00  0.00     0.000 HD
BRANCH 18 30
ATOM     28   N  NAG B   2      13.520  18.072  22.0310  0.00  0.00     0.000 N
ATOM     30  HD  NAG B   2      13.847  17.360  21.6600  0.00  0.00     0.000 HD
ATOM     30   C  NAG B   2      14.332  17.526  22.9470  0.00  0.00     0.000 C
ATOM     31   C  NAG B   2      15.584  16.906  22.3940  0.00  0.00     0.000 C
ATOM     32   O  NAG B   2      14.090  17.519  24.1320  0.00  0.00     0.000 OA
ENDBRANCH 18 30
BRANCH 17 33
ATOM     33  O4  BDP B   3      13.528  20.768  20.7170  0.00  0.00     0.000 O
BRANCH 33 37
ATOM     34  C1  BDP B   3      17.333  21.602  18.9650  0.00  0.00     0.000 C
ATOM     35  C2  BDP B   3      16.922  22.438  20.1710  0.00  0.00     0.000 C
ATOM     36  C3  BDP B   3      15.789  21.823  20.9840  0.00  0.00     0.000 C
ATOM     37  C4  BDP B   3      14.682  21.341  20.0340  0.00  0.00     0.000 C
ATOM     38  C5  BDP B   3      15.329  20.358  19.0390  0.00  0.00     0.000 C
ATOM     39  O5  BDP B   3      16.194  21.149  18.2240  0.00  0.00     0.000 O
ATOM     40   O  BDP B   3      18.106  22.625  20.9500  0.00  0.00     0.000 O
ATOM     42  HD  BDP B   3      18.221  23.235  20.3460  0.00  0.00     0.000 HD
ATOM     42   O  BDP B   3      15.322  22.839  21.8700  0.00  0.00     0.000 O
ATOM     44  HD  BDP B   3      15.436  23.449  21.2660  0.00  0.00     0.000 HD
BRANCH 38 44
ATOM     44   C  BDP B   3      14.354  19.620  18.1760  0.00  0.00     0.000 C
ATOM     45   O  BDP B   3      13.614  20.291  17.4230  0.00  0.00     0.000 OA
ATOM     46   O  BDP B   3      14.304  18.372  18.2280  0.00  0.00     0.000 OA
ENDBRANCH 38 44
BRANCH 34 47
ATOM     47  O3  NAG B   4      17.666  22.414  17.8410  0.00  0.00     0.000 O
BRANCH 47 50
ATOM     48  C1  NAG B   4      20.552  21.248  15.7280  0.00  0.00     0.000 C
ATOM     49  C2  NAG B   4      19.846  21.771  16.9670  0.00  0.00     0.000 C
ATOM     50  C3  NAG B   4      18.348  21.856  16.6980  0.00  0.00     0.000 C
ATOM     51  C4  NAG B   4      18.047  22.697  15.4680  0.00  0.00     0.000 C
ATOM     52  C5  NAG B   4      18.838  22.167  14.2710  0.00  0.00     0.000 C
ATOM     53  O5  NAG B   4      20.232  22.077  14.5940  0.00  0.00     0.000 O
ATOM     54   O  NAG B   4      16.642  22.651  15.2040  0.00  0.00     0.000 O
ATOM     56  HD  NAG B   4      17.044  23.278  14.7620  0.00  0.00     0.000 HD
ATOM     56   C  NAG B   4      18.659  23.061  13.0500  0.00  0.00     0.000 C
ATOM     57   O  NAG B   4      19.124  24.380  13.3630  0.00  0.00     0.000 O
ATOM     59  HD  NAG B   4      19.526  25.007  12.9210  0.00  0.00     0.000 HD
BRANCH 49 61
ATOM     59   N  NAG B   4      20.493  20.933  17.9770  0.00  0.00     0.000 N
ATOM     61  HD  NAG B   4      20.601  21.710  17.6120  0.00  0.00     0.000 HD
ATOM     61   O  NAG B   4      20.907  22.577  19.4690  0.00  0.00     0.000 OA
ATOM     62   C  NAG B   4      20.900  21.393  19.1660  0.00  0.00     0.000 C
ATOM     63   C  NAG B   4      21.340  20.353  20.1470  0.00  0.00     0.000 C
ENDBRANCH 49 61
BRANCH 48 64
ATOM     64  O4  BDP B   5      21.744  20.493  15.5370  0.00  0.00     0.000 O
BRANCH 64 68
ATOM     65  C1  BDP B   5      22.800  16.764  17.0710  0.00  0.00     0.000 C
ATOM     66  C2  BDP B   5      23.949  17.732  16.8190  0.00  0.00     0.000 C
ATOM     67  C3  BDP B   5      23.406  19.148  16.6840  0.00  0.00     0.000 C
ATOM     68  C4  BDP B   5      22.350  19.202  15.5850  0.00  0.00     0.000 C
ATOM     69  C5  BDP B   5      21.258  18.160  15.7870  0.00  0.00     0.000 C
ATOM     70  O5  BDP B   5      21.833  16.861  16.0140  0.00  0.00     0.000 O
ATOM     71   O  BDP B   5      24.907  17.630  17.8850  0.00  0.00     0.000 O
ATOM     73  HD  BDP B   5      25.441  17.544  18.5610  0.00  0.00     0.000 HD
ATOM     73   O  BDP B   5      24.462  20.064  16.3690  0.00  0.00     0.000 O
ATOM     75  HD  BDP B   5      24.996  19.978  17.0460  0.00  0.00     0.000 HD
BRANCH 69 75
ATOM     75   C  BDP B   5      20.405  18.122  14.5440  0.00  0.00     0.000 C
ATOM     76   O  BDP B   5      19.165  18.194  14.6650  0.00  0.00     0.000 OA
ATOM     77   O  BDP B   5      20.960  18.025  13.4340  0.00  0.00     0.000 OA
ENDBRANCH 69 75
BRANCH 65 78
ATOM     78  O3  NAG B   6      22.749  15.388  16.6850  0.00  0.00     0.000 O
BRANCH 78 81
ATOM     79  C1  NAG B   6      22.096  12.076  18.3990  0.00  0.00     0.000 C
ATOM     80  C2  NAG B   6      22.877  13.335  17.9910  0.00  0.00     0.000 C
ATOM     81  C3  NAG B   6      21.984  14.278  17.2010  0.00  0.00     0.000 C
ATOM     82  C4  NAG B   6      21.293  13.538  16.0510  0.00  0.00     0.000 C
ATOM     83  C5  NAG B   6      20.550  12.326  16.6010  0.00  0.00     0.000 C
ATOM     84  O5  NAG B   6      21.512  11.477  17.2280  0.00  0.00     0.000 O
BRANCH 80 87
ATOM     85   N  NAG B   6      23.465  13.839  19.2300  0.00  0.00     0.000 N
ATOM     87  HD  NAG B   6      24.083  13.800  19.8350  0.00  0.00     0.000 HD
ATOM     87   C  NAG B   6      24.661  14.437  19.3020  0.00  0.00     0.000 C
ATOM     88   C  NAG B   6      25.067  14.913  20.6610  0.00  0.00     0.000 C
ATOM     89   O  NAG B   6      25.384  14.605  18.3280  0.00  0.00     0.000 OA
ENDBRANCH 80 87
ATOM     90   O  NAG B   6      18.389  11.669  15.7370  0.00  0.00     0.000 O
ATOM     92  HD  NAG B   6      18.910  11.684  16.4290  0.00  0.00     0.000 HD
ATOM     92   O  NAG B   6      18.389  11.669  15.7370  0.00  0.00     0.000 O
ATOM     94  HD  NAG B   6      18.910  11.684  16.4290  0.00  0.00     0.000 HD
ENDBRANCH 78 81
ENDBRANCH 65 78
ENDBRANCH 64 68
ENDBRANCH 48 64
ENDBRANCH 47 50
ENDBRANCH 34 47
ENDBRANCH 33 37
ENDBRANCH 17 33
ENDBRANCH 16 19
ENDBRANCH 1 16
TORSDOF 16
ENDMDL
MODEL 44
REMARK VINA RESULT:      -6.5     11.661     15.110
ROOT
ATOM      1  C1  BDP B   1      21.299  19.412  18.7200  0.00  0.00     0.000 C
ATOM      2  C2  BDP B   1      22.087  18.278  19.3500  0.00  0.00     0.000 C
ATOM      3  C3  BDP B   1      23.289  18.779  20.1220  0.00  0.00     0.000 C
ATOM      4  C4  BDP B   1      23.264  20.276  20.4080  0.00  0.00     0.000 C
ATOM      5  C5  BDP B   1      22.899  21.105  19.1800  0.00  0.00     0.000 C
ATOM      6  O5  BDP B   1      22.243  20.319  18.1700  0.00  0.00     0.000 O
ATOM      7   O  BDP B   1      21.239  17.519  20.2190  0.00  0.00     0.000 O
ATOM      9  HD  BDP B   1      20.487  17.127  20.3940  0.00  0.00     0.000 HD
ATOM      9   O  BDP B   1      24.493  18.494  19.3940  0.00  0.00     0.000 O
ATOM     11  HD  BDP B   1      23.741  18.101  19.5690  0.00  0.00     0.000 HD
ATOM     11   O  BDP B   1      22.353  20.566  21.4750  0.00  0.00     0.000 O
ATOM     13  HD  BDP B   1      21.601  20.174  21.6500  0.00  0.00     0.000 HD
ENDROOT
BRANCH 5 13
ATOM     13   C  BDP B   1      24.166  21.667  18.6350  0.00  0.00     0.000 C
ATOM     14   O  BDP B   1      24.759  21.025  17.7440  0.00  0.00     0.000 OA
ATOM     15   O  BDP B   1      24.577  22.766  19.0640  0.00  0.00     0.000 OA
ENDBRANCH 5 13
BRANCH 1 16
ATOM     16  O3  NAG B   2      19.935  19.797  18.8850  0.00  0.00     0.000 O
BRANCH 16 19
ATOM     17  C1  NAG B   2      16.419  19.096  19.5210  0.00  0.00     0.000 C
ATOM     18  C2  NAG B   2      17.896  18.744  19.7040  0.00  0.00     0.000 C
ATOM     19  C3  NAG B   2      18.754  20.000  19.6630  0.00  0.00     0.000 C
ATOM     20  C4  NAG B   2      17.977  21.201  19.1180  0.00  0.00     0.000 C
ATOM     21  C5  NAG B   2      16.962  20.874  18.0140  0.00  0.00     0.000 C
ATOM     22  O5  NAG B   2      16.318  19.607  18.1900  0.00  0.00     0.000 O
ATOM     23   O  NAG B   2      17.314  21.847  20.2100  0.00  0.00     0.000 O
ATOM     25  HD  NAG B   2      17.081  21.108  20.5970  0.00  0.00     0.000 HD
ATOM     25   C  NAG B   2      17.638  20.892  16.6350  0.00  0.00     0.000 C
ATOM     26   O  NAG B   2      17.689  22.217  16.0860  0.00  0.00     0.000 O
ATOM     28  HD  NAG B   2      17.456  21.478  16.4730  0.00  0.00     0.000 HD
BRANCH 18 30
ATOM     28   N  NAG B   2      17.177  18.687  20.9760  0.00  0.00     0.000 N
ATOM     30  HD  NAG B   2      16.812  19.191  21.5780  0.00  0.00     0.000 HD
ATOM     30   C  NAG B   2      17.712  18.303  22.1440  0.00  0.00     0.000 C
ATOM     31   C  NAG B   2      16.764  18.319  23.3090  0.00  0.00     0.000 C
ATOM     32   O  NAG B   2      18.869  17.973  22.2700  0.00  0.00     0.000 OA
ENDBRANCH 18 30
BRANCH 17 33
ATOM     33  O4  BDP B   3      15.062  18.761  19.1610  0.00  0.00     0.000 O
BRANCH 33 37
ATOM     34  C1  BDP B   3      11.275  18.602  21.1290  0.00  0.00     0.000 C
ATOM     35  C2  BDP B   3      12.277  17.501  21.4570  0.00  0.00     0.000 C
ATOM     36  C3  BDP B   3      13.710  17.845  21.0660  0.00  0.00     0.000 C
ATOM     37  C4  BDP B   3      13.727  18.433  19.6470  0.00  0.00     0.000 C
ATOM     38  C5  BDP B   3      12.780  19.649  19.6450  0.00  0.00     0.000 C
ATOM     39  O5  BDP B   3      11.466  19.114  19.8060  0.00  0.00     0.000 O
ATOM     40   O  BDP B   3      12.145  17.243  22.8560  0.00  0.00     0.000 O
ATOM     42  HD  BDP B   3      11.476  16.785  22.5500  0.00  0.00     0.000 HD
ATOM     42   O  BDP B   3      14.458  16.633  21.1470  0.00  0.00     0.000 O
ATOM     44  HD  BDP B   3      13.790  16.174  20.8420  0.00  0.00     0.000 HD
BRANCH 38 44
ATOM     44   C  BDP B   3      12.841  20.478  18.4000  0.00  0.00     0.000 C
ATOM     45   O  BDP B   3      12.262  20.045  17.3790  0.00  0.00     0.000 OA
ATOM     46   O  BDP B   3      13.460  21.564  18.4110  0.00  0.00     0.000 OA
ENDBRANCH 38 44
BRANCH 34 47
ATOM     47  O3  NAG B   4      10.029  18.073  20.6790  0.00  0.00     0.000 O
BRANCH 47 50
ATOM     48  C1  NAG B   4       6.938  18.919  22.6480  0.00  0.00     0.000 C
ATOM     49  C2  NAG B   4       8.282  18.272  22.3630  0.00  0.00     0.000 C
ATOM     50  C3  NAG B   4       8.785  18.729  20.9980  0.00  0.00     0.000 C
ATOM     51  C4  NAG B   4       7.767  18.447  19.9040  0.00  0.00     0.000 C
ATOM     52  C5  NAG B   4       6.418  19.062  20.2790  0.00  0.00     0.000 C
ATOM     53  O5  NAG B   4       6.015  18.623  21.5830  0.00  0.00     0.000 O
ATOM     54   O  NAG B   4       8.245  18.992  18.6720  0.00  0.00     0.000 O
ATOM     56  HD  NAG B   4       7.583  18.445  18.5600  0.00  0.00     0.000 HD
ATOM     56   C  NAG B   4       5.341  18.693  19.2660  0.00  0.00     0.000 C
ATOM     57   O  NAG B   4       5.203  17.267  19.2270  0.00  0.00     0.000 O
ATOM     59  HD  NAG B   4       4.542  16.720  19.1150  0.00  0.00     0.000 HD
BRANCH 49 61
ATOM     59   N  NAG B   4       7.831  17.010  22.9520  0.00  0.00     0.000 N
ATOM     61  HD  NAG B   4       8.523  17.322  22.5340  0.00  0.00     0.000 HD
ATOM     61   O  NAG B   4       9.794  16.442  23.9150  0.00  0.00     0.000 OA
ATOM     62   C  NAG B   4       8.601  16.245  23.7340  0.00  0.00     0.000 C
ATOM     63   C  NAG B   4       7.904  15.110  24.4160  0.00  0.00     0.000 C
ENDBRANCH 49 61
BRANCH 48 64
ATOM     64  O4  BDP B   5       6.282  19.301  23.8540  0.00  0.00     0.000 O
BRANCH 64 68
ATOM     65  C1  BDP B   5       4.891  16.657  26.7600  0.00  0.00     0.000 C
ATOM     66  C2  BDP B   5       3.828  17.303  25.8830  0.00  0.00     0.000 C
ATOM     67  C3  BDP B   5       4.477  17.879  24.6310  0.00  0.00     0.000 C
ATOM     68  C4  BDP B   5       5.584  18.854  25.0150  0.00  0.00     0.000 C
ATOM     69  C5  BDP B   5       6.588  18.233  25.9770  0.00  0.00     0.000 C
ATOM     70  O5  BDP B   5       5.911  17.614  27.0850  0.00  0.00     0.000 O
ATOM     71   O  BDP B   5       2.817  16.336  25.5590  0.00  0.00     0.000 O
ATOM     73  HD  BDP B   5       2.247  15.710  25.3780  0.00  0.00     0.000 HD
ATOM     73   O  BDP B   5       3.505  18.560  23.8280  0.00  0.00     0.000 O
ATOM     75  HD  BDP B   5       2.935  17.934  23.6470  0.00  0.00     0.000 HD
BRANCH 69 75
ATOM     75   C  BDP B   5       7.494  19.325  26.4880  0.00  0.00     0.000 C
ATOM     76   O  BDP B   5       6.988  20.284  27.1060  0.00  0.00     0.000 OA
ATOM     77   O  BDP B   5       8.719  19.239  26.2820  0.00  0.00     0.000 OA
ENDBRANCH 69 75
BRANCH 65 78
ATOM     78  O3  NAG B   6       4.862  16.543  28.1850  0.00  0.00     0.000 O
BRANCH 78 81
ATOM     79  C1  NAG B   6       4.884  13.824  30.8200  0.00  0.00     0.000 C
ATOM     80  C2  NAG B   6       4.300  14.765  29.7540  0.00  0.00     0.000 C
ATOM     81  C3  NAG B   6       5.413  15.549  29.0770  0.00  0.00     0.000 C
ATOM     82  C4  NAG B   6       6.316  16.222  30.1160  0.00  0.00     0.000 C
ATOM     83  C5  NAG B   6       6.831  15.173  31.0940  0.00  0.00     0.000 C
ATOM     84  O5  NAG B   6       5.697  14.583  31.7320  0.00  0.00     0.000 O
BRANCH 80 87
ATOM     85   N  NAG B   6       2.936  15.022  29.3020  0.00  0.00     0.000 N
ATOM     87  HD  NAG B   6       2.389  15.273  28.6790  0.00  0.00     0.000 HD
ATOM     87   C  NAG B   6       2.321  14.322  28.3400  0.00  0.00     0.000 C
ATOM     88   C  NAG B   6       0.910  14.722  28.0480  0.00  0.00     0.000 C
ATOM     89   O  NAG B   6       2.857  13.400  27.7380  0.00  0.00     0.000 OA
ENDBRANCH 80 87
ATOM     90   O  NAG B   6       9.094  15.239  31.9440  0.00  0.00     0.000 O
ATOM     92  HD  NAG B   6       8.423  14.735  31.7310  0.00  0.00     0.000 HD
ATOM     92   O  NAG B   6       9.094  15.239  31.9440  0.00  0.00     0.000 O
ATOM     94  HD  NAG B   6       8.423  14.735  31.7310  0.00  0.00     0.000 HD
ENDBRANCH 78 81
ENDBRANCH 65 78
ENDBRANCH 64 68
ENDBRANCH 48 64
ENDBRANCH 47 50
ENDBRANCH 34 47
ENDBRANCH 33 37
ENDBRANCH 17 33
ENDBRANCH 16 19
ENDBRANCH 1 16
TORSDOF 16
ENDMDL
MODEL 45
REMARK VINA RESULT:      -6.3      9.688     14.350
ROOT
ATOM      1  C1  BDP B   1      22.916   3.133  21.4590  0.00  0.00     0.000 C
ATOM      2  C2  BDP B   1      22.005   1.920  21.3870  0.00  0.00     0.000 C
ATOM      3  C3  BDP B   1      21.833   1.256  22.7360  0.00  0.00     0.000 C
ATOM      4  C4  BDP B   1      22.292   2.111  23.9130  0.00  0.00     0.000 C
ATOM      5  C5  BDP B   1      23.658   2.749  23.6810  0.00  0.00     0.000 C
ATOM      6  O5  BDP B   1      24.013   2.779  22.2880  0.00  0.00     0.000 O
ATOM      7   O  BDP B   1      20.725   2.302  20.8720  0.00  0.00     0.000 O
ATOM      9  HD  BDP B   1      20.233   2.736  20.3070  0.00  0.00     0.000 HD
ATOM      9   O  BDP B   1      22.573   0.026  22.7760  0.00  0.00     0.000 O
ATOM     11  HD  BDP B   1      22.081   0.460  22.2110  0.00  0.00     0.000 HD
ATOM     11   O  BDP B   1      21.325   3.129  24.1970  0.00  0.00     0.000 O
ATOM     13  HD  BDP B   1      20.832   3.563  23.6330  0.00  0.00     0.000 HD
ENDROOT
BRANCH 5 13
ATOM     13   C  BDP B   1      24.655   1.940  24.4360  0.00  0.00     0.000 C
ATOM     14   O  BDP B   1      24.763   2.135  25.6640  0.00  0.00     0.000 OA
ATOM     15   O  BDP B   1      25.328   1.082  23.8260  0.00  0.00     0.000 OA
ENDBRANCH 5 13
BRANCH 1 16
ATOM     16  O3  NAG B   2      22.672   4.497  21.1210  0.00  0.00     0.000 O
BRANCH 16 19
ATOM     17  C1  NAG B   2      22.553   8.048  20.3280  0.00  0.00     0.000 C
ATOM     18  C2  NAG B   2      22.027   6.627  20.1280  0.00  0.00     0.000 C
ATOM     19  C3  NAG B   2      22.190   5.812  21.4030  0.00  0.00     0.000 C
ATOM     20  C4  NAG B   2      23.125   6.501  22.4010  0.00  0.00     0.000 C
ATOM     21  C5  NAG B   2      24.295   7.271  21.7730  0.00  0.00     0.000 C
ATOM     22  O5  NAG B   2      23.960   7.902  20.5310  0.00  0.00     0.000 O
ATOM     23   O  NAG B   2      22.348   7.382  23.2180  0.00  0.00     0.000 O
ATOM     25  HD  NAG B   2      21.854   7.666  22.5650  0.00  0.00     0.000 HD
ATOM     25   C  NAG B   2      25.494   6.340  21.5410  0.00  0.00     0.000 C
ATOM     26   O  NAG B   2      26.307   6.219  22.7170  0.00  0.00     0.000 O
ATOM     28  HD  NAG B   2      25.814   6.502  22.0640  0.00  0.00     0.000 HD
BRANCH 18 30
ATOM     28   N  NAG B   2      20.890   7.492  19.8190  0.00  0.00     0.000 N
ATOM     30  HD  NAG B   2      20.558   8.273  19.9930  0.00  0.00     0.000 HD
ATOM     30   C  NAG B   2      19.627   7.271  20.2120  0.00  0.00     0.000 C
ATOM     31   C  NAG B   2      18.634   8.303  19.7570  0.00  0.00     0.000 C
ATOM     32   O  NAG B   2      19.295   6.324  20.8860  0.00  0.00     0.000 OA
ENDBRANCH 18 30
BRANCH 17 33
ATOM     33  O4  BDP B   3      23.073   9.299  19.8270  0.00  0.00     0.000 O
BRANCH 33 37
ATOM     34  C1  BDP B   3      21.648  13.322  20.0070  0.00  0.00     0.000 C
ATOM     35  C2  BDP B   3      21.622  12.633  18.6470  0.00  0.00     0.000 C
ATOM     36  C3  BDP B   3      21.733  11.115  18.7300  0.00  0.00     0.000 C
ATOM     37  C4  BDP B   3      22.857  10.736  19.7050  0.00  0.00     0.000 C
ATOM     38  C5  BDP B   3      22.535  11.404  21.0560  0.00  0.00     0.000 C
ATOM     39  O5  BDP B   3      22.693  12.806  20.8400  0.00  0.00     0.000 O
ATOM     40   O  BDP B   3      20.414  13.054  18.0100  0.00  0.00     0.000 O
ATOM     42  HD  BDP B   3      20.920  13.738  17.8480  0.00  0.00     0.000 HD
ATOM     42   O  BDP B   3      21.999  10.651  17.4070  0.00  0.00     0.000 O
ATOM     44  HD  BDP B   3      22.506  11.335  17.2460  0.00  0.00     0.000 HD
BRANCH 38 44
ATOM     44   C  BDP B   3      23.410  10.964  22.1880  0.00  0.00     0.000 C
ATOM     45   O  BDP B   3      22.896  10.261  23.0860  0.00  0.00     0.000 OA
ATOM     46   O  BDP B   3      24.613  11.305  22.2090  0.00  0.00     0.000 OA
ENDBRANCH 38 44
BRANCH 34 47
ATOM     47  O3  NAG B   4      22.369  14.552  19.9680  0.00  0.00     0.000 O
BRANCH 47 50
ATOM     48  C1  NAG B   4      20.537  17.803  20.4400  0.00  0.00     0.000 C
ATOM     49  C2  NAG B   4      20.986  16.541  19.7250  0.00  0.00     0.000 C
ATOM     50  C3  NAG B   4      21.877  15.723  20.6520  0.00  0.00     0.000 C
ATOM     51  C4  NAG B   4      23.050  16.541  21.1670  0.00  0.00     0.000 C
ATOM     52  C5  NAG B   4      22.541  17.829  21.8130  0.00  0.00     0.000 C
ATOM     53  O5  NAG B   4      21.685  18.538  20.9080  0.00  0.00     0.000 O
ATOM     54   O  NAG B   4      23.785  15.758  22.1120  0.00  0.00     0.000 O
ATOM     56  HD  NAG B   4      24.220  16.460  21.8510  0.00  0.00     0.000 HD
ATOM     56   C  NAG B   4      23.696  18.734  22.2290  0.00  0.00     0.000 C
ATOM     57   O  NAG B   4      24.466  19.073  21.0680  0.00  0.00     0.000 O
ATOM     59  HD  NAG B   4      24.901  19.775  20.8070  0.00  0.00     0.000 HD
BRANCH 49 61
ATOM     59   N  NAG B   4      21.327  17.206  18.4660  0.00  0.00     0.000 N
ATOM     61  HD  NAG B   4      21.332  16.407  18.8010  0.00  0.00     0.000 HD
ATOM     61   O  NAG B   4      20.448  15.647  17.0880  0.00  0.00     0.000 OA
ATOM     62   C  NAG B   4      20.966  16.740  17.2650  0.00  0.00     0.000 C
ATOM     63   C  NAG B   4      21.215  17.660  16.1120  0.00  0.00     0.000 C
ENDBRANCH 49 61
BRANCH 48 64
ATOM     64  O4  BDP B   5      19.371  18.615  20.3340  0.00  0.00     0.000 O
BRANCH 64 68
ATOM     65  C1  BDP B   5      15.797  20.363  19.0940  0.00  0.00     0.000 C
ATOM     66  C2  BDP B   5      16.162  19.045  18.4240  0.00  0.00     0.000 C
ATOM     67  C3  BDP B   5      17.220  18.326  19.2510  0.00  0.00     0.000 C
ATOM     68  C4  BDP B   5      18.431  19.230  19.4550  0.00  0.00     0.000 C
ATOM     69  C5  BDP B   5      18.045  20.587  20.0280  0.00  0.00     0.000 C
ATOM     70  O5  BDP B   5      16.972  21.170  19.2680  0.00  0.00     0.000 O
ATOM     71   O  BDP B   5      14.982  18.244  18.2600  0.00  0.00     0.000 O
ATOM     73  HD  BDP B   5      14.244  17.794  18.2040  0.00  0.00     0.000 HD
ATOM     73   O  BDP B   5      17.635  17.120  18.5990  0.00  0.00     0.000 O
ATOM     75  HD  BDP B   5      16.897  16.670  18.5420  0.00  0.00     0.000 HD
BRANCH 69 75
ATOM     75   C  BDP B   5      19.252  21.488  19.9660  0.00  0.00     0.000 C
ATOM     76   O  BDP B   5      19.654  22.026  21.0180  0.00  0.00     0.000 OA
ATOM     77   O  BDP B   5      19.817  21.666  18.8710  0.00  0.00     0.000 OA
ENDBRANCH 69 75
BRANCH 65 78
ATOM     78  O3  NAG B   6      15.352  21.553  18.4380  0.00  0.00     0.000 O
BRANCH 78 81
ATOM     79  C1  NAG B   6      12.475  23.965  18.9300  0.00  0.00     0.000 C
ATOM     80  C2  NAG B   6      13.181  22.656  18.5420  0.00  0.00     0.000 C
ATOM     81  C3  NAG B   6      14.649  22.713  18.9350  0.00  0.00     0.000 C
ATOM     82  C4  NAG B   6      15.307  23.991  18.4030  0.00  0.00     0.000 C
ATOM     83  C5  NAG B   6      14.511  25.203  18.8740  0.00  0.00     0.000 C
ATOM     84  O5  NAG B   6      13.186  25.078  18.3580  0.00  0.00     0.000 O
BRANCH 80 87
ATOM     85   N  NAG B   6      12.683  21.454  19.2050  0.00  0.00     0.000 N
ATOM     87  HD  NAG B   6      12.026  20.927  19.4030  0.00  0.00     0.000 HD
ATOM     87   C  NAG B   6      12.181  20.395  18.5570  0.00  0.00     0.000 C
ATOM     88   C  NAG B   6      11.757  19.248  19.4190  0.00  0.00     0.000 C
ATOM     89   O  NAG B   6      12.081  20.344  17.3370  0.00  0.00     0.000 OA
ENDBRANCH 80 87
ATOM     90   O  NAG B   6      15.608  27.248  19.5550  0.00  0.00     0.000 O
ATOM     92  HD  NAG B   6      14.919  26.734  19.6630  0.00  0.00     0.000 HD
ATOM     92   O  NAG B   6      15.608  27.248  19.5550  0.00  0.00     0.000 O
ATOM     94  HD  NAG B   6      14.919  26.734  19.6630  0.00  0.00     0.000 HD
ENDBRANCH 78 81
ENDBRANCH 65 78
ENDBRANCH 64 68
ENDBRANCH 48 64
ENDBRANCH 47 50
ENDBRANCH 34 47
ENDBRANCH 33 37
ENDBRANCH 17 33
ENDBRANCH 16 19
ENDBRANCH 1 16
TORSDOF 16
ENDMDL
MODEL 46
REMARK VINA RESULT:      -6.3     11.717     19.715
ROOT
ATOM      1  C1  BDP B   1       8.614  17.032  23.0970  0.00  0.00     0.000 C
ATOM      2  C2  BDP B   1       7.229  16.614  22.6370  0.00  0.00     0.000 C
ATOM      3  C3  BDP B   1       6.146  17.096  23.5790  0.00  0.00     0.000 C
ATOM      4  C4  BDP B   1       6.608  18.166  24.5610  0.00  0.00     0.000 C
ATOM      5  C5  BDP B   1       7.935  17.820  25.2310  0.00  0.00     0.000 C
ATOM      6  O5  BDP B   1       8.666  16.821  24.5000  0.00  0.00     0.000 O
ATOM      7   O  BDP B   1       6.981  17.120  21.3200  0.00  0.00     0.000 O
ATOM      9  HD  BDP B   1       7.232  17.273  20.5060  0.00  0.00     0.000 HD
ATOM      9   O  BDP B   1       5.637  15.992  24.3440  0.00  0.00     0.000 O
ATOM     11  HD  BDP B   1       5.887  16.146  23.5300  0.00  0.00     0.000 HD
ATOM     11   O  BDP B   1       6.715  19.435  23.9040  0.00  0.00     0.000 O
ATOM     13  HD  BDP B   1       6.966  19.589  23.0890  0.00  0.00     0.000 HD
ENDROOT
BRANCH 5 13
ATOM     13   C  BDP B   1       7.620  17.314  26.5960  0.00  0.00     0.000 C
ATOM     14   O  BDP B   1       6.855  17.991  27.3130  0.00  0.00     0.000 OA
ATOM     15   O  BDP B   1       8.106  16.225  26.9670  0.00  0.00     0.000 OA
ENDBRANCH 5 13
BRANCH 1 16
ATOM     16  O3  NAG B   2       9.612  17.814  22.4430  0.00  0.00     0.000 O
BRANCH 16 19
ATOM     17  C1  NAG B   2      12.100  19.963  20.8800  0.00  0.00     0.000 C
ATOM     18  C2  NAG B   2      11.656  19.079  22.0450  0.00  0.00     0.000 C
ATOM     19  C3  NAG B   2      10.721  17.981  21.5590  0.00  0.00     0.000 C
ATOM     20  C4  NAG B   2      10.213  18.256  20.1400  0.00  0.00     0.000 C
ATOM     21  C5  NAG B   2       9.971  19.735  19.8100  0.00  0.00     0.000 C
ATOM     22  O5  NAG B   2      10.912  20.619  20.4320  0.00  0.00     0.000 O
ATOM     23   O  NAG B   2      11.145  17.697  19.2080  0.00  0.00     0.000 O
ATOM     25  HD  NAG B   2      11.846  17.945  19.6530  0.00  0.00     0.000 HD
ATOM     25   C  NAG B   2       8.554  20.157  20.2240  0.00  0.00     0.000 C
ATOM     26   O  NAG B   2       7.591  19.854  19.2050  0.00  0.00     0.000 O
ATOM     28  HD  NAG B   2       8.292  20.102  19.6490  0.00  0.00     0.000 HD
BRANCH 18 30
ATOM     28   N  NAG B   2      12.960  18.636  21.5550  0.00  0.00     0.000 N
ATOM     30  HD  NAG B   2      13.329  18.111  20.9740  0.00  0.00     0.000 HD
ATOM     30   C  NAG B   2      13.825  17.881  22.2480  0.00  0.00     0.000 C
ATOM     31   C  NAG B   2      15.106  17.568  21.5290  0.00  0.00     0.000 C
ATOM     32   O  NAG B   2      13.605  17.470  23.3630  0.00  0.00     0.000 OA
ENDBRANCH 18 30
BRANCH 17 33
ATOM     33  O4  BDP B   3      12.611  21.200  20.3380  0.00  0.00     0.000 O
BRANCH 33 37
ATOM     34  C1  BDP B   3      16.322  22.359  18.5690  0.00  0.00     0.000 C
ATOM     35  C2  BDP B   3      15.737  23.283  19.6300  0.00  0.00     0.000 C
ATOM     36  C3  BDP B   3      14.674  22.620  20.4980  0.00  0.00     0.000 C
ATOM     37  C4  BDP B   3      13.695  21.843  19.6050  0.00  0.00     0.000 C
ATOM     38  C5  BDP B   3      14.527  20.842  18.7790  0.00  0.00     0.000 C
ATOM     39  O5  BDP B   3      15.299  21.635  17.8770  0.00  0.00     0.000 O
ATOM     40   O  BDP B   3      16.844  23.759  20.3990  0.00  0.00     0.000 O
ATOM     42  HD  BDP B   3      16.892  24.288  19.7160  0.00  0.00     0.000 HD
ATOM     42   O  BDP B   3      14.020  23.666  21.2160  0.00  0.00     0.000 O
ATOM     44  HD  BDP B   3      14.068  24.195  20.5320  0.00  0.00     0.000 HD
BRANCH 38 44
ATOM     44   C  BDP B   3      13.714  19.847  18.0110  0.00  0.00     0.000 C
ATOM     45   O  BDP B   3      13.831  18.639  18.3120  0.00  0.00     0.000 OA
ATOM     46   O  BDP B   3      12.951  20.241  17.1020  0.00  0.00     0.000 OA
ENDBRANCH 38 44
BRANCH 34 47
ATOM     47  O3  NAG B   4      16.579  23.046  17.3460  0.00  0.00     0.000 O
BRANCH 47 50
ATOM     48  C1  NAG B   4      18.566  20.840  15.0360  0.00  0.00     0.000 C
ATOM     49  C2  NAG B   4      18.201  21.537  16.3350  0.00  0.00     0.000 C
ATOM     50  C3  NAG B   4      16.908  22.322  16.1430  0.00  0.00     0.000 C
ATOM     51  C4  NAG B   4      17.010  23.293  14.9770  0.00  0.00     0.000 C
ATOM     52  C5  NAG B   4      17.448  22.547  13.7170  0.00  0.00     0.000 C
ATOM     53  O5  NAG B   4      18.647  21.803  13.9670  0.00  0.00     0.000 O
ATOM     54   O  NAG B   4      15.740  23.918  14.7790  0.00  0.00     0.000 O
ATOM     56  HD  NAG B   4      16.379  24.320  14.3550  0.00  0.00     0.000 HD
ATOM     56   C  NAG B   4      17.683  23.509  12.5580  0.00  0.00     0.000 C
ATOM     57   O  NAG B   4      18.710  24.439  12.9230  0.00  0.00     0.000 O
ATOM     59  HD  NAG B   4      19.349  24.841  12.4990  0.00  0.00     0.000 HD
BRANCH 49 61
ATOM     59   N  NAG B   4      19.572  21.973  16.6010  0.00  0.00     0.000 N
ATOM     61  HD  NAG B   4      18.786  22.046  16.9570  0.00  0.00     0.000 HD
ATOM     61   O  NAG B   4      19.555  21.581  18.8260  0.00  0.00     0.000 OA
ATOM     62   C  NAG B   4      20.152  21.889  17.8040  0.00  0.00     0.000 C
ATOM     63   C  NAG B   4      21.619  22.179  17.8370  0.00  0.00     0.000 C
ENDBRANCH 49 61
BRANCH 48 64
ATOM     64  O4  BDP B   5      19.271  19.637  14.7460  0.00  0.00     0.000 O
BRANCH 64 68
ATOM     65  C1  BDP B   5      20.645  15.724  14.3250  0.00  0.00     0.000 C
ATOM     66  C2  BDP B   5      19.534  16.147  13.3740  0.00  0.00     0.000 C
ATOM     67  C3  BDP B   5      19.438  17.667  13.3410  0.00  0.00     0.000 C
ATOM     68  C4  BDP B   5      19.233  18.210  14.7500  0.00  0.00     0.000 C
ATOM     69  C5  BDP B   5      20.289  17.699  15.7220  0.00  0.00     0.000 C
ATOM     70  O5  BDP B   5      20.408  16.268  15.6330  0.00  0.00     0.000 O
ATOM     71   O  BDP B   5      19.784  15.603  12.0690  0.00  0.00     0.000 O
ATOM     73  HD  BDP B   5      19.993  15.267  11.2980  0.00  0.00     0.000 HD
ATOM     73   O  BDP B   5      18.348  18.084  12.5100  0.00  0.00     0.000 O
ATOM     75  HD  BDP B   5      18.557  17.749  11.7400  0.00  0.00     0.000 HD
BRANCH 69 75
ATOM     75   C  BDP B   5      19.872  18.084  17.1190  0.00  0.00     0.000 C
ATOM     76   O  BDP B   5      20.749  18.454  17.9260  0.00  0.00     0.000 OA
ATOM     77   O  BDP B   5      18.667  18.025  17.4270  0.00  0.00     0.000 OA
ENDBRANCH 69 75
BRANCH 65 78
ATOM     78  O3  NAG B   6      20.696  14.514  15.0860  0.00  0.00     0.000 O
BRANCH 78 81
ATOM     79  C1  NAG B   6      22.942  11.472  15.2750  0.00  0.00     0.000 C
ATOM     80  C2  NAG B   6      21.859  12.406  14.7120  0.00  0.00     0.000 C
ATOM     81  C3  NAG B   6      21.810  13.698  15.5110  0.00  0.00     0.000 C
ATOM     82  C4  NAG B   6      21.703  13.408  17.0110  0.00  0.00     0.000 C
ATOM     83  C5  NAG B   6      22.842  12.485  17.4310  0.00  0.00     0.000 C
ATOM     84  O5  NAG B   6      22.716  11.275  16.6830  0.00  0.00     0.000 O
BRANCH 80 87
ATOM     85   N  NAG B   6      21.035  12.078  13.5510  0.00  0.00     0.000 N
ATOM     87  HD  NAG B   6      20.458  12.317  12.9520  0.00  0.00     0.000 HD
ATOM     87   C  NAG B   6      21.203  12.617  12.3380  0.00  0.00     0.000 C
ATOM     88   C  NAG B   6      20.276  12.121  11.2740  0.00  0.00     0.000 C
ATOM     89   O  NAG B   6      22.063  13.454  12.0910  0.00  0.00     0.000 OA
ENDBRANCH 80 87
ATOM     90   O  NAG B   6      23.981  12.764  19.5460  0.00  0.00     0.000 O
ATOM     92  HD  NAG B   6      24.051  12.503  18.7230  0.00  0.00     0.000 HD
ATOM     92   O  NAG B   6      23.981  12.764  19.5460  0.00  0.00     0.000 O
ATOM     94  HD  NAG B   6      24.051  12.503  18.7230  0.00  0.00     0.000 HD
ENDBRANCH 78 81
ENDBRANCH 65 78
ENDBRANCH 64 68
ENDBRANCH 48 64
ENDBRANCH 47 50
ENDBRANCH 34 47
ENDBRANCH 33 37
ENDBRANCH 17 33
ENDBRANCH 16 19
ENDBRANCH 1 16
TORSDOF 16
ENDMDL
MODEL 47
REMARK VINA RESULT:      -6.2      5.300     10.874
ROOT
ATOM      1  C1  BDP B   1      20.306  13.515  28.9470  0.00  0.00     0.000 C
ATOM      2  C2  BDP B   1      20.791  14.381  27.7980  0.00  0.00     0.000 C
ATOM      3  C3  BDP B   1      21.740  13.637  26.8840  0.00  0.00     0.000 C
ATOM      4  C4  BDP B   1      21.736  12.125  27.0810  0.00  0.00     0.000 C
ATOM      5  C5  BDP B   1      21.811  11.721  28.5500  0.00  0.00     0.000 C
ATOM      6  O5  BDP B   1      21.432  12.795  29.4280  0.00  0.00     0.000 O
ATOM      7   O  BDP B   1      19.672  14.860  27.0440  0.00  0.00     0.000 O
ATOM      9  HD  BDP B   1      18.877  15.200  26.9970  0.00  0.00     0.000 HD
ATOM      9   O  BDP B   1      23.084  14.100  27.0910  0.00  0.00     0.000 O
ATOM     11  HD  BDP B   1      22.289  14.440  27.0440  0.00  0.00     0.000 HD
ATOM     11   O  BDP B   1      20.571  11.547  26.4790  0.00  0.00     0.000 O
ATOM     13  HD  BDP B   1      19.776  11.886  26.4320  0.00  0.00     0.000 HD
ENDROOT
BRANCH 5 13
ATOM     13   C  BDP B   1      23.218  11.320  28.8260  0.00  0.00     0.000 C
ATOM     14   O  BDP B   1      23.533  11.047  30.0020  0.00  0.00     0.000 OA
ATOM     15   O  BDP B   1      24.025  11.244  27.8750  0.00  0.00     0.000 OA
ENDBRANCH 5 13
BRANCH 1 16
ATOM     16  O3  NAG B   2      18.985  13.134  29.3280  0.00  0.00     0.000 O
BRANCH 16 19
ATOM     17  C1  NAG B   2      15.844  11.520  30.2140  0.00  0.00     0.000 C
ATOM     18  C2  NAG B   2      16.815  12.694  30.3440  0.00  0.00     0.000 C
ATOM     19  C3  NAG B   2      17.605  12.881  29.0580  0.00  0.00     0.000 C
ATOM     20  C4  NAG B   2      17.475  11.669  28.1310  0.00  0.00     0.000 C
ATOM     21  C5  NAG B   2      17.388  10.311  28.8420  0.00  0.00     0.000 C
ATOM     22  O5  NAG B   2      16.672  10.362  30.0810  0.00  0.00     0.000 O
ATOM     23   O  NAG B   2      16.325  11.855  27.2990  0.00  0.00     0.000 O
ATOM     25  HD  NAG B   2      15.833  12.180  27.9320  0.00  0.00     0.000 HD
ATOM     25   C  NAG B   2      18.792   9.750  29.1100  0.00  0.00     0.000 C
ATOM     26   O  NAG B   2      19.304   9.035  27.9760  0.00  0.00     0.000 O
ATOM     28  HD  NAG B   2      18.811   9.361  28.6090  0.00  0.00     0.000 HD
BRANCH 18 30
ATOM     28   N  NAG B   2      15.954  13.751  30.8720  0.00  0.00     0.000 N
ATOM     30  HD  NAG B   2      15.280  13.884  31.4000  0.00  0.00     0.000 HD
ATOM     30   C  NAG B   2      15.062  14.446  30.1520  0.00  0.00     0.000 C
ATOM     31   C  NAG B   2      14.304  15.490  30.9230  0.00  0.00     0.000 C
ATOM     32   O  NAG B   2      14.864  14.257  28.9750  0.00  0.00     0.000 OA
ENDBRANCH 18 30
BRANCH 17 33
ATOM     33  O4  BDP B   3      15.017  10.478  30.7760  0.00  0.00     0.000 O
BRANCH 33 37
ATOM     34  C1  BDP B   3      12.140   8.991  33.5610  0.00  0.00     0.000 C
ATOM     35  C2  BDP B   3      11.972   8.586  32.1010  0.00  0.00     0.000 C
ATOM     36  C3  BDP B   3      13.229   8.786  31.2630  0.00  0.00     0.000 C
ATOM     37  C4  BDP B   3      13.827  10.170  31.5590  0.00  0.00     0.000 C
ATOM     38  C5  BDP B   3      14.081  10.243  33.0770  0.00  0.00     0.000 C
ATOM     39  O5  BDP B   3      12.789  10.262  33.6840  0.00  0.00     0.000 O
ATOM     40   O  BDP B   3      11.541   7.223  32.1130  0.00  0.00     0.000 O
ATOM     42  HD  BDP B   3      10.789   7.624  32.2690  0.00  0.00     0.000 HD
ATOM     42   O  BDP B   3      12.836   8.659  29.8980  0.00  0.00     0.000 O
ATOM     44  HD  BDP B   3      12.084   9.060  30.0540  0.00  0.00     0.000 HD
BRANCH 38 44
ATOM     44   C  BDP B   3      14.866  11.440  33.5160  0.00  0.00     0.000 C
ATOM     45   O  BDP B   3      15.977  11.245  34.0570  0.00  0.00     0.000 OA
ATOM     46   O  BDP B   3      14.399  12.585  33.3360  0.00  0.00     0.000 OA
ENDBRANCH 38 44
BRANCH 34 47
ATOM     47  O3  NAG B   4      10.965   9.609  34.0820  0.00  0.00     0.000 O
BRANCH 47 50
ATOM     48  C1  NAG B   4       9.878   8.532  37.5180  0.00  0.00     0.000 C
ATOM     49  C2  NAG B   4      10.170   8.391  36.0340  0.00  0.00     0.000 C
ATOM     50  C3  NAG B   4      10.743   9.701  35.5040  0.00  0.00     0.000 C
ATOM     51  C4  NAG B   4       9.822  10.874  35.8000  0.00  0.00     0.000 C
ATOM     52  C5  NAG B   4       9.508  10.923  37.2950  0.00  0.00     0.000 C
ATOM     53  O5  NAG B   4       9.005   9.657  37.7420  0.00  0.00     0.000 O
ATOM     54   O  NAG B   4      10.459  12.083  35.3780  0.00  0.00     0.000 O
ATOM     56  HD  NAG B   4       9.615  12.190  35.5410  0.00  0.00     0.000 HD
ATOM     56   C  NAG B   4       8.488  12.011  37.6110  0.00  0.00     0.000 C
ATOM     57   O  NAG B   4       7.277  11.740  36.8930  0.00  0.00     0.000 O
ATOM     59  HD  NAG B   4       6.433  11.846  37.0560  0.00  0.00     0.000 HD
BRANCH 49 61
ATOM     59   N  NAG B   4      10.761   7.055  36.1250  0.00  0.00     0.000 N
ATOM     61  HD  NAG B   4       9.993   7.416  35.9490  0.00  0.00     0.000 HD
ATOM     61   O  NAG B   4       9.761   6.190  34.2940  0.00  0.00     0.000 OA
ATOM     62   C  NAG B   4      10.564   6.098  35.2110  0.00  0.00     0.000 C
ATOM     63   C  NAG B   4      11.416   4.877  35.3580  0.00  0.00     0.000 C
ENDBRANCH 49 61
BRANCH 48 64
ATOM     64  O4  BDP B   5       9.861   7.601  38.5960  0.00  0.00     0.000 O
BRANCH 64 68
ATOM     65  C1  BDP B   5      11.185   8.275  42.4900  0.00  0.00     0.000 C
ATOM     66  C2  BDP B   5      12.193   7.636  41.5440  0.00  0.00     0.000 C
ATOM     67  C3  BDP B   5      11.746   7.843  40.1030  0.00  0.00     0.000 C
ATOM     68  C4  BDP B   5      10.337   7.296  39.9060  0.00  0.00     0.000 C
ATOM     69  C5  BDP B   5       9.354   7.861  40.9240  0.00  0.00     0.000 C
ATOM     70  O5  BDP B   5       9.876   7.731  42.2570  0.00  0.00     0.000 O
ATOM     71   O  BDP B   5      13.496   8.191  41.7810  0.00  0.00     0.000 O
ATOM     73  HD  BDP B   5      14.254   8.572  41.9510  0.00  0.00     0.000 HD
ATOM     73   O  BDP B   5      12.640   7.183  39.1990  0.00  0.00     0.000 O
ATOM     75  HD  BDP B   5      13.398   7.564  39.3680  0.00  0.00     0.000 HD
BRANCH 69 75
ATOM     75   C  BDP B   5       8.062   7.092  40.8120  0.00  0.00     0.000 C
ATOM     76   O  BDP B   5       7.041   7.689  40.4150  0.00  0.00     0.000 OA
ATOM     77   O  BDP B   5       8.051   5.884  41.1140  0.00  0.00     0.000 OA
ENDBRANCH 69 75
BRANCH 65 78
ATOM     78  O3  NAG B   6      10.879   7.847  43.8200  0.00  0.00     0.000 O
BRANCH 78 81
ATOM     79  C1  NAG B   6      10.425   9.816  47.0210  0.00  0.00     0.000 C
ATOM     80  C2  NAG B   6      11.152   9.257  45.7880  0.00  0.00     0.000 C
ATOM     81  C3  NAG B   6      10.177   8.503  44.8980  0.00  0.00     0.000 C
ATOM     82  C4  NAG B   6       9.383   7.474  45.7080  0.00  0.00     0.000 C
ATOM     83  C5  NAG B   6       8.707   8.167  46.8860  0.00  0.00     0.000 C
ATOM     84  O5  NAG B   6       9.733   8.747  47.6920  0.00  0.00     0.000 O
BRANCH 80 87
ATOM     85   N  NAG B   6      12.560   9.370  45.4170  0.00  0.00     0.000 N
ATOM     87  HD  NAG B   6      13.180   9.335  44.8140  0.00  0.00     0.000 HD
ATOM     87   C  NAG B   6      13.047  10.316  44.6050  0.00  0.00     0.000 C
ATOM     88   C  NAG B   6      14.525  10.279  44.3780  0.00  0.00     0.000 C
ATOM     89   O  NAG B   6      12.346  11.174  44.0820  0.00  0.00     0.000 OA
ENDBRANCH 80 87
ATOM     90   O  NAG B   6       6.477   7.563  47.6000  0.00  0.00     0.000 O
ATOM     92  HD  NAG B   6       7.064   8.198  47.5410  0.00  0.00     0.000 HD
ATOM     92   O  NAG B   6       6.477   7.563  47.6000  0.00  0.00     0.000 O
ATOM     94  HD  NAG B   6       7.064   8.198  47.5410  0.00  0.00     0.000 HD
ENDBRANCH 78 81
ENDBRANCH 65 78
ENDBRANCH 64 68
ENDBRANCH 48 64
ENDBRANCH 47 50
ENDBRANCH 34 47
ENDBRANCH 33 37
ENDBRANCH 17 33
ENDBRANCH 16 19
ENDBRANCH 1 16
TORSDOF 16
ENDMDL
MODEL 48
REMARK VINA RESULT:      -6.2     17.268     19.903
ROOT
ATOM      1  C1  BDP B   1      25.513   5.957  11.1010  0.00  0.00     0.000 C
ATOM      2  C2  BDP B   1      25.377   4.489  10.7380  0.00  0.00     0.000 C
ATOM      3  C3  BDP B   1      24.998   3.640  11.9320  0.00  0.00     0.000 C
ATOM      4  C4  BDP B   1      24.494   4.439  13.1290  0.00  0.00     0.000 C
ATOM      5  C5  BDP B   1      25.378   5.641  13.4500  0.00  0.00     0.000 C
ATOM      6  O5  BDP B   1      26.208   6.016  12.3380  0.00  0.00     0.000 O
ATOM      7   O  BDP B   1      24.398   4.332   9.7060  0.00  0.00     0.000 O
ATOM      9  HD  BDP B   1      24.037   4.575   8.9570  0.00  0.00     0.000 HD
ATOM      9   O  BDP B   1      26.132   2.872  12.3670  0.00  0.00     0.000 O
ATOM     11  HD  BDP B   1      25.772   3.116  11.6180  0.00  0.00     0.000 HD
ATOM     11   O  BDP B   1      23.147   4.875  12.9070  0.00  0.00     0.000 O
ATOM     13  HD  BDP B   1      22.787   5.118  12.1580  0.00  0.00     0.000 HD
ENDROOT
BRANCH 5 13
ATOM     13   C  BDP B   1      26.232   5.263  14.6090  0.00  0.00     0.000 C
ATOM     14   O  BDP B   1      26.139   4.100  15.0550  0.00  0.00     0.000 OA
ATOM     15   O  BDP B   1      27.027   6.104  15.0790  0.00  0.00     0.000 OA
ENDBRANCH 5 13
BRANCH 1 16
ATOM     16  O3  NAG B   2      24.832   7.104  10.5960  0.00  0.00     0.000 O
BRANCH 16 19
ATOM     17  C1  NAG B   2      23.755  10.575  10.3730  0.00  0.00     0.000 C
ATOM     18  C2  NAG B   2      24.099   9.247   9.6970  0.00  0.00     0.000 C
ATOM     19  C3  NAG B   2      23.789   8.079  10.6220  0.00  0.00     0.000 C
ATOM     20  C4  NAG B   2      23.553   8.544  12.0620  0.00  0.00     0.000 C
ATOM     21  C5  NAG B   2      24.414   9.732  12.5130  0.00  0.00     0.000 C
ATOM     22  O5  NAG B   2      24.662  10.683  11.4720  0.00  0.00     0.000 O
ATOM     23   O  NAG B   2      22.166   8.864  12.2150  0.00  0.00     0.000 O
ATOM     25  HD  NAG B   2      22.098   9.250  11.4420  0.00  0.00     0.000 HD
ATOM     25   C  NAG B   2      25.762   9.244  13.0640  0.00  0.00     0.000 C
ATOM     26   O  NAG B   2      25.671   8.886  14.4500  0.00  0.00     0.000 O
ATOM     28  HD  NAG B   2      25.603   9.271  13.6770  0.00  0.00     0.000 HD
BRANCH 18 30
ATOM     28   N  NAG B   2      22.765   9.678   9.2830  0.00  0.00     0.000 N
ATOM     30  HD  NAG B   2      21.929   9.618   9.5010  0.00  0.00     0.000 HD
ATOM     30   C  NAG B   2      22.132   9.261   8.1780  0.00  0.00     0.000 C
ATOM     31   C  NAG B   2      20.770   9.859   7.9650  0.00  0.00     0.000 C
ATOM     32   O  NAG B   2      22.601   8.460   7.4030  0.00  0.00     0.000 OA
ENDBRANCH 18 30
BRANCH 17 33
ATOM     33  O4  BDP B   3      23.893  12.004  10.5240  0.00  0.00     0.000 O
BRANCH 33 37
ATOM     34  C1  BDP B   3      21.538  15.336   9.2610  0.00  0.00     0.000 C
ATOM     35  C2  BDP B   3      23.017  15.349   8.8940  0.00  0.00     0.000 C
ATOM     36  C3  BDP B   3      23.683  13.981   8.9930  0.00  0.00     0.000 C
ATOM     37  C4  BDP B   3      23.276  13.308  10.3130  0.00  0.00     0.000 C
ATOM     38  C5  BDP B   3      21.737  13.246  10.3390  0.00  0.00     0.000 C
ATOM     39  O5  BDP B   3      21.299  14.599  10.4660  0.00  0.00     0.000 O
ATOM     40   O  BDP B   3      23.097  15.896   7.5760  0.00  0.00     0.000 O
ATOM     42  HD  BDP B   3      23.027  16.623   8.0410  0.00  0.00     0.000 HD
ATOM     42   O  BDP B   3      25.090  14.205   8.9230  0.00  0.00     0.000 O
ATOM     44  HD  BDP B   3      25.020  14.932   9.3880  0.00  0.00     0.000 HD
BRANCH 38 44
ATOM     44   C  BDP B   3      21.169  12.423  11.4530  0.00  0.00     0.000 C
ATOM     45   O  BDP B   3      20.634  11.332  11.1600  0.00  0.00     0.000 OA
ATOM     46   O  BDP B   3      21.243  12.841  12.6290  0.00  0.00     0.000 OA
ENDBRANCH 38 44
BRANCH 34 47
ATOM     47  O3  NAG B   4      21.154  16.510   9.9740  0.00  0.00     0.000 O
BRANCH 47 50
ATOM     48  C1  NAG B   4      17.540  17.376  10.5550  0.00  0.00     0.000 C
ATOM     49  C2  NAG B   4      18.842  17.250   9.7840  0.00  0.00     0.000 C
ATOM     50  C3  NAG B   4      19.890  16.578  10.6650  0.00  0.00     0.000 C
ATOM     51  C4  NAG B   4      20.070  17.317  11.9820  0.00  0.00     0.000 C
ATOM     52  C5  NAG B   4      18.718  17.475  12.6780  0.00  0.00     0.000 C
ATOM     53  O5  NAG B   4      17.768  18.080  11.7920  0.00  0.00     0.000 O
ATOM     54   O  NAG B   4      20.980  16.584  12.8060  0.00  0.00     0.000 O
ATOM     56  HD  NAG B   4      20.842  17.388  13.0950  0.00  0.00     0.000 HD
ATOM     56   C  NAG B   4      18.841  18.320  13.9400  0.00  0.00     0.000 C
ATOM     57   O  NAG B   4      19.333  19.620  13.5870  0.00  0.00     0.000 O
ATOM     59  HD  NAG B   4      19.195  20.424  13.8760  0.00  0.00     0.000 HD
BRANCH 49 61
ATOM     59   N  NAG B   4      18.446  16.629   8.5200  0.00  0.00     0.000 N
ATOM     61  HD  NAG B   4      18.521  17.422   8.8590  0.00  0.00     0.000 HD
ATOM     61   O  NAG B   4      19.497  18.091   7.1570  0.00  0.00     0.000 OA
ATOM     62   C  NAG B   4      18.866  17.058   7.3240  0.00  0.00     0.000 C
ATOM     63   C  NAG B   4      18.531  16.172   6.1650  0.00  0.00     0.000 C
ENDBRANCH 49 61
BRANCH 48 64
ATOM     64  O4  BDP B   5      16.174  17.399  10.1530  0.00  0.00     0.000 O
BRANCH 64 68
ATOM     65  C1  BDP B   5      12.768  15.006  10.3690  0.00  0.00     0.000 C
ATOM     66  C2  BDP B   5      13.982  14.379   9.6970  0.00  0.00     0.000 C
ATOM     67  C3  BDP B   5      15.234  15.164  10.0660  0.00  0.00     0.000 C
ATOM     68  C4  BDP B   5      15.060  16.633   9.6960  0.00  0.00     0.000 C
ATOM     69  C5  BDP B   5      13.787  17.227  10.2850  0.00  0.00     0.000 C
ATOM     70  O5  BDP B   5      12.655  16.388   9.9930  0.00  0.00     0.000 O
ATOM     71   O  BDP B   5      14.088  13.000  10.0840  0.00  0.00     0.000 O
ATOM     73  HD  BDP B   5      14.116  12.181  10.3640  0.00  0.00     0.000 HD
ATOM     73   O  BDP B   5      16.378  14.637   9.3830  0.00  0.00     0.000 O
ATOM     75  HD  BDP B   5      16.406  13.819   9.6630  0.00  0.00     0.000 HD
BRANCH 69 75
ATOM     75   C  BDP B   5      13.574  18.590   9.6750  0.00  0.00     0.000 C
ATOM     76   O  BDP B   5      13.476  19.577  10.4320  0.00  0.00     0.000 OA
ATOM     77   O  BDP B   5      13.506  18.692   8.4360  0.00  0.00     0.000 OA
ENDBRANCH 69 75
BRANCH 65 78
ATOM     78  O3  NAG B   6      11.426  14.998   9.8740  0.00  0.00     0.000 O
BRANCH 78 81
ATOM     79  C1  NAG B   6       8.044  13.707  10.9840  0.00  0.00     0.000 C
ATOM     80  C2  NAG B   6       9.463  13.652  10.3950  0.00  0.00     0.000 C
ATOM     81  C3  NAG B   6      10.154  14.996  10.5590  0.00  0.00     0.000 C
ATOM     82  C4  NAG B   6       9.272  16.131  10.0290  0.00  0.00     0.000 C
ATOM     83  C5  NAG B   6       7.908  16.071  10.7070  0.00  0.00     0.000 C
ATOM     84  O5  NAG B   6       7.325  14.805  10.3940  0.00  0.00     0.000 O
BRANCH 80 87
ATOM     85   N  NAG B   6      10.117  12.509  11.0260  0.00  0.00     0.000 N
ATOM     87  HD  NAG B   6      10.233  11.653  11.0870  0.00  0.00     0.000 HD
ATOM     87   C  NAG B   6      10.970  11.692  10.3950  0.00  0.00     0.000 C
ATOM     88   C  NAG B   6      11.559  10.600  11.2300  0.00  0.00     0.000 C
ATOM     89   O  NAG B   6      11.272  11.823   9.2150  0.00  0.00     0.000 OA
ENDBRANCH 80 87
ATOM     90   O  NAG B   6       6.732  18.081  11.3610  0.00  0.00     0.000 O
ATOM     92  HD  NAG B   6       6.873  17.244  11.5350  0.00  0.00     0.000 HD
ATOM     92   O  NAG B   6       6.732  18.081  11.3610  0.00  0.00     0.000 O
ATOM     94  HD  NAG B   6       6.873  17.244  11.5350  0.00  0.00     0.000 HD
ENDBRANCH 78 81
ENDBRANCH 65 78
ENDBRANCH 64 68
ENDBRANCH 48 64
ENDBRANCH 47 50
ENDBRANCH 34 47
ENDBRANCH 33 37
ENDBRANCH 17 33
ENDBRANCH 16 19
ENDBRANCH 1 16
TORSDOF 16
ENDMDL
MODEL 49
REMARK VINA RESULT:      -6.1     13.876     21.834
ROOT
ATOM      1  C1  BDP B   1       9.182  18.080  22.9720  0.00  0.00     0.000 C
ATOM      2  C2  BDP B   1       9.191  18.170  24.4880  0.00  0.00     0.000 C
ATOM      3  C3  BDP B   1       7.984  17.496  25.1060  0.00  0.00     0.000 C
ATOM      4  C4  BDP B   1       7.223  16.586  24.1490  0.00  0.00     0.000 C
ATOM      5  C5  BDP B   1       6.971  17.234  22.7910  0.00  0.00     0.000 C
ATOM      6  O5  BDP B   1       7.853  18.343  22.5480  0.00  0.00     0.000 O
ATOM      7   O  BDP B   1      10.389  17.579  25.0040  0.00  0.00     0.000 O
ATOM      9  HD  BDP B   1      11.246  17.457  24.9820  0.00  0.00     0.000 HD
ATOM      9   O  BDP B   1       7.064  18.487  25.5890  0.00  0.00     0.000 O
ATOM     11  HD  BDP B   1       7.921  18.365  25.5670  0.00  0.00     0.000 HD
ATOM     11   O  BDP B   1       7.926  15.349  23.9710  0.00  0.00     0.000 O
ATOM     13  HD  BDP B   1       8.783  15.227  23.9490  0.00  0.00     0.000 HD
ENDROOT
BRANCH 5 13
ATOM     13   C  BDP B   1       5.559  17.705  22.7830  0.00  0.00     0.000 C
ATOM     14   O  BDP B   1       5.267  18.707  23.4680  0.00  0.00     0.000 OA
ATOM     15   O  BDP B   1       4.721  17.103  22.0770  0.00  0.00     0.000 OA
ENDBRANCH 5 13
BRANCH 1 16
ATOM     16  O3  NAG B   2      10.132  17.512  22.0720  0.00  0.00     0.000 O
BRANCH 16 19
ATOM     17  C1  NAG B   2      12.928  19.382  20.6800  0.00  0.00     0.000 C
ATOM     18  C2  NAG B   2      12.304  18.588  21.8280  0.00  0.00     0.000 C
ATOM     19  C3  NAG B   2      11.328  17.551  21.2920  0.00  0.00     0.000 C
ATOM     20  C4  NAG B   2      10.980  17.804  19.8230  0.00  0.00     0.000 C
ATOM     21  C5  NAG B   2      10.896  19.283  19.4190  0.00  0.00     0.000 C
ATOM     22  O5  NAG B   2      11.847  20.113  20.0970  0.00  0.00     0.000 O
ATOM     23   O  NAG B   2      11.942  17.132  19.0050  0.00  0.00     0.000 O
ATOM     25  HD  NAG B   2      12.618  17.341  19.5050  0.00  0.00     0.000 HD
ATOM     25   C  NAG B   2       9.488  19.837  19.6800  0.00  0.00     0.000 C
ATOM     26   O  NAG B   2       8.601  19.569  18.5850  0.00  0.00     0.000 O
ATOM     28  HD  NAG B   2       9.276  19.778  19.0850  0.00  0.00     0.000 HD
BRANCH 18 30
ATOM     28   N  NAG B   2      13.524  17.884  21.4370  0.00  0.00     0.000 N
ATOM     30  HD  NAG B   2      13.802  17.189  21.0010  0.00  0.00     0.000 HD
ATOM     30   C  NAG B   2      14.335  17.227  22.2790  0.00  0.00     0.000 C
ATOM     31   C  NAG B   2      15.535  16.592  21.6350  0.00  0.00     0.000 C
ATOM     32   O  NAG B   2      14.129  17.137  23.4670  0.00  0.00     0.000 OA
ENDBRANCH 18 30
BRANCH 17 33
ATOM     33  O4  BDP B   3      13.591  20.549  20.1460  0.00  0.00     0.000 O
BRANCH 33 37
ATOM     34  C1  BDP B   3      16.771  21.211  17.3720  0.00  0.00     0.000 C
ATOM     35  C2  BDP B   3      17.156  20.919  18.8180  0.00  0.00     0.000 C
ATOM     36  C3  BDP B   3      16.034  20.288  19.6340  0.00  0.00     0.000 C
ATOM     37  C4  BDP B   3      14.725  21.051  19.3790  0.00  0.00     0.000 C
ATOM     38  C5  BDP B   3      14.470  21.028  17.8600  0.00  0.00     0.000 C
ATOM     39  O5  BDP B   3      15.489  21.845  17.2850  0.00  0.00     0.000 O
ATOM     40   O  BDP B   3      18.318  20.088  18.7610  0.00  0.00     0.000 O
ATOM     42  HD  BDP B   3      18.678  20.865  18.6390  0.00  0.00     0.000 HD
ATOM     42   O  BDP B   3      16.432  20.358  21.0020  0.00  0.00     0.000 O
ATOM     44  HD  BDP B   3      16.793  21.136  20.8790  0.00  0.00     0.000 HD
BRANCH 38 44
ATOM     44   C  BDP B   3      13.122  21.536  17.4510  0.00  0.00     0.000 C
ATOM     45   O  BDP B   3      12.797  22.688  17.8130  0.00  0.00     0.000 OA
ATOM     46   O  BDP B   3      12.367  20.807  16.7710  0.00  0.00     0.000 OA
ENDBRANCH 38 44
BRANCH 34 47
ATOM     47  O3  NAG B   4      17.339  22.433  16.9050  0.00  0.00     0.000 O
BRANCH 47 50
ATOM     48  C1  NAG B   4      18.419  22.362  13.3020  0.00  0.00     0.000 C
ATOM     49  C2  NAG B   4      18.391  21.948  14.7630  0.00  0.00     0.000 C
ATOM     50  C3  NAG B   4      17.335  22.763  15.5010  0.00  0.00     0.000 C
ATOM     51  C4  NAG B   4      17.563  24.257  15.3310  0.00  0.00     0.000 C
ATOM     52  C5  NAG B   4      17.652  24.603  13.8440  0.00  0.00     0.000 C
ATOM     53  O5  NAG B   4      18.634  23.783  13.1980  0.00  0.00     0.000 O
ATOM     54   O  NAG B   4      16.486  24.966  15.9500  0.00  0.00     0.000 O
ATOM     56  HD  NAG B   4      17.159  25.478  15.7630  0.00  0.00     0.000 HD
ATOM     56   C  NAG B   4      18.004  26.071  13.6370  0.00  0.00     0.000 C
ATOM     57   O  NAG B   4      19.272  26.339  14.2500  0.00  0.00     0.000 O
ATOM     59  HD  NAG B   4      19.945  26.851  14.0630  0.00  0.00     0.000 HD
BRANCH 49 61
ATOM     59   N  NAG B   4      18.486  20.509  14.5120  0.00  0.00     0.000 N
ATOM     61  HD  NAG B   4      19.011  21.172  14.7000  0.00  0.00     0.000 HD
ATOM     61   O  NAG B   4      19.969  20.044  16.1510  0.00  0.00     0.000 OA
ATOM     62   C  NAG B   4      19.206  19.674  15.2700  0.00  0.00     0.000 C
ATOM     63   C  NAG B   4      19.012  18.217  14.9920  0.00  0.00     0.000 C
ENDBRANCH 49 61
BRANCH 48 64
ATOM     64  O4  BDP B   5      18.750  21.667  12.1030  0.00  0.00     0.000 O
BRANCH 64 68
ATOM     65  C1  BDP B   5      16.793  18.486  10.2530  0.00  0.00     0.000 C
ATOM     66  C2  BDP B   5      18.303  18.541  10.0640  0.00  0.00     0.000 C
ATOM     67  C3  BDP B   5      18.918  19.460  11.1120  0.00  0.00     0.000 C
ATOM     68  C4  BDP B   5      18.273  20.839  11.0430  0.00  0.00     0.000 C
ATOM     69  C5  BDP B   5      16.754  20.769  11.1280  0.00  0.00     0.000 C
ATOM     70  O5  BDP B   5      16.239  19.809  10.1880  0.00  0.00     0.000 O
ATOM     71   O  BDP B   5      18.847  17.214  10.1370  0.00  0.00     0.000 O
ATOM     73  HD  BDP B   5      19.125  16.397  10.2090  0.00  0.00     0.000 HD
ATOM     73   O  BDP B   5      20.329  19.587  10.9040  0.00  0.00     0.000 O
ATOM     75  HD  BDP B   5      20.607  18.770  10.9760  0.00  0.00     0.000 HD
BRANCH 69 75
ATOM     75   C  BDP B   5      16.197  22.133  10.8100  0.00  0.00     0.000 C
ATOM     76   O  BDP B   5      15.356  22.633  11.5830  0.00  0.00     0.000 OA
ATOM     77   O  BDP B   5      16.595  22.724   9.7880  0.00  0.00     0.000 OA
ENDBRANCH 69 75
BRANCH 65 78
ATOM     78  O3  NAG B   6      15.817  18.271   9.2310  0.00  0.00     0.000 O
BRANCH 78 81
ATOM     79  C1  NAG B   6      13.137  15.740   8.3690  0.00  0.00     0.000 C
ATOM     80  C2  NAG B   6      14.551  16.333   8.4690  0.00  0.00     0.000 C
ATOM     81  C3  NAG B   6      14.523  17.629   9.2630  0.00  0.00     0.000 C
ATOM     82  C4  NAG B   6      13.454  18.581   8.7170  0.00  0.00     0.000 C
ATOM     83  C5  NAG B   6      12.107  17.867   8.6870  0.00  0.00     0.000 C
ATOM     84  O5  NAG B   6      12.241  16.729   7.8330  0.00  0.00     0.000 O
BRANCH 80 87
ATOM     85   N  NAG B   6      15.384  15.241   8.9640  0.00  0.00     0.000 N
ATOM     87  HD  NAG B   6      15.834  14.516   8.8160  0.00  0.00     0.000 HD
ATOM     87   C  NAG B   6      16.664  15.059   8.6180  0.00  0.00     0.000 C
ATOM     88   C  NAG B   6      17.352  13.899   9.2650  0.00  0.00     0.000 C
ATOM     89   O  NAG B   6      17.256  15.794   7.8360  0.00  0.00     0.000 OA
ENDBRANCH 80 87
ATOM     90   O  NAG B   6      10.055  19.011   9.2580  0.00  0.00     0.000 O
ATOM     92  HD  NAG B   6      10.476  18.254   9.2520  0.00  0.00     0.000 HD
ATOM     92   O  NAG B   6      10.055  19.011   9.2580  0.00  0.00     0.000 O
ATOM     94  HD  NAG B   6      10.476  18.254   9.2520  0.00  0.00     0.000 HD
ENDBRANCH 78 81
ENDBRANCH 65 78
ENDBRANCH 64 68
ENDBRANCH 48 64
ENDBRANCH 47 50
ENDBRANCH 34 47
ENDBRANCH 33 37
ENDBRANCH 17 33
ENDBRANCH 16 19
ENDBRANCH 1 16
TORSDOF 16
ENDMDL
MODEL 50
REMARK VINA RESULT:      -6.0     10.617     19.580
ROOT
ATOM      1  C1  BDP B   1      21.269  11.581  21.6690  0.00  0.00     0.000 C
ATOM      2  C2  BDP B   1      22.343  12.006  22.6540  0.00  0.00     0.000 C
ATOM      3  C3  BDP B   1      22.837  10.847  23.4930  0.00  0.00     0.000 C
ATOM      4  C4  BDP B   1      22.440   9.477  22.9560  0.00  0.00     0.000 C
ATOM      5  C5  BDP B   1      20.968   9.402  22.5620  0.00  0.00     0.000 C
ATOM      6  O5  BDP B   1      20.393  10.705  22.3620  0.00  0.00     0.000 O
ATOM      7   O  BDP B   1      23.443  12.595  21.9520  0.00  0.00     0.000 O
ATOM      9  HD  BDP B   1      23.760  13.121  21.3410  0.00  0.00     0.000 HD
ATOM      9   O  BDP B   1      22.325  10.957  24.8300  0.00  0.00     0.000 O
ATOM     11  HD  BDP B   1      22.642  11.483  24.2200  0.00  0.00     0.000 HD
ATOM     11   O  BDP B   1      23.259   9.123  21.8350  0.00  0.00     0.000 O
ATOM     13  HD  BDP B   1      23.576   9.649  21.2250  0.00  0.00     0.000 HD
ENDROOT
BRANCH 5 13
ATOM     13   C  BDP B   1      20.252   8.701  23.6630  0.00  0.00     0.000 C
ATOM     14   O  BDP B   1      19.050   8.407  23.4920  0.00  0.00     0.000 OA
ATOM     15   O  BDP B   1      20.877   8.407  24.7040  0.00  0.00     0.000 OA
ENDBRANCH 5 13
BRANCH 1 16
ATOM     16  O3  NAG B   2      21.228  11.672  20.2460  0.00  0.00     0.000 O
BRANCH 16 19
ATOM     17  C1  NAG B   2      22.281  11.481  16.7660  0.00  0.00     0.000 C
ATOM     18  C2  NAG B   2      22.421  11.032  18.2210  0.00  0.00     0.000 C
ATOM     19  C3  NAG B   2      21.082  11.116  18.9380  0.00  0.00     0.000 C
ATOM     20  C4  NAG B   2      20.061  11.932  18.1400  0.00  0.00     0.000 C
ATOM     21  C5  NAG B   2      20.642  13.120  17.3620  0.00  0.00     0.000 C
ATOM     22  O5  NAG B   2      21.950  12.870  16.8330  0.00  0.00     0.000 O
ATOM     23   O  NAG B   2      19.378  11.051  17.2420  0.00  0.00     0.000 O
ATOM     25  HD  NAG B   2      20.088  10.605  17.0270  0.00  0.00     0.000 HD
ATOM     25   C  NAG B   2      20.704  14.371  18.2510  0.00  0.00     0.000 C
ATOM     26   O  NAG B   2      19.459  15.083  18.2530  0.00  0.00     0.000 O
ATOM     28  HD  NAG B   2      20.170  14.637  18.0380  0.00  0.00     0.000 HD
BRANCH 18 30
ATOM     28   N  NAG B   2      22.726   9.900  17.3460  0.00  0.00     0.000 N
ATOM     30  HD  NAG B   2      22.454   9.498  16.6290  0.00  0.00     0.000 HD
ATOM     30   C  NAG B   2      22.587   8.610  17.6830  0.00  0.00     0.000 C
ATOM     31   C  NAG B   2      22.977   7.631  16.6120  0.00  0.00     0.000 C
ATOM     32   O  NAG B   2      22.175   8.243  18.7590  0.00  0.00     0.000 OA
ENDBRANCH 18 30
BRANCH 17 33
ATOM     33  O4  BDP B   3      22.824  11.992  15.5290  0.00  0.00     0.000 O
BRANCH 33 37
ATOM     34  C1  BDP B   3      22.154  11.198  11.3860  0.00  0.00     0.000 C
ATOM     35  C2  BDP B   3      23.130  10.288  12.1210  0.00  0.00     0.000 C
ATOM     36  C3  BDP B   3      23.000  10.351  13.6390  0.00  0.00     0.000 C
ATOM     37  C4  BDP B   3      22.912  11.818  14.0840  0.00  0.00     0.000 C
ATOM     38  C5  BDP B   3      21.724  12.453  13.3380  0.00  0.00     0.000 C
ATOM     39  O5  BDP B   3      22.115  12.508  11.9660  0.00  0.00     0.000 O
ATOM     40   O  BDP B   3      22.907   8.970  11.6130  0.00  0.00     0.000 O
ATOM     42  HD  BDP B   3      23.410   9.295  10.9870  0.00  0.00     0.000 HD
ATOM     42   O  BDP B   3      24.151   9.701  14.1760  0.00  0.00     0.000 O
ATOM     44  HD  BDP B   3      24.653  10.025  13.5500  0.00  0.00     0.000 HD
BRANCH 38 44
ATOM     44   C  BDP B   3      21.353  13.823  13.8140  0.00  0.00     0.000 C
ATOM     45   O  BDP B   3      22.246  14.699  13.8260  0.00  0.00     0.000 OA
ATOM     46   O  BDP B   3      20.181  14.053  14.1840  0.00  0.00     0.000 OA
ENDBRANCH 38 44
BRANCH 34 47
ATOM     47  O3  NAG B   4      22.745  11.793  10.2320  0.00  0.00     0.000 O
BRANCH 47 50
ATOM     48  C1  NAG B   4      20.184  12.660   7.6170  0.00  0.00     0.000 C
ATOM     49  C2  NAG B   4      20.942  11.780   8.5950  0.00  0.00     0.000 C
ATOM     50  C3  NAG B   4      21.968  12.624   9.3450  0.00  0.00     0.000 C
ATOM     51  C4  NAG B   4      22.897  13.354   8.3890  0.00  0.00     0.000 C
ATOM     52  C5  NAG B   4      22.077  14.165   7.3850  0.00  0.00     0.000 C
ATOM     53  O5  NAG B   4      21.110  13.328   6.7380  0.00  0.00     0.000 O
ATOM     54   O  NAG B   4      23.762  14.208   9.1420  0.00  0.00     0.000 O
ATOM     56  HD  NAG B   4      24.028  14.101   8.3250  0.00  0.00     0.000 HD
ATOM     56   C  NAG B   4      22.971  14.811   6.3330  0.00  0.00     0.000 C
ATOM     57   O  NAG B   4      23.680  13.784   5.6270  0.00  0.00     0.000 O
ATOM     59  HD  NAG B   4      23.946  13.677   4.8100  0.00  0.00     0.000 HD
BRANCH 49 61
ATOM     59   N  NAG B   4      20.927  10.691   7.6180  0.00  0.00     0.000 N
ATOM     61  HD  NAG B   4      21.276  10.866   8.3910  0.00  0.00     0.000 HD
ATOM     61   O  NAG B   4      20.721   8.999   9.1010  0.00  0.00     0.000 OA
ATOM     62   C  NAG B   4      20.745   9.407   7.9480  0.00  0.00     0.000 C
ATOM     63   C  NAG B   4      20.545   8.466   6.8030  0.00  0.00     0.000 C
ENDBRANCH 49 61
BRANCH 48 64
ATOM     64  O4  BDP B   5      18.864  12.603   7.0840  0.00  0.00     0.000 O
BRANCH 64 68
ATOM     65  C1  BDP B   5      15.365  13.214   9.2640  0.00  0.00     0.000 C
ATOM     66  C2  BDP B   5      15.690  11.767   8.9150  0.00  0.00     0.000 C
ATOM     67  C3  BDP B   5      17.156  11.652   8.5200  0.00  0.00     0.000 C
ATOM     68  C4  BDP B   5      17.467  12.610   7.3750  0.00  0.00     0.000 C
ATOM     69  C5  BDP B   5      17.043  14.039   7.6890  0.00  0.00     0.000 C
ATOM     70  O5  BDP B   5      15.683  14.071   8.1570  0.00  0.00     0.000 O
ATOM     71   O  BDP B   5      15.373  10.920  10.0300  0.00  0.00     0.000 O
ATOM     73  HD  BDP B   5      15.184  10.458  10.7380  0.00  0.00     0.000 HD
ATOM     73   O  BDP B   5      17.464  10.314   8.1130  0.00  0.00     0.000 O
ATOM     75  HD  BDP B   5      17.275   9.852   8.8210  0.00  0.00     0.000 HD
BRANCH 69 75
ATOM     75   C  BDP B   5      17.162  14.856   6.4280  0.00  0.00     0.000 C
ATOM     76   O  BDP B   5      17.960  15.815   6.4070  0.00  0.00     0.000 OA
ATOM     77   O  BDP B   5      16.464  14.550   5.4430  0.00  0.00     0.000 OA
ENDBRANCH 69 75
BRANCH 65 78
ATOM     78  O3  NAG B   6      14.099  13.860   9.1080  0.00  0.00     0.000 O
BRANCH 78 81
ATOM     79  C1  NAG B   6      11.237  15.508  10.9600  0.00  0.00     0.000 C
ATOM     80  C2  NAG B   6      12.006  14.390  10.2380  0.00  0.00     0.000 C
ATOM     81  C3  NAG B   6      13.421  14.844   9.9190  0.00  0.00     0.000 C
ATOM     82  C4  NAG B   6      13.411  16.198   9.2010  0.00  0.00     0.000 C
ATOM     83  C5  NAG B   6      12.629  17.207  10.0330  0.00  0.00     0.000 C
ATOM     84  O5  NAG B   6      11.297  16.712  10.1740  0.00  0.00     0.000 O
BRANCH 80 87
ATOM     85   N  NAG B   6      12.344  13.126  10.8860  0.00  0.00     0.000 N
ATOM     87  HD  NAG B   6      12.122  12.467  11.4020  0.00  0.00     0.000 HD
ATOM     87   C  NAG B   6      11.746  11.960  10.6110  0.00  0.00     0.000 C
ATOM     88   C  NAG B   6      12.263  10.773  11.3610  0.00  0.00     0.000 C
ATOM     89   O  NAG B   6      10.843  11.849   9.7910  0.00  0.00     0.000 OA
ENDBRANCH 80 87
ATOM     90   O  NAG B   6      13.341  19.510  10.2240  0.00  0.00     0.000 O
ATOM     92  HD  NAG B   6      12.935  18.851  10.6130  0.00  0.00     0.000 HD
ATOM     92   O  NAG B   6      13.341  19.510  10.2240  0.00  0.00     0.000 O
ATOM     94  HD  NAG B   6      12.935  18.851  10.6130  0.00  0.00     0.000 HD
ENDBRANCH 78 81
ENDBRANCH 65 78
ENDBRANCH 64 68
ENDBRANCH 48 64
ENDBRANCH 47 50
ENDBRANCH 34 47
ENDBRANCH 33 37
ENDBRANCH 17 33
ENDBRANCH 16 19
ENDBRANCH 1 16
TORSDOF 16
ENDMDL
MODEL 51
REMARK VINA RESULT:      -5.9      4.452     15.580
ROOT
ATOM      1  C1  BDP B   1      20.979   8.361  33.9700  0.00  0.00     0.000 C
ATOM      2  C2  BDP B   1      21.789   7.772  35.1110  0.00  0.00     0.000 C
ATOM      3  C3  BDP B   1      21.378   6.350  35.4280  0.00  0.00     0.000 C
ATOM      4  C4  BDP B   1      20.523   5.696  34.3490  0.00  0.00     0.000 C
ATOM      5  C5  BDP B   1      19.392   6.598  33.8640  0.00  0.00     0.000 C
ATOM      6  O5  BDP B   1      19.627   7.980  34.1820  0.00  0.00     0.000 O
ATOM      7   O  BDP B   1      23.183   7.809  34.7870  0.00  0.00     0.000 O
ATOM      9  HD  BDP B   1      23.879   8.216  34.4700  0.00  0.00     0.000 HD
ATOM      9   O  BDP B   1      20.633   6.318  36.6550  0.00  0.00     0.000 O
ATOM     11  HD  BDP B   1      21.329   6.725  36.3380  0.00  0.00     0.000 HD
ATOM     11   O  BDP B   1      21.336   5.300  33.2380  0.00  0.00     0.000 O
ATOM     13  HD  BDP B   1      22.032   5.707  32.9210  0.00  0.00     0.000 HD
ENDROOT
BRANCH 5 13
ATOM     13   C  BDP B   1      18.143   6.135  34.5290  0.00  0.00     0.000 C
ATOM     14   O  BDP B   1      17.893   6.562  35.6760  0.00  0.00     0.000 OA
ATOM     15   O  BDP B   1      17.378   5.361  33.9150  0.00  0.00     0.000 OA
ENDBRANCH 5 13
BRANCH 1 16
ATOM     16  O3  NAG B   2      21.395   8.888  32.7120  0.00  0.00     0.000 O
BRANCH 16 19
ATOM     17  C1  NAG B   2      21.068   9.194  29.0990  0.00  0.00     0.000 C
ATOM     18  C2  NAG B   2      20.438   8.962  30.4730  0.00  0.00     0.000 C
ATOM     19  C3  NAG B   2      21.218   9.700  31.5510  0.00  0.00     0.000 C
ATOM     20  C4  NAG B   2      22.581  10.175  31.0400  0.00  0.00     0.000 C
ATOM     21  C5  NAG B   2      23.268   9.233  30.0420  0.00  0.00     0.000 C
ATOM     22  O5  NAG B   2      22.351   8.567  29.1650  0.00  0.00     0.000 O
ATOM     23   O  NAG B   2      22.420  11.470  30.4520  0.00  0.00     0.000 O
ATOM     25  HD  NAG B   2      21.669  11.279  30.0660  0.00  0.00     0.000 HD
ATOM     25   C  NAG B   2      24.096   8.173  30.7810  0.00  0.00     0.000 C
ATOM     26   O  NAG B   2      25.407   8.655  31.1060  0.00  0.00     0.000 O
ATOM     28  HD  NAG B   2      24.656   8.463  30.7200  0.00  0.00     0.000 HD
BRANCH 18 30
ATOM     28   N  NAG B   2      19.598   9.831  29.6500  0.00  0.00     0.000 N
ATOM     30  HD  NAG B   2      19.599  10.594  29.2410  0.00  0.00     0.000 HD
ATOM     30   C  NAG B   2      18.505  10.475  30.0820  0.00  0.00     0.000 C
ATOM     31   C  NAG B   2      17.805  11.301  29.0400  0.00  0.00     0.000 C
ATOM     32   O  NAG B   2      18.102  10.414  31.2200  0.00  0.00     0.000 OA
ENDBRANCH 18 30
BRANCH 17 33
ATOM     33  O4  BDP B   3      21.305   8.822  27.7240  0.00  0.00     0.000 O
BRANCH 33 37
ATOM     34  C1  BDP B   3      22.592   9.411  23.6940  0.00  0.00     0.000 C
ATOM     35  C2  BDP B   3      23.097  10.400  24.7380  0.00  0.00     0.000 C
ATOM     36  C3  BDP B   3      22.957   9.899  26.1720  0.00  0.00     0.000 C
ATOM     37  C4  BDP B   3      21.557   9.298  26.3690  0.00  0.00     0.000 C
ATOM     38  C5  BDP B   3      21.380   8.192  25.3100  0.00  0.00     0.000 C
ATOM     39  O5  BDP B   3      21.317   8.867  24.0540  0.00  0.00     0.000 O
ATOM     40   O  BDP B   3      24.455  10.685  24.3960  0.00  0.00     0.000 O
ATOM     42  HD  BDP B   3      24.042  11.210  23.8440  0.00  0.00     0.000 HD
ATOM     42   O  BDP B   3      23.176  11.023  27.0220  0.00  0.00     0.000 O
ATOM     44  HD  BDP B   3      22.764  11.549  26.4700  0.00  0.00     0.000 HD
BRANCH 38 44
ATOM     44   C  BDP B   3      20.158   7.348  25.4950  0.00  0.00     0.000 C
ATOM     45   O  BDP B   3      19.053   7.841  25.1760  0.00  0.00     0.000 OA
ATOM     46   O  BDP B   3      20.269   6.192  25.9560  0.00  0.00     0.000 OA
ENDBRANCH 38 44
BRANCH 34 47
ATOM     47  O3  NAG B   4      21.938  10.068  22.6100  0.00  0.00     0.000 O
BRANCH 47 50
ATOM     48  C1  NAG B   4      22.754   8.876  19.1370  0.00  0.00     0.000 C
ATOM     49  C2  NAG B   4      23.002   9.522  20.4890  0.00  0.00     0.000 C
ATOM     50  C3  NAG B   4      21.746   9.401  21.3450  0.00  0.00     0.000 C
ATOM     51  C4  NAG B   4      20.531   9.985  20.6430  0.00  0.00     0.000 C
ATOM     52  C5  NAG B   4      20.374   9.348  19.2620  0.00  0.00     0.000 C
ATOM     53  O5  NAG B   4      21.593   9.463  18.5170  0.00  0.00     0.000 O
ATOM     54   O  NAG B   4      19.371   9.746  21.4440  0.00  0.00     0.000 O
ATOM     56  HD  NAG B   4      19.230  10.328  20.8180  0.00  0.00     0.000 HD
ATOM     56   C  NAG B   4      19.240   9.998  18.4780  0.00  0.00     0.000 C
ATOM     57   O  NAG B   4      19.525  11.393  18.3130  0.00  0.00     0.000 O
ATOM     59  HD  NAG B   4      19.384  11.976  17.6880  0.00  0.00     0.000 HD
BRANCH 49 61
ATOM     59   N  NAG B   4      24.324   8.951  20.7460  0.00  0.00     0.000 N
ATOM     61  HD  NAG B   4      23.982   9.670  20.4050  0.00  0.00     0.000 HD
ATOM     61   O  NAG B   4      25.301  10.849  21.4850  0.00  0.00     0.000 OA
ATOM     62   C  NAG B   4      25.333   9.643  21.2880  0.00  0.00     0.000 C
ATOM     63   C  NAG B   4      26.535   8.839  21.6740  0.00  0.00     0.000 C
ENDBRANCH 49 61
BRANCH 48 64
ATOM     64  O4  BDP B   5      23.611   8.232  18.1990  0.00  0.00     0.000 O
BRANCH 64 68
ATOM     65  C1  BDP B   5      25.809   5.370  16.1130  0.00  0.00     0.000 C
ATOM     66  C2  BDP B   5      24.759   6.122  15.3070  0.00  0.00     0.000 C
ATOM     67  C3  BDP B   5      24.354   7.389  16.0490  0.00  0.00     0.000 C
ATOM     68  C4  BDP B   5      23.870   7.043  17.4530  0.00  0.00     0.000 C
ATOM     69  C5  BDP B   5      24.883   6.201  18.2180  0.00  0.00     0.000 C
ATOM     70  O5  BDP B   5      25.307   5.077  17.4260  0.00  0.00     0.000 O
ATOM     71   O  BDP B   5      25.274   6.415  13.9990  0.00  0.00     0.000 O
ATOM     73  HD  BDP B   5      25.640   6.583  13.2320  0.00  0.00     0.000 HD
ATOM     73   O  BDP B   5      23.310   8.072  15.3450  0.00  0.00     0.000 O
ATOM     75  HD  BDP B   5      23.676   8.241  14.5780  0.00  0.00     0.000 HD
BRANCH 69 75
ATOM     75   C  BDP B   5      24.229   5.707  19.4830  0.00  0.00     0.000 C
ATOM     76   O  BDP B   5      23.145   5.095  19.3990  0.00  0.00     0.000 OA
ATOM     77   O  BDP B   5      24.789   5.920  20.5740  0.00  0.00     0.000 OA
ENDBRANCH 69 75
BRANCH 65 78
ATOM     78  O3  NAG B   6      26.018   3.955  16.1240  0.00  0.00     0.000 O
BRANCH 78 81
ATOM     79  C1  NAG B   6      28.662   1.483  15.0130  0.00  0.00     0.000 C
ATOM     80  C2  NAG B   6      27.470   2.445  14.8800  0.00  0.00     0.000 C
ATOM     81  C3  NAG B   6      27.227   3.168  16.1950  0.00  0.00     0.000 C
ATOM     82  C4  NAG B   6      27.135   2.172  17.3560  0.00  0.00     0.000 C
ATOM     83  C5  NAG B   6      28.383   1.298  17.3740  0.00  0.00     0.000 C
ATOM     84  O5  NAG B   6      28.441   0.601  16.1280  0.00  0.00     0.000 O
BRANCH 80 87
ATOM     85   N  NAG B   6      27.765   3.247  13.6960  0.00  0.00     0.000 N
ATOM     87  HD  NAG B   6      27.772   3.336  12.8350  0.00  0.00     0.000 HD
ATOM     87   C  NAG B   6      26.833   3.712  12.8550  0.00  0.00     0.000 C
ATOM     88   C  NAG B   6      27.340   4.544  11.7210  0.00  0.00     0.000 C
ATOM     89   O  NAG B   6      25.636   3.493  12.9970  0.00  0.00     0.000 OA
ENDBRANCH 80 87
ATOM     90   O  NAG B   6      29.434   0.635  19.4480  0.00  0.00     0.000 O
ATOM     92  HD  NAG B   6      29.555   0.819  18.6110  0.00  0.00     0.000 HD
ATOM     92   O  NAG B   6      29.434   0.635  19.4480  0.00  0.00     0.000 O
ATOM     94  HD  NAG B   6      29.555   0.819  18.6110  0.00  0.00     0.000 HD
ENDBRANCH 78 81
ENDBRANCH 65 78
ENDBRANCH 64 68
ENDBRANCH 48 64
ENDBRANCH 47 50
ENDBRANCH 34 47
ENDBRANCH 33 37
ENDBRANCH 17 33
ENDBRANCH 16 19
ENDBRANCH 1 16
TORSDOF 16
ENDMDL
MODEL 52
REMARK VINA RESULT:      -5.9      8.427     18.867
ROOT
ATOM      1  C1  BDP B   1      13.222   3.323  47.6900  0.00  0.00     0.000 C
ATOM      2  C2  BDP B   1      14.064   2.246  47.0310  0.00  0.00     0.000 C
ATOM      3  C3  BDP B   1      13.419   0.880  47.1260  0.00  0.00     0.000 C
ATOM      4  C4  BDP B   1      11.947   0.914  47.5250  0.00  0.00     0.000 C
ATOM      5  C5  BDP B   1      11.679   1.836  48.7110  0.00  0.00     0.000 C
ATOM      6  O5  BDP B   1      12.741   2.784  48.9120  0.00  0.00     0.000 O
ATOM      7   O  BDP B   1      14.289   2.576  45.6560  0.00  0.00     0.000 O
ATOM      9  HD  BDP B   1      14.487   3.146  45.0340  0.00  0.00     0.000 HD
ATOM      9   O  BDP B   1      14.113   0.076  48.0930  0.00  0.00     0.000 O
ATOM     11  HD  BDP B   1      14.311   0.645  47.4710  0.00  0.00     0.000 HD
ATOM     11   O  BDP B   1      11.137   1.311  46.4110  0.00  0.00     0.000 O
ATOM     13  HD  BDP B   1      11.336   1.880  45.7900  0.00  0.00     0.000 HD
ENDROOT
BRANCH 5 13
ATOM     13   C  BDP B   1      11.540   0.973  49.9160  0.00  0.00     0.000 C
ATOM     14   O  BDP B   1      12.579   0.636  50.5230  0.00  0.00     0.000 OA
ATOM     15   O  BDP B   1      10.398   0.638  50.2960  0.00  0.00     0.000 OA
ENDBRANCH 5 13
BRANCH 1 16
ATOM     16  O3  NAG B   2      12.659   4.518  47.1520  0.00  0.00     0.000 O
BRANCH 16 19
ATOM     17  C1  NAG B   2      11.578   7.587  45.5190  0.00  0.00     0.000 C
ATOM     18  C2  NAG B   2      11.248   6.240  46.1630  0.00  0.00     0.000 C
ATOM     19  C3  NAG B   2      12.274   5.891  47.2310  0.00  0.00     0.000 C
ATOM     20  C4  NAG B   2      13.515   6.782  47.1370  0.00  0.00     0.000 C
ATOM     21  C5  NAG B   2      13.928   7.177  45.7120  0.00  0.00     0.000 C
ATOM     22  O5  NAG B   2      12.815   7.382  44.8340  0.00  0.00     0.000 O
ATOM     23   O  NAG B   2      13.291   7.959  47.9210  0.00  0.00     0.000 O
ATOM     25  HD  NAG B   2      12.467   8.052  47.6720  0.00  0.00     0.000 HD
ATOM     25   C  NAG B   2      14.846   6.111  45.0990  0.00  0.00     0.000 C
ATOM     26   O  NAG B   2      16.218   6.315  45.4680  0.00  0.00     0.000 O
ATOM     28  HD  NAG B   2      15.393   6.408  45.2200  0.00  0.00     0.000 HD
BRANCH 18 30
ATOM     28   N  NAG B   2       9.988   6.960  46.3430  0.00  0.00     0.000 N
ATOM     30  HD  NAG B   2       9.647   7.756  46.3260  0.00  0.00     0.000 HD
ATOM     30   C  NAG B   2       9.347   7.105  47.5120  0.00  0.00     0.000 C
ATOM     31   C  NAG B   2       8.062   7.880  47.4350  0.00  0.00     0.000 C
ATOM     32   O  NAG B   2       9.759   6.660  48.5570  0.00  0.00     0.000 OA
ENDBRANCH 18 30
BRANCH 17 33
ATOM     33  O4  BDP B   3      11.496   8.539  44.4360  0.00  0.00     0.000 O
BRANCH 33 37
ATOM     34  C1  BDP B   3       9.767  11.255  41.6300  0.00  0.00     0.000 C
ATOM     35  C2  BDP B   3       9.749  11.665  43.0980  0.00  0.00     0.000 C
ATOM     36  C3  BDP B   3      10.731  10.881  43.9630  0.00  0.00     0.000 C
ATOM     37  C4  BDP B   3      10.622   9.385  43.6330  0.00  0.00     0.000 C
ATOM     38  C5  BDP B   3      10.874   9.230  42.1210  0.00  0.00     0.000 C
ATOM     39  O5  BDP B   3       9.750   9.831  41.4790  0.00  0.00     0.000 O
ATOM     40   O  BDP B   3      10.007  13.070  43.1240  0.00  0.00     0.000 O
ATOM     42  HD  BDP B   3       9.162  13.071  42.9330  0.00  0.00     0.000 HD
ATOM     42   O  BDP B   3      10.387  11.152  45.3210  0.00  0.00     0.000 O
ATOM     44  HD  BDP B   3       9.543  11.153  45.1290  0.00  0.00     0.000 HD
BRANCH 38 44
ATOM     44   C  BDP B   3      11.024   7.814  41.6600  0.00  0.00     0.000 C
ATOM     45   O  BDP B   3      12.177   7.331  41.6170  0.00  0.00     0.000 OA
ATOM     46   O  BDP B   3      10.010   7.159  41.3340  0.00  0.00     0.000 OA
ENDBRANCH 38 44
BRANCH 34 47
ATOM     47  O3  NAG B   4       8.461  11.271  41.0560  0.00  0.00     0.000 O
BRANCH 47 50
ATOM     48  C1  NAG B   4       8.286  10.812  37.3270  0.00  0.00     0.000 C
ATOM     49  C2  NAG B   4       8.639  11.492  38.6380  0.00  0.00     0.000 C
ATOM     50  C3  NAG B   4       8.195  10.612  39.8010  0.00  0.00     0.000 C
ATOM     51  C4  NAG B   4       6.716  10.271  39.7110  0.00  0.00     0.000 C
ATOM     52  C5  NAG B   4       6.407   9.656  38.3450  0.00  0.00     0.000 C
ATOM     53  O5  NAG B   4       6.877  10.510  37.2950  0.00  0.00     0.000 O
ATOM     54   O  NAG B   4       6.383   9.361  40.7620  0.00  0.00     0.000 O
ATOM     56  HD  NAG B   4       5.683   9.707  40.3870  0.00  0.00     0.000 HD
ATOM     56   C  NAG B   4       4.912   9.416  38.1710  0.00  0.00     0.000 C
ATOM     57   O  NAG B   4       4.222  10.668  38.2800  0.00  0.00     0.000 O
ATOM     59  HD  NAG B   4       3.522  11.014  37.9050  0.00  0.00     0.000 HD
BRANCH 49 61
ATOM     59   N  NAG B   4       8.129  12.820  38.2970  0.00  0.00     0.000 N
ATOM     61  HD  NAG B   4       8.530  12.428  38.9560  0.00  0.00     0.000 HD
ATOM     61   O  NAG B   4       9.871  14.000  39.1190  0.00  0.00     0.000 OA
ATOM     62   C  NAG B   4       8.819  13.950  38.4990  0.00  0.00     0.000 C
ATOM     63   C  NAG B   4       8.230  15.184  37.8940  0.00  0.00     0.000 C
ENDBRANCH 49 61
BRANCH 48 64
ATOM     64  O4  BDP B   5       8.870  10.846  36.0280  0.00  0.00     0.000 O
BRANCH 64 68
ATOM     65  C1  BDP B   5      11.415   8.947  33.3280  0.00  0.00     0.000 C
ATOM     66  C2  BDP B   5      10.597  10.105  32.7720  0.00  0.00     0.000 C
ATOM     67  C3  BDP B   5      10.065  10.954  33.9200  0.00  0.00     0.000 C
ATOM     68  C4  BDP B   5       9.263  10.088  34.8850  0.00  0.00     0.000 C
ATOM     69  C5  BDP B   5      10.051   8.872  35.3560  0.00  0.00     0.000 C
ATOM     70  O5  BDP B   5      10.616   8.170  34.2350  0.00  0.00     0.000 O
ATOM     71   O  BDP B   5      11.406  10.878  31.8720  0.00  0.00     0.000 O
ATOM     73  HD  BDP B   5      11.943  11.319  31.3550  0.00  0.00     0.000 HD
ATOM     73   O  BDP B   5       9.229  12.005  33.4220  0.00  0.00     0.000 O
ATOM     75  HD  BDP B   5       9.765  12.447  32.9050  0.00  0.00     0.000 HD
BRANCH 69 75
ATOM     75   C  BDP B   5       9.111   7.958  36.1000  0.00  0.00     0.000 C
ATOM     76   O  BDP B   5       9.455   7.525  37.2190  0.00  0.00     0.000 OA
ATOM     77   O  BDP B   5       8.018   7.665  35.5810  0.00  0.00     0.000 OA
ENDBRANCH 69 75
BRANCH 65 78
ATOM     78  O3  NAG B   6      11.579   7.659  32.7280  0.00  0.00     0.000 O
BRANCH 78 81
ATOM     79  C1  NAG B   6      14.513   5.363  32.0520  0.00  0.00     0.000 C
ATOM     80  C2  NAG B   6      13.594   6.583  31.8790  0.00  0.00     0.000 C
ATOM     81  C3  NAG B   6      12.537   6.606  32.9710  0.00  0.00     0.000 C
ATOM     82  C4  NAG B   6      11.818   5.256  33.0640  0.00  0.00     0.000 C
ATOM     83  C5  NAG B   6      12.846   4.146  33.2460  0.00  0.00     0.000 C
ATOM     84  O5  NAG B   6      13.713   4.169  32.1110  0.00  0.00     0.000 O
BRANCH 80 87
ATOM     85   N  NAG B   6      14.475   7.746  31.8090  0.00  0.00     0.000 N
ATOM     87  HD  NAG B   6      15.026   8.242  31.3620  0.00  0.00     0.000 HD
ATOM     87   C  NAG B   6      14.258   8.804  31.0180  0.00  0.00     0.000 C
ATOM     88   C  NAG B   6      15.262   9.907  31.1210  0.00  0.00     0.000 C
ATOM     89   O  NAG B   6      13.297   8.887  30.2630  0.00  0.00     0.000 OA
ENDBRANCH 80 87
ATOM     90   O  NAG B   6      12.431   2.265  34.7080  0.00  0.00     0.000 O
ATOM     92  HD  NAG B   6      13.031   2.787  34.3640  0.00  0.00     0.000 HD
ATOM     92   O  NAG B   6      12.431   2.265  34.7080  0.00  0.00     0.000 O
ATOM     94  HD  NAG B   6      13.031   2.787  34.3640  0.00  0.00     0.000 HD
ENDBRANCH 78 81
ENDBRANCH 65 78
ENDBRANCH 64 68
ENDBRANCH 48 64
ENDBRANCH 47 50
ENDBRANCH 34 47
ENDBRANCH 33 37
ENDBRANCH 17 33
ENDBRANCH 16 19
ENDBRANCH 1 16
TORSDOF 16
ENDMDL
MODEL 53
REMARK VINA RESULT:      -5.9     14.109     21.960
ROOT
ATOM      1  C1  BDP B   1       6.337  15.519  26.5900  0.00  0.00     0.000 C
ATOM      2  C2  BDP B   1       6.160  14.059  26.9660  0.00  0.00     0.000 C
ATOM      3  C3  BDP B   1       5.000  13.852  27.9160  0.00  0.00     0.000 C
ATOM      4  C4  BDP B   1       4.056  15.045  28.0150  0.00  0.00     0.000 C
ATOM      5  C5  BDP B   1       4.795  16.369  28.1830  0.00  0.00     0.000 C
ATOM      6  O5  BDP B   1       6.172  16.277  27.7790  0.00  0.00     0.000 O
ATOM      7   O  BDP B   1       5.962  13.273  25.7860  0.00  0.00     0.000 O
ATOM      9  HD  BDP B   1       6.162  13.064  24.9700  0.00  0.00     0.000 HD
ATOM      9   O  BDP B   1       5.492  13.575  29.2370  0.00  0.00     0.000 O
ATOM     11  HD  BDP B   1       5.693  13.365  28.4210  0.00  0.00     0.000 HD
ATOM     11   O  BDP B   1       3.208  15.107  26.8620  0.00  0.00     0.000 O
ATOM     13  HD  BDP B   1       3.409  14.898  26.0460  0.00  0.00     0.000 HD
ENDROOT
BRANCH 5 13
ATOM     13   C  BDP B   1       4.717  16.737  29.6230  0.00  0.00     0.000 C
ATOM     14   O  BDP B   1       3.839  17.551  29.9770  0.00  0.00     0.000 OA
ATOM     15   O  BDP B   1       5.509  16.205  30.4300  0.00  0.00     0.000 OA
ENDBRANCH 5 13
BRANCH 1 16
ATOM     16  O3  NAG B   2       6.315  16.158  25.3140  0.00  0.00     0.000 O
BRANCH 16 19
ATOM     17  C1  NAG B   2       8.284  17.502  22.5620  0.00  0.00     0.000 C
ATOM     18  C2  NAG B   2       7.078  16.708  23.0670  0.00  0.00     0.000 C
ATOM     19  C3  NAG B   2       6.623  17.229  24.4210  0.00  0.00     0.000 C
ATOM     20  C4  NAG B   2       7.671  18.147  25.0580  0.00  0.00     0.000 C
ATOM     21  C5  NAG B   2       9.130  17.755  24.7860  0.00  0.00     0.000 C
ATOM     22  O5  NAG B   2       9.338  17.205  23.4800  0.00  0.00     0.000 O
ATOM     23   O  NAG B   2       7.436  19.485  24.6080  0.00  0.00     0.000 O
ATOM     25  HD  NAG B   2       7.257  19.255  23.7930  0.00  0.00     0.000 HD
ATOM     25   C  NAG B   2       9.621  16.741  25.8290  0.00  0.00     0.000 C
ATOM     26   O  NAG B   2      10.099  17.389  27.0170  0.00  0.00     0.000 O
ATOM     28  HD  NAG B   2       9.920  17.159  26.2010  0.00  0.00     0.000 HD
BRANCH 18 30
ATOM     28   N  NAG B   2       6.073  16.687  22.0050  0.00  0.00     0.000 N
ATOM     30  HD  NAG B   2       5.978  16.538  21.1570  0.00  0.00     0.000 HD
ATOM     30   C  NAG B   2       5.454  17.770  21.5130  0.00  0.00     0.000 C
ATOM     31   C  NAG B   2       4.452  17.487  20.4300  0.00  0.00     0.000 C
ATOM     32   O  NAG B   2       5.677  18.895  21.8930  0.00  0.00     0.000 OA
ENDBRANCH 18 30
BRANCH 17 33
ATOM     33  O4  BDP B   3       9.463  17.649  21.7420  0.00  0.00     0.000 O
BRANCH 33 37
ATOM     34  C1  BDP B   3      12.562  20.019  20.0040  0.00  0.00     0.000 C
ATOM     35  C2  BDP B   3      12.936  18.617  20.4710  0.00  0.00     0.000 C
ATOM     36  C3  BDP B   3      11.734  17.701  20.6760  0.00  0.00     0.000 C
ATOM     37  C4  BDP B   3      10.645  18.453  21.4570  0.00  0.00     0.000 C
ATOM     38  C5  BDP B   3      10.316  19.733  20.6660  0.00  0.00     0.000 C
ATOM     39  O5  BDP B   3      11.476  20.558  20.7670  0.00  0.00     0.000 O
ATOM     40   O  BDP B   3      13.849  18.102  19.5000  0.00  0.00     0.000 O
ATOM     42  HD  BDP B   3      14.385  18.591  19.9720  0.00  0.00     0.000 HD
ATOM     42   O  BDP B   3      12.206  16.559  21.3890  0.00  0.00     0.000 O
ATOM     44  HD  BDP B   3      12.743  17.048  21.8610  0.00  0.00     0.000 HD
BRANCH 38 44
ATOM     44   C  BDP B   3       9.118  20.479  21.1670  0.00  0.00     0.000 C
ATOM     45   O  BDP B   3       8.186  20.698  20.3620  0.00  0.00     0.000 OA
ATOM     46   O  BDP B   3       9.081  20.860  22.3570  0.00  0.00     0.000 OA
ENDBRANCH 38 44
BRANCH 34 47
ATOM     47  O3  NAG B   4      13.393  21.017  20.5940  0.00  0.00     0.000 O
BRANCH 47 50
ATOM     48  C1  NAG B   4      13.828  23.966  18.3010  0.00  0.00     0.000 C
ATOM     49  C2  NAG B   4      13.834  22.507  18.7200  0.00  0.00     0.000 C
ATOM     50  C3  NAG B   4      13.331  22.389  20.1540  0.00  0.00     0.000 C
ATOM     51  C4  NAG B   4      14.137  23.263  21.1020  0.00  0.00     0.000 C
ATOM     52  C5  NAG B   4      14.153  24.704  20.5920  0.00  0.00     0.000 C
ATOM     53  O5  NAG B   4      14.601  24.748  19.2320  0.00  0.00     0.000 O
ATOM     54   O  NAG B   4      13.553  23.196  22.4060  0.00  0.00     0.000 O
ATOM     56  HD  NAG B   4      14.345  23.546  22.4130  0.00  0.00     0.000 HD
ATOM     56   C  NAG B   4      15.055  25.585  21.4500  0.00  0.00     0.000 C
ATOM     57   O  NAG B   4      16.391  25.066  21.4100  0.00  0.00     0.000 O
ATOM     59  HD  NAG B   4      17.183  25.416  21.4160  0.00  0.00     0.000 HD
BRANCH 49 61
ATOM     59   N  NAG B   4      15.187  22.148  18.2930  0.00  0.00     0.000 N
ATOM     61  HD  NAG B   4      14.491  21.764  18.6360  0.00  0.00     0.000 HD
ATOM     61   O  NAG B   4      14.648  20.199  17.2860  0.00  0.00     0.000 OA
ATOM     62   C  NAG B   4      15.465  21.068  17.5540  0.00  0.00     0.000 C
ATOM     63   C  NAG B   4      16.866  20.981  17.0360  0.00  0.00     0.000 C
ENDBRANCH 49 61
BRANCH 48 64
ATOM     64  O4  BDP B   5      13.666  24.613  17.0420  0.00  0.00     0.000 O
BRANCH 64 68
ATOM     65  C1  BDP B   5      15.197  23.238  13.4170  0.00  0.00     0.000 C
ATOM     66  C2  BDP B   5      15.943  24.400  14.0580  0.00  0.00     0.000 C
ATOM     67  C3  BDP B   5      15.559  24.508  15.5280  0.00  0.00     0.000 C
ATOM     68  C4  BDP B   5      14.047  24.642  15.6670  0.00  0.00     0.000 C
ATOM     69  C5  BDP B   5      13.302  23.533  14.9340  0.00  0.00     0.000 C
ATOM     70  O5  BDP B   5      13.781  23.409  13.5830  0.00  0.00     0.000 O
ATOM     71   O  BDP B   5      17.357  24.216  13.8910  0.00  0.00     0.000 O
ATOM     73  HD  BDP B   5      18.199  24.046  13.7810  0.00  0.00     0.000 HD
ATOM     73   O  BDP B   5      16.191  25.643  16.1320  0.00  0.00     0.000 O
ATOM     75  HD  BDP B   5      17.033  25.473  16.0210  0.00  0.00     0.000 HD
BRANCH 69 75
ATOM     75   C  BDP B   5      11.835  23.878  14.9190  0.00  0.00     0.000 C
ATOM     76   O  BDP B   5      11.485  24.994  14.4830  0.00  0.00     0.000 OA
ATOM     77   O  BDP B   5      11.014  23.040  15.3360  0.00  0.00     0.000 OA
ENDBRANCH 69 75
BRANCH 65 78
ATOM     78  O3  NAG B   6      14.795  23.139  12.0480  0.00  0.00     0.000 O
BRANCH 78 81
ATOM     79  C1  NAG B   6      15.105  20.435   9.4160  0.00  0.00     0.000 C
ATOM     80  C2  NAG B   6      15.568  21.535  10.3840  0.00  0.00     0.000 C
ATOM     81  C3  NAG B   6      14.406  22.003  11.2450  0.00  0.00     0.000 C
ATOM     82  C4  NAG B   6      13.196  22.365  10.3780  0.00  0.00     0.000 C
ATOM     83  C5  NAG B   6      12.842  21.183   9.4830  0.00  0.00     0.000 C
ATOM     84  O5  NAG B   6      13.977  20.910   8.6600  0.00  0.00     0.000 O
BRANCH 80 87
ATOM     85   N  NAG B   6      16.721  20.987  11.0940  0.00  0.00     0.000 N
ATOM     87  HD  NAG B   6      17.561  20.780  11.1090  0.00  0.00     0.000 HD
ATOM     87   C  NAG B   6      17.794  21.705  11.4470  0.00  0.00     0.000 C
ATOM     88   C  NAG B   6      18.852  20.962  12.2000  0.00  0.00     0.000 C
ATOM     89   O  NAG B   6      17.914  22.897  11.1920  0.00  0.00     0.000 OA
ENDBRANCH 80 87
ATOM     90   O  NAG B   6      10.544  20.592   9.0170  0.00  0.00     0.000 O
ATOM     92  HD  NAG B   6      11.354  20.301   9.1100  0.00  0.00     0.000 HD
ATOM     92   O  NAG B   6      10.544  20.592   9.0170  0.00  0.00     0.000 O
ATOM     94  HD  NAG B   6      11.354  20.301   9.1100  0.00  0.00     0.000 HD
ENDBRANCH 78 81
ENDBRANCH 65 78
ENDBRANCH 64 68
ENDBRANCH 48 64
ENDBRANCH 47 50
ENDBRANCH 34 47
ENDBRANCH 33 37
ENDBRANCH 17 33
ENDBRANCH 16 19
ENDBRANCH 1 16
TORSDOF 16
ENDMDL
MODEL 54
REMARK VINA RESULT:      -5.8      5.554     16.542
ROOT
ATOM      1  C1  BDP B   1      15.518   9.919  32.4130  0.00  0.00     0.000 C
ATOM      2  C2  BDP B   1      14.530   8.790  32.6510  0.00  0.00     0.000 C
ATOM      3  C3  BDP B   1      13.096   9.273  32.6210  0.00  0.00     0.000 C
ATOM      4  C4  BDP B   1      12.920  10.663  32.0220  0.00  0.00     0.000 C
ATOM      5  C5  BDP B   1      13.925  11.673  32.5690  0.00  0.00     0.000 C
ATOM      6  O5  BDP B   1      15.064  11.033  33.1680  0.00  0.00     0.000 O
ATOM      7   O  BDP B   1      14.715   7.767  31.6680  0.00  0.00     0.000 O
ATOM      9  HD  BDP B   1      15.225   7.253  31.1920  0.00  0.00     0.000 HD
ATOM      9   O  BDP B   1      12.560   9.301  33.9530  0.00  0.00     0.000 O
ATOM     11  HD  BDP B   1      13.070   8.787  33.4780  0.00  0.00     0.000 HD
ATOM     11   O  BDP B   1      13.018  10.608  30.5940  0.00  0.00     0.000 O
ATOM     13  HD  BDP B   1      13.528  10.094  30.1180  0.00  0.00     0.000 HD
ENDROOT
BRANCH 5 13
ATOM     13   C  BDP B   1      13.215  12.493  33.5890  0.00  0.00     0.000 C
ATOM     14   O  BDP B   1      13.457  13.717  33.6330  0.00  0.00     0.000 OA
ATOM     15   O  BDP B   1      12.387  11.940  34.3440  0.00  0.00     0.000 OA
ENDBRANCH 5 13
BRANCH 1 16
ATOM     16  O3  NAG B   2      16.513  10.082  31.4050  0.00  0.00     0.000 O
BRANCH 16 19
ATOM     17  C1  NAG B   2      18.917  10.311  28.6800  0.00  0.00     0.000 C
ATOM     18  C2  NAG B   2      17.470  10.236  29.1700  0.00  0.00     0.000 C
ATOM     19  C3  NAG B   2      17.338  10.871  30.5460  0.00  0.00     0.000 C
ATOM     20  C4  NAG B   2      18.703  11.094  31.2020  0.00  0.00     0.000 C
ATOM     21  C5  NAG B   2      19.754  10.015  30.9020  0.00  0.00     0.000 C
ATOM     22  O5  NAG B   2      19.660   9.482  29.5760  0.00  0.00     0.000 O
ATOM     23   O  NAG B   2      19.197  12.376  30.8000  0.00  0.00     0.000 O
ATOM     25  HD  NAG B   2      18.932  12.299  29.9790  0.00  0.00     0.000 HD
ATOM     25   C  NAG B   2      19.642   8.858  31.9050  0.00  0.00     0.000 C
ATOM     26   O  NAG B   2      20.375   9.126  33.1090  0.00  0.00     0.000 O
ATOM     28  HD  NAG B   2      20.110   9.049  32.2880  0.00  0.00     0.000 HD
BRANCH 18 30
ATOM     28   N  NAG B   2      17.034  11.600  28.8740  0.00  0.00     0.000 N
ATOM     30  HD  NAG B   2      16.390  12.159  29.0260  0.00  0.00     0.000 HD
ATOM     30   C  NAG B   2      16.641  12.036  27.6690  0.00  0.00     0.000 C
ATOM     31   C  NAG B   2      16.248  13.486  27.6190  0.00  0.00     0.000 C
ATOM     32   O  NAG B   2      16.593  11.331  26.6880  0.00  0.00     0.000 OA
ENDBRANCH 18 30
BRANCH 17 33
ATOM     33  O4  BDP B   3      20.010   9.857  27.8520  0.00  0.00     0.000 O
BRANCH 33 37
ATOM     34  C1  BDP B   3      21.229  10.396  23.7940  0.00  0.00     0.000 C
ATOM     35  C2  BDP B   3      20.076   9.433  24.0540  0.00  0.00     0.000 C
ATOM     36  C3  BDP B   3      19.430   9.609  25.4230  0.00  0.00     0.000 C
ATOM     37  C4  BDP B   3      20.525   9.724  26.4950  0.00  0.00     0.000 C
ATOM     38  C5  BDP B   3      21.439  10.896  26.0910  0.00  0.00     0.000 C
ATOM     39  O5  BDP B   3      22.121  10.465  24.9130  0.00  0.00     0.000 O
ATOM     40   O  BDP B   3      19.145   9.629  22.9870  0.00  0.00     0.000 O
ATOM     42  HD  BDP B   3      19.720   9.111  22.5980  0.00  0.00     0.000 HD
ATOM     42   O  BDP B   3      18.599   8.469  25.6340  0.00  0.00     0.000 O
ATOM     44  HD  BDP B   3      19.173   7.951  25.2450  0.00  0.00     0.000 HD
BRANCH 38 44
ATOM     44   C  BDP B   3      22.435  11.293  27.1360  0.00  0.00     0.000 C
ATOM     45   O  BDP B   3      22.330  12.433  27.6410  0.00  0.00     0.000 OA
ATOM     46   O  BDP B   3      23.333  10.491  27.4710  0.00  0.00     0.000 OA
ENDBRANCH 38 44
BRANCH 34 47
ATOM     47  O3  NAG B   4      22.287   9.777  23.0660  0.00  0.00     0.000 O
BRANCH 47 50
ATOM     48  C1  NAG B   4      23.436  11.577  19.9690  0.00  0.00     0.000 C
ATOM     49  C2  NAG B   4      22.480  10.821  20.8740  0.00  0.00     0.000 C
ATOM     50  C3  NAG B   4      23.155  10.553  22.2140  0.00  0.00     0.000 C
ATOM     51  C4  NAG B   4      24.478   9.824  22.0380  0.00  0.00     0.000 C
ATOM     52  C5  NAG B   4      25.370  10.594  21.0640  0.00  0.00     0.000 C
ATOM     53  O5  NAG B   4      24.670  10.845  19.8380  0.00  0.00     0.000 O
ATOM     54   O  NAG B   4      25.114   9.698  23.3130  0.00  0.00     0.000 O
ATOM     56  HD  NAG B   4      25.471   9.190  22.7100  0.00  0.00     0.000 HD
ATOM     56   C  NAG B   4      26.654   9.830  20.7660  0.00  0.00     0.000 C
ATOM     57   O  NAG B   4      26.320   8.563  20.1830  0.00  0.00     0.000 O
ATOM     59  HD  NAG B   4      26.677   8.055  19.5800  0.00  0.00     0.000 HD
BRANCH 49 61
ATOM     59   N  NAG B   4      22.058   9.774  19.9430  0.00  0.00     0.000 N
ATOM     61  HD  NAG B   4      21.881  10.037  20.7480  0.00  0.00     0.000 HD
ATOM     61   O  NAG B   4      19.846   9.894  20.3800  0.00  0.00     0.000 OA
ATOM     62   C  NAG B   4      20.778   9.453  19.7230  0.00  0.00     0.000 C
ATOM     63   C  NAG B   4      20.531   8.514  18.5850  0.00  0.00     0.000 C
ENDBRANCH 49 61
BRANCH 48 64
ATOM     64  O4  BDP B   5      23.237  12.511  18.9120  0.00  0.00     0.000 O
BRANCH 64 68
ATOM     65  C1  BDP B   5      21.705  14.909  15.8670  0.00  0.00     0.000 C
ATOM     66  C2  BDP B   5      20.714  14.483  16.9430  0.00  0.00     0.000 C
ATOM     67  C3  BDP B   5      21.471  14.001  18.1740  0.00  0.00     0.000 C
ATOM     68  C4  BDP B   5      22.433  12.881  17.7930  0.00  0.00     0.000 C
ATOM     69  C5  BDP B   5      23.351  13.277  16.6450  0.00  0.00     0.000 C
ATOM     70  O5  BDP B   5      22.589  13.822  15.5530  0.00  0.00     0.000 O
ATOM     71   O  BDP B   5      19.840  15.579  17.2530  0.00  0.00     0.000 O
ATOM     73  HD  BDP B   5      19.353  16.276  17.4160  0.00  0.00     0.000 HD
ATOM     73   O  BDP B   5      20.559  13.523  19.1700  0.00  0.00     0.000 O
ATOM     75  HD  BDP B   5      20.072  14.221  19.3330  0.00  0.00     0.000 HD
BRANCH 69 75
ATOM     75   C  BDP B   5      24.087  12.046  16.1800  0.00  0.00     0.000 C
ATOM     76   O  BDP B   5      25.315  11.968  16.3850  0.00  0.00     0.000 OA
ATOM     77   O  BDP B   5      23.449  11.142  15.6090  0.00  0.00     0.000 OA
ENDBRANCH 69 75
BRANCH 65 78
ATOM     78  O3  NAG B   6      21.498  14.852  14.4530  0.00  0.00     0.000 O
BRANCH 78 81
ATOM     79  C1  NAG B   6      21.976  16.699  11.1830  0.00  0.00     0.000 C
ATOM     80  C2  NAG B   6      21.239  16.184  12.4300  0.00  0.00     0.000 C
ATOM     81  C3  NAG B   6      22.208  15.469  13.3570  0.00  0.00     0.000 C
ATOM     82  C4  NAG B   6      23.014  14.413  12.5950  0.00  0.00     0.000 C
ATOM     83  C5  NAG B   6      23.698  15.064  11.3980  0.00  0.00     0.000 C
ATOM     84  O5  NAG B   6      22.678  15.608  10.5600  0.00  0.00     0.000 O
BRANCH 80 87
ATOM     85   N  NAG B   6      20.632  16.978  13.4950  0.00  0.00     0.000 N
ATOM     87  HD  NAG B   6      20.227  17.699  13.7530  0.00  0.00     0.000 HD
ATOM     87   C  NAG B   6      19.329  17.279  13.5540  0.00  0.00     0.000 C
ATOM     88   C  NAG B   6      18.900  18.074  14.7460  0.00  0.00     0.000 C
ATOM     89   O  NAG B   6      18.521  16.924  12.7040  0.00  0.00     0.000 OA
ENDBRANCH 80 87
ATOM     90   O  NAG B   6      25.938  14.443  10.7290  0.00  0.00     0.000 O
ATOM     92  HD  NAG B   6      25.348  15.077  10.7580  0.00  0.00     0.000 HD
ATOM     92   O  NAG B   6      25.938  14.443  10.7290  0.00  0.00     0.000 O
ATOM     94  HD  NAG B   6      25.348  15.077  10.7580  0.00  0.00     0.000 HD
ENDBRANCH 78 81
ENDBRANCH 65 78
ENDBRANCH 64 68
ENDBRANCH 48 64
ENDBRANCH 47 50
ENDBRANCH 34 47
ENDBRANCH 33 37
ENDBRANCH 17 33
ENDBRANCH 16 19
ENDBRANCH 1 16
TORSDOF 16
ENDMDL
MODEL 55
REMARK VINA RESULT:      -5.8      6.071     15.601
ROOT
ATOM      1  C1  BDP B   1      10.487  20.713  31.3480  0.00  0.00     0.000 C
ATOM      2  C2  BDP B   1      11.096  21.393  32.5610  0.00  0.00     0.000 C
ATOM      3  C3  BDP B   1      11.363  20.417  33.6870  0.00  0.00     0.000 C
ATOM      4  C4  BDP B   1      11.310  18.953  33.2660  0.00  0.00     0.000 C
ATOM      5  C5  BDP B   1      10.088  18.628  32.4120  0.00  0.00     0.000 C
ATOM      6  O5  BDP B   1       9.506  19.807  31.8290  0.00  0.00     0.000 O
ATOM      7   O  BDP B   1      12.315  22.047  32.1920  0.00  0.00     0.000 O
ATOM      9  HD  BDP B   1      12.780  22.540  31.6520  0.00  0.00     0.000 HD
ATOM      9   O  BDP B   1      10.401  20.605  34.7370  0.00  0.00     0.000 O
ATOM     11  HD  BDP B   1      10.865  21.098  34.1970  0.00  0.00     0.000 HD
ATOM     11   O  BDP B   1      12.503  18.592  32.5600  0.00  0.00     0.000 O
ATOM     13  HD  BDP B   1      12.967  19.085  32.0200  0.00  0.00     0.000 HD
ENDROOT
BRANCH 5 13
ATOM     13   C  BDP B   1       9.094  17.963  33.2990  0.00  0.00     0.000 C
ATOM     14   O  BDP B   1       7.931  17.813  32.8710  0.00  0.00     0.000 OA
ATOM     15   O  BDP B   1       9.459  17.556  34.4220  0.00  0.00     0.000 OA
ENDBRANCH 5 13
BRANCH 1 16
ATOM     16  O3  NAG B   2      10.947  20.636  30.0000  0.00  0.00     0.000 O
BRANCH 16 19
ATOM     17  C1  NAG B   2      12.390  17.784  28.2560  0.00  0.00     0.000 C
ATOM     18  C2  NAG B   2      11.222  18.429  29.0040  0.00  0.00     0.000 C
ATOM     19  C3  NAG B   2      11.214  19.935  28.7840  0.00  0.00     0.000 C
ATOM     20  C4  NAG B   2      12.533  20.428  28.1820  0.00  0.00     0.000 C
ATOM     21  C5  NAG B   2      13.787  19.684  28.6620  0.00  0.00     0.000 C
ATOM     22  O5  NAG B   2      13.567  18.287  28.8920  0.00  0.00     0.000 O
ATOM     23   O  NAG B   2      12.439  20.350  26.7560  0.00  0.00     0.000 O
ATOM     25  HD  NAG B   2      12.027  19.588  26.7550  0.00  0.00     0.000 HD
ATOM     25   C  NAG B   2      14.328  20.314  29.9540  0.00  0.00     0.000 C
ATOM     26   O  NAG B   2      15.190  21.427  29.6810  0.00  0.00     0.000 O
ATOM     28  HD  NAG B   2      14.779  20.665  29.6790  0.00  0.00     0.000 HD
BRANCH 18 30
ATOM     28   N  NAG B   2      10.760  17.716  27.8140  0.00  0.00     0.000 N
ATOM     30  HD  NAG B   2      10.789  17.740  26.9490  0.00  0.00     0.000 HD
ATOM     30   C  NAG B   2       9.485  17.648  27.4070  0.00  0.00     0.000 C
ATOM     31   C  NAG B   2       9.262  16.844  26.1570  0.00  0.00     0.000 C
ATOM     32   O  NAG B   2       8.571  18.190  27.9840  0.00  0.00     0.000 OA
ENDBRANCH 18 30
BRANCH 17 33
ATOM     33  O4  BDP B   3      13.338  16.715  28.0490  0.00  0.00     0.000 O
BRANCH 33 37
ATOM     34  C1  BDP B   3      17.012  14.550  28.2900  0.00  0.00     0.000 C
ATOM     35  C2  BDP B   3      16.031  14.388  29.4450  0.00  0.00     0.000 C
ATOM     36  C3  BDP B   3      14.611  14.828  29.1060  0.00  0.00     0.000 C
ATOM     37  C4  BDP B   3      14.654  16.184  28.3840  0.00  0.00     0.000 C
ATOM     38  C5  BDP B   3      15.558  16.016  27.1480  0.00  0.00     0.000 C
ATOM     39  O5  BDP B   3      16.878  15.829  27.6580  0.00  0.00     0.000 O
ATOM     40   O  BDP B   3      16.094  13.014  29.8320  0.00  0.00     0.000 O
ATOM     42  HD  BDP B   3      16.793  13.322  30.2400  0.00  0.00     0.000 HD
ATOM     42   O  BDP B   3      13.901  14.906  30.3410  0.00  0.00     0.000 O
ATOM     44  HD  BDP B   3      14.600  15.214  30.7490  0.00  0.00     0.000 HD
BRANCH 38 44
ATOM     44   C  BDP B   3      15.539  17.178  26.2050  0.00  0.00     0.000 C
ATOM     45   O  BDP B   3      16.267  18.159  26.4710  0.00  0.00     0.000 OA
ATOM     46   O  BDP B   3      14.807  17.140  25.1920  0.00  0.00     0.000 OA
ENDBRANCH 38 44
BRANCH 34 47
ATOM     47  O3  NAG B   4      18.298  14.975  28.7380  0.00  0.00     0.000 O
BRANCH 47 50
ATOM     48  C1  NAG B   4      21.271  13.180  27.2920  0.00  0.00     0.000 C
ATOM     49  C2  NAG B   4      19.997  13.351  28.1010  0.00  0.00     0.000 C
ATOM     50  C3  NAG B   4      19.472  14.771  27.9250  0.00  0.00     0.000 C
ATOM     51  C4  NAG B   4      20.526  15.806  28.2870  0.00  0.00     0.000 C
ATOM     52  C5  NAG B   4      21.807  15.542  27.4950  0.00  0.00     0.000 C
ATOM     53  O5  NAG B   4      22.232  14.185  27.6720  0.00  0.00     0.000 O
ATOM     54   O  NAG B   4      20.015  17.111  28.0000  0.00  0.00     0.000 O
ATOM     56  HD  NAG B   4      20.726  17.132  28.4930  0.00  0.00     0.000 HD
ATOM     56   C  NAG B   4      22.926  16.483  27.9230  0.00  0.00     0.000 C
ATOM     57   O  NAG B   4      23.196  16.285  29.3170  0.00  0.00     0.000 O
ATOM     59  HD  NAG B   4      23.908  16.306  29.8110  0.00  0.00     0.000 HD
BRANCH 49 61
ATOM     59   N  NAG B   4      19.330  12.107  27.7140  0.00  0.00     0.000 N
ATOM     61  HD  NAG B   4      19.846  12.399  28.3460  0.00  0.00     0.000 HD
ATOM     61   O  NAG B   4      18.642  11.514  29.7820  0.00  0.00     0.000 OA
ATOM     62   C  NAG B   4      18.650  11.337  28.5730  0.00  0.00     0.000 C
ATOM     63   C  NAG B   4      17.859  10.226  27.9590  0.00  0.00     0.000 C
ENDBRANCH 49 61
BRANCH 48 64
ATOM     64  O4  BDP B   5      21.873  12.056  26.6570  0.00  0.00     0.000 O
BRANCH 64 68
ATOM     65  C1  BDP B   5      20.588  10.245  23.1300  0.00  0.00     0.000 C
ATOM     66  C2  BDP B   5      20.954   9.303  24.2690  0.00  0.00     0.000 C
ATOM     67  C3  BDP B   5      20.981  10.073  25.5830  0.00  0.00     0.000 C
ATOM     68  C4  BDP B   5      21.938  11.256  25.4780  0.00  0.00     0.000 C
ATOM     69  C5  BDP B   5      21.631  12.138  24.2740  0.00  0.00     0.000 C
ATOM     70  O5  BDP B   5      21.513  11.342  23.0810  0.00  0.00     0.000 O
ATOM     71   O  BDP B   5      20.020   8.213  24.3120  0.00  0.00     0.000 O
ATOM     73  HD  BDP B   5      19.418   7.590  24.3060  0.00  0.00     0.000 HD
ATOM     73   O  BDP B   5      21.399   9.222  26.6570  0.00  0.00     0.000 O
ATOM     75  HD  BDP B   5      20.797   8.599  26.6510  0.00  0.00     0.000 HD
BRANCH 69 75
ATOM     75   C  BDP B   5      22.758  13.126  24.1120  0.00  0.00     0.000 C
ATOM     76   O  BDP B   5      22.495  14.345  24.1400  0.00  0.00     0.000 OA
ATOM     77   O  BDP B   5      23.917  12.699  23.9570  0.00  0.00     0.000 OA
ENDBRANCH 69 75
BRANCH 65 78
ATOM     78  O3  NAG B   6      21.003  10.130  21.7670  0.00  0.00     0.000 O
BRANCH 78 81
ATOM     79  C1  NAG B   6      19.896   9.595  18.1860  0.00  0.00     0.000 C
ATOM     80  C2  NAG B   6      20.500   9.242  19.5540  0.00  0.00     0.000 C
ATOM     81  C3  NAG B   6      20.306  10.391  20.5290  0.00  0.00     0.000 C
ATOM     82  C4  NAG B   6      20.795  11.710  19.9220  0.00  0.00     0.000 C
ATOM     83  C5  NAG B   6      20.106  11.937  18.5810  0.00  0.00     0.000 C
ATOM     84  O5  NAG B   6      20.448  10.843  17.7290  0.00  0.00     0.000 O
BRANCH 80 87
ATOM     85   N  NAG B   6      19.893   8.090  20.2150  0.00  0.00     0.000 N
ATOM     87  HD  NAG B   6      19.668   7.254  20.2050  0.00  0.00     0.000 HD
ATOM     87   C  NAG B   6      20.569   6.995  20.5850  0.00  0.00     0.000 C
ATOM     88   C  NAG B   6      19.768   5.941  21.2810  0.00  0.00     0.000 C
ATOM     89   O  NAG B   6      21.770   6.854  20.3870  0.00  0.00     0.000 OA
ENDBRANCH 80 87
ATOM     90   O  NAG B   6      19.385  14.138  17.8860  0.00  0.00     0.000 O
ATOM     92  HD  NAG B   6      19.236  13.287  17.8380  0.00  0.00     0.000 HD
ATOM     92   O  NAG B   6      19.385  14.138  17.8860  0.00  0.00     0.000 O
ATOM     94  HD  NAG B   6      19.236  13.287  17.8380  0.00  0.00     0.000 HD
ENDBRANCH 78 81
ENDBRANCH 65 78
ENDBRANCH 64 68
ENDBRANCH 48 64
ENDBRANCH 47 50
ENDBRANCH 34 47
ENDBRANCH 33 37
ENDBRANCH 17 33
ENDBRANCH 16 19
ENDBRANCH 1 16
TORSDOF 16
ENDMDL
MODEL 56
REMARK VINA RESULT:      -5.8     10.503     18.987
ROOT
ATOM      1  C1  BDP B   1      21.774   8.206  23.5820  0.00  0.00     0.000 C
ATOM      2  C2  BDP B   1      21.144   6.944  24.1430  0.00  0.00     0.000 C
ATOM      3  C3  BDP B   1      20.001   7.248  25.0880  0.00  0.00     0.000 C
ATOM      4  C4  BDP B   1      19.495   8.684  25.0090  0.00  0.00     0.000 C
ATOM      5  C5  BDP B   1      20.625   9.709  25.0170  0.00  0.00     0.000 C
ATOM      6  O5  BDP B   1      21.889   9.126  24.6580  0.00  0.00     0.000 O
ATOM      7   O  BDP B   1      20.676   6.116  23.0730  0.00  0.00     0.000 O
ATOM      9  HD  BDP B   1      20.780   5.748  22.2960  0.00  0.00     0.000 HD
ATOM      9   O  BDP B   1      20.408   7.003  26.4440  0.00  0.00     0.000 O
ATOM     11  HD  BDP B   1      20.512   6.635  25.6670  0.00  0.00     0.000 HD
ATOM     11   O  BDP B   1      18.686   8.865  23.8400  0.00  0.00     0.000 O
ATOM     13  HD  BDP B   1      18.790   8.497  23.0630  0.00  0.00     0.000 HD
ENDROOT
BRANCH 5 13
ATOM     13   C  BDP B   1      20.703  10.268  26.3940  0.00  0.00     0.000 C
ATOM     14   O  BDP B   1      21.488   9.732  27.2040  0.00  0.00     0.000 OA
ATOM     15   O  BDP B   1      20.007  11.264  26.6870  0.00  0.00     0.000 OA
ENDBRANCH 5 13
BRANCH 1 16
ATOM     16  O3  NAG B   2      21.930   8.644  22.2330  0.00  0.00     0.000 O
BRANCH 16 19
ATOM     17  C1  NAG B   2      22.336  10.547  19.1570  0.00  0.00     0.000 C
ATOM     18  C2  NAG B   2      22.550   9.264  19.9600  0.00  0.00     0.000 C
ATOM     19  C3  NAG B   2      21.425   9.070  20.9670  0.00  0.00     0.000 C
ATOM     20  C4  NAG B   2      20.596  10.345  21.1440  0.00  0.00     0.000 C
ATOM     21  C5  NAG B   2      21.389  11.656  21.0540  0.00  0.00     0.000 C
ATOM     22  O5  NAG B   2      22.461  11.609  20.1050  0.00  0.00     0.000 O
ATOM     23   O  NAG B   2      19.548  10.345  20.1690  0.00  0.00     0.000 O
ATOM     25  HD  NAG B   2      20.047  10.038  19.5300  0.00  0.00     0.000 HD
ATOM     25   C  NAG B   2      21.965  12.035  22.4260  0.00  0.00     0.000 C
ATOM     26   O  NAG B   2      21.014  12.757  23.2210  0.00  0.00     0.000 O
ATOM     28  HD  NAG B   2      21.512  12.450  22.5820  0.00  0.00     0.000 HD
BRANCH 18 30
ATOM     28   N  NAG B   2      22.815   8.410  18.8030  0.00  0.00     0.000 N
ATOM     30  HD  NAG B   2      23.069   8.440  17.9760  0.00  0.00     0.000 HD
ATOM     30   C  NAG B   2      21.881   7.739  18.1140  0.00  0.00     0.000 C
ATOM     31   C  NAG B   2      22.408   6.920  16.9700  0.00  0.00     0.000 C
ATOM     32   O  NAG B   2      20.701   7.784  18.3730  0.00  0.00     0.000 OA
ENDBRANCH 18 30
BRANCH 17 33
ATOM     33  O4  BDP B   3      22.817  11.639  18.3420  0.00  0.00     0.000 O
BRANCH 33 37
ATOM     34  C1  BDP B   3      21.904  13.259  14.4970  0.00  0.00     0.000 C
ATOM     35  C2  BDP B   3      22.702  11.961  14.5350  0.00  0.00     0.000 C
ATOM     36  C3  BDP B   3      22.624  11.235  15.8730  0.00  0.00     0.000 C
ATOM     37  C4  BDP B   3      22.834  12.241  17.0150  0.00  0.00     0.000 C
ATOM     38  C5  BDP B   3      21.774  13.347  16.8520  0.00  0.00     0.000 C
ATOM     39  O5  BDP B   3      22.134  14.055  15.6660  0.00  0.00     0.000 O
ATOM     40   O  BDP B   3      22.214  11.161  13.4560  0.00  0.00     0.000 O
ATOM     42  HD  BDP B   3      22.755  11.685  13.0280  0.00  0.00     0.000 HD
ATOM     42   O  BDP B   3      23.639  10.232  15.8550  0.00  0.00     0.000 O
ATOM     44  HD  BDP B   3      24.179  10.756  15.4270  0.00  0.00     0.000 HD
BRANCH 38 44
ATOM     44   C  BDP B   3      21.689  14.298  18.0040  0.00  0.00     0.000 C
ATOM     45   O  BDP B   3      20.599  14.386  18.6120  0.00  0.00     0.000 OA
ATOM     46   O  BDP B   3      22.693  14.971  18.3260  0.00  0.00     0.000 OA
ENDBRANCH 38 44
BRANCH 34 47
ATOM     47  O3  NAG B   4      22.570  14.274  13.7490  0.00  0.00     0.000 O
BRANCH 47 50
ATOM     48  C1  NAG B   4      20.827  15.842  10.8080  0.00  0.00     0.000 C
ATOM     49  C2  NAG B   4      21.551  14.762  11.5920  0.00  0.00     0.000 C
ATOM     50  C3  NAG B   4      21.824  15.260  13.0070  0.00  0.00     0.000 C
ATOM     51  C4  NAG B   4      22.587  16.575  13.0000  0.00  0.00     0.000 C
ATOM     52  C5  NAG B   4      21.848  17.600  12.1390  0.00  0.00     0.000 C
ATOM     53  O5  NAG B   4      21.591  17.064  10.8350  0.00  0.00     0.000 O
ATOM     54   O  NAG B   4      22.718  17.045  14.3440  0.00  0.00     0.000 O
ATOM     56  HD  NAG B   4      23.240  17.461  13.7930  0.00  0.00     0.000 HD
ATOM     56   C  NAG B   4      22.647  18.891  12.0070  0.00  0.00     0.000 C
ATOM     57   O  NAG B   4      23.910  18.598  11.3940  0.00  0.00     0.000 O
ATOM     59  HD  NAG B   4      24.433  19.014  10.8420  0.00  0.00     0.000 HD
BRANCH 49 61
ATOM     59   N  NAG B   4      22.538  14.431  10.5640  0.00  0.00     0.000 N
ATOM     61  HD  NAG B   4      22.319  14.174  11.3620  0.00  0.00     0.000 HD
ATOM     61   O  NAG B   4      22.415  12.186  10.7820  0.00  0.00     0.000 OA
ATOM     62   C  NAG B   4      22.830  13.177  10.1980  0.00  0.00     0.000 C
ATOM     63   C  NAG B   4      23.700  13.042   8.9890  0.00  0.00     0.000 C
ENDBRANCH 49 61
BRANCH 48 64
ATOM     64  O4  BDP B   5      19.897  15.800   9.7300  0.00  0.00     0.000 O
BRANCH 64 68
ATOM     65  C1  BDP B   5      15.891  16.915  10.0200  0.00  0.00     0.000 C
ATOM     66  C2  BDP B   5      16.155  15.437   9.7630  0.00  0.00     0.000 C
ATOM     67  C3  BDP B   5      17.603  15.108  10.1060  0.00  0.00     0.000 C
ATOM     68  C4  BDP B   5      18.546  16.012   9.3210  0.00  0.00     0.000 C
ATOM     69  C5  BDP B   5      18.211  17.487   9.4980  0.00  0.00     0.000 C
ATOM     70  O5  BDP B   5      16.811  17.719   9.2640  0.00  0.00     0.000 O
ATOM     71   O  BDP B   5      15.235  14.643  10.5280  0.00  0.00     0.000 O
ATOM     73  HD  BDP B   5      14.671  14.213  11.0240  0.00  0.00     0.000 HD
ATOM     73   O  BDP B   5      17.894  13.739   9.7990  0.00  0.00     0.000 O
ATOM     75  HD  BDP B   5      17.330  13.309  10.2950  0.00  0.00     0.000 HD
BRANCH 69 75
ATOM     75   C  BDP B   5      19.025  18.280   8.5090  0.00  0.00     0.000 C
ATOM     76   O  BDP B   5      18.643  19.427   8.2000  0.00  0.00     0.000 OA
ATOM     77   O  BDP B   5      20.057  17.773   8.0320  0.00  0.00     0.000 OA
ENDBRANCH 69 75
BRANCH 65 78
ATOM     78  O3  NAG B   6      14.952  17.742   9.3270  0.00  0.00     0.000 O
BRANCH 78 81
ATOM     79  C1  NAG B   6      11.742  19.609  10.0650  0.00  0.00     0.000 C
ATOM     80  C2  NAG B   6      12.644  18.409   9.7330  0.00  0.00     0.000 C
ATOM     81  C3  NAG B   6      14.107  18.819   9.7860  0.00  0.00     0.000 C
ATOM     82  C4  NAG B   6      14.353  20.073   8.9400  0.00  0.00     0.000 C
ATOM     83  C5  NAG B   6      13.403  21.179   9.3860  0.00  0.00     0.000 C
ATOM     84  O5  NAG B   6      12.069  20.706   9.1930  0.00  0.00     0.000 O
BRANCH 80 87
ATOM     85   N  NAG B   6      12.111  17.078   9.4540  0.00  0.00     0.000 N
ATOM     87  HD  NAG B   6      12.243  16.235   9.3080  0.00  0.00     0.000 HD
ATOM     87   C  NAG B   6      12.198  16.044  10.3010  0.00  0.00     0.000 C
ATOM     88   C  NAG B   6      11.558  14.774   9.8400  0.00  0.00     0.000 C
ATOM     89   O  NAG B   6      12.750  16.119  11.3920  0.00  0.00     0.000 OA
ENDBRANCH 80 87
ATOM     90   O  NAG B   6      14.114  23.487   9.5010  0.00  0.00     0.000 O
ATOM     92  HD  NAG B   6      13.590  22.882   9.8300  0.00  0.00     0.000 HD
ATOM     92   O  NAG B   6      14.114  23.487   9.5010  0.00  0.00     0.000 O
ATOM     94  HD  NAG B   6      13.590  22.882   9.8300  0.00  0.00     0.000 HD
ENDBRANCH 78 81
ENDBRANCH 65 78
ENDBRANCH 64 68
ENDBRANCH 48 64
ENDBRANCH 47 50
ENDBRANCH 34 47
ENDBRANCH 33 37
ENDBRANCH 17 33
ENDBRANCH 16 19
ENDBRANCH 1 16
TORSDOF 16
ENDMDL
MODEL 57
REMARK VINA RESULT:      -5.7      6.739     11.131
ROOT
ATOM      1  C1  BDP B   1      15.799  17.535  28.1340  0.00  0.00     0.000 C
ATOM      2  C2  BDP B   1      14.697  17.634  27.0940  0.00  0.00     0.000 C
ATOM      3  C3  BDP B   1      15.234  17.524  25.6830  0.00  0.00     0.000 C
ATOM      4  C4  BDP B   1      16.660  16.994  25.6000  0.00  0.00     0.000 C
ATOM      5  C5  BDP B   1      17.600  17.670  26.5930  0.00  0.00     0.000 C
ATOM      6  O5  BDP B   1      16.887  18.316  27.6610  0.00  0.00     0.000 O
ATOM      7   O  BDP B   1      13.722  16.611  27.3190  0.00  0.00     0.000 O
ATOM      9  HD  BDP B   1      13.216  16.146  27.8470  0.00  0.00     0.000 HD
ATOM      9   O  BDP B   1      15.210  18.812  25.0480  0.00  0.00     0.000 O
ATOM     11  HD  BDP B   1      14.704  18.348  25.5760  0.00  0.00     0.000 HD
ATOM     11   O  BDP B   1      16.679  15.576  25.8060  0.00  0.00     0.000 O
ATOM     13  HD  BDP B   1      16.173  15.111  26.3330  0.00  0.00     0.000 HD
ENDROOT
BRANCH 5 13
ATOM     13   C  BDP B   1      18.390  18.679  25.8350  0.00  0.00     0.000 C
ATOM     14   O  BDP B   1      18.250  18.727  24.5950  0.00  0.00     0.000 OA
ATOM     15   O  BDP B   1      19.142  19.457  26.4600  0.00  0.00     0.000 OA
ENDBRANCH 5 13
BRANCH 1 16
ATOM     16  O3  NAG B   2      15.979  16.615  29.2090  0.00  0.00     0.000 O
BRANCH 16 19
ATOM     17  C1  NAG B   2      15.250  13.372  30.6960  0.00  0.00     0.000 C
ATOM     18  C2  NAG B   2      15.462  14.247  29.4600  0.00  0.00     0.000 C
ATOM     19  C3  NAG B   2      16.432  15.379  29.7650  0.00  0.00     0.000 C
ATOM     20  C4  NAG B   2      16.658  15.542  31.2710  0.00  0.00     0.000 C
ATOM     21  C5  NAG B   2      15.429  15.266  32.1480  0.00  0.00     0.000 C
ATOM     22  O5  NAG B   2      14.594  14.216  31.6440  0.00  0.00     0.000 O
ATOM     23   O  NAG B   2      17.736  14.686  31.6630  0.00  0.00     0.000 O
ATOM     25  HD  NAG B   2      17.486  14.025  31.1630  0.00  0.00     0.000 HD
ATOM     25   C  NAG B   2      14.579  16.536  32.3020  0.00  0.00     0.000 C
ATOM     26   O  NAG B   2      15.056  17.367  33.3700  0.00  0.00     0.000 O
ATOM     28  HD  NAG B   2      14.806  16.706  32.8700  0.00  0.00     0.000 HD
BRANCH 18 30
ATOM     28   N  NAG B   2      16.750  13.719  29.0100  0.00  0.00     0.000 N
ATOM     30  HD  NAG B   2      17.406  13.887  28.4710  0.00  0.00     0.000 HD
ATOM     30   C  NAG B   2      16.911  12.607  28.2790  0.00  0.00     0.000 C
ATOM     31   C  NAG B   2      18.337  12.267  27.9530  0.00  0.00     0.000 C
ATOM     32   O  NAG B   2      15.991  11.922  27.8980  0.00  0.00     0.000 OA
ENDBRANCH 18 30
BRANCH 17 33
ATOM     33  O4  BDP B   3      14.485  12.429  31.4760  0.00  0.00     0.000 O
BRANCH 33 37
ATOM     34  C1  BDP B   3      13.527   8.437  32.6570  0.00  0.00     0.000 C
ATOM     35  C2  BDP B   3      14.486   8.606  31.4840  0.00  0.00     0.000 C
ATOM     36  C3  BDP B   3      15.102   9.998  31.3940  0.00  0.00     0.000 C
ATOM     37  C4  BDP B   3      14.005  11.056  31.5840  0.00  0.00     0.000 C
ATOM     38  C5  BDP B   3      13.323  10.772  32.9360  0.00  0.00     0.000 C
ATOM     39  O5  BDP B   3      12.620   9.541  32.7620  0.00  0.00     0.000 O
ATOM     40   O  BDP B   3      15.475   7.584  31.6260  0.00  0.00     0.000 O
ATOM     42  HD  BDP B   3      14.834   7.129  31.2630  0.00  0.00     0.000 HD
ATOM     42   O  BDP B   3      15.714  10.092  30.1090  0.00  0.00     0.000 O
ATOM     44  HD  BDP B   3      15.073   9.637  29.7460  0.00  0.00     0.000 HD
BRANCH 38 44
ATOM     44   C  BDP B   3      12.374  11.838  33.3870  0.00  0.00     0.000 C
ATOM     45   O  BDP B   3      11.201  11.799  32.9530  0.00  0.00     0.000 OA
ATOM     46   O  BDP B   3      12.771  12.726  34.1720  0.00  0.00     0.000 OA
ENDBRANCH 38 44
BRANCH 34 47
ATOM     47  O3  NAG B   4      12.405   7.626  32.3180  0.00  0.00     0.000 O
BRANCH 47 50
ATOM     48  C1  NAG B   4      11.430   4.768  34.5610  0.00  0.00     0.000 C
ATOM     49  C2  NAG B   4      12.261   5.525  33.5400  0.00  0.00     0.000 C
ATOM     50  C3  NAG B   4      11.669   6.914  33.3330  0.00  0.00     0.000 C
ATOM     51  C4  NAG B   4      10.201   6.844  32.9410  0.00  0.00     0.000 C
ATOM     52  C5  NAG B   4       9.429   6.012  33.9660  0.00  0.00     0.000 C
ATOM     53  O5  NAG B   4      10.051   4.733  34.1420  0.00  0.00     0.000 O
ATOM     54   O  NAG B   4       9.675   8.171  32.8680  0.00  0.00     0.000 O
ATOM     56  HD  NAG B   4       9.153   7.585  32.5020  0.00  0.00     0.000 HD
ATOM     56   C  NAG B   4       7.979   5.815  33.5400  0.00  0.00     0.000 C
ATOM     57   O  NAG B   4       7.951   5.135  32.2790  0.00  0.00     0.000 O
ATOM     59  HD  NAG B   4       7.430   4.548  31.9120  0.00  0.00     0.000 HD
BRANCH 49 61
ATOM     59   N  NAG B   4      13.609   5.271  34.0510  0.00  0.00     0.000 N
ATOM     61  HD  NAG B   4      13.049   4.918  33.4920  0.00  0.00     0.000 HD
ATOM     61   O  NAG B   4      14.546   4.703  32.0750  0.00  0.00     0.000 OA
ATOM     62   C  NAG B   4      14.647   4.954  33.2670  0.00  0.00     0.000 C
ATOM     63   C  NAG B   4      15.984   4.943  33.9380  0.00  0.00     0.000 C
ENDBRANCH 49 61
BRANCH 48 64
ATOM     64  O4  BDP B   5      11.744   3.746  35.5020  0.00  0.00     0.000 O
BRANCH 64 68
ATOM     65  C1  BDP B   5      15.251   3.418  37.7300  0.00  0.00     0.000 C
ATOM     66  C2  BDP B   5      14.724   2.125  37.1220  0.00  0.00     0.000 C
ATOM     67  C3  BDP B   5      13.728   2.448  36.0160  0.00  0.00     0.000 C
ATOM     68  C4  BDP B   5      12.611   3.333  36.5570  0.00  0.00     0.000 C
ATOM     69  C5  BDP B   5      13.149   4.574  37.2580  0.00  0.00     0.000 C
ATOM     70  O5  BDP B   5      14.160   4.216  38.2160  0.00  0.00     0.000 O
ATOM     71   O  BDP B   5      15.822   1.339  36.6340  0.00  0.00     0.000 O
ATOM     73  HD  BDP B   5      16.518   0.916  36.3400  0.00  0.00     0.000 HD
ATOM     73   O  BDP B   5      13.161   1.245  35.4820  0.00  0.00     0.000 O
ATOM     75  HD  BDP B   5      13.857   0.822  35.1880  0.00  0.00     0.000 HD
BRANCH 69 75
ATOM     75   C  BDP B   5      12.004   5.253  37.9640  0.00  0.00     0.000 C
ATOM     76   O  BDP B   5      11.400   4.633  38.8630  0.00  0.00     0.000 OA
ATOM     77   O  BDP B   5      11.695   6.414  37.6350  0.00  0.00     0.000 OA
ENDBRANCH 69 75
BRANCH 65 78
ATOM     78  O3  NAG B   6      15.691   3.605  39.0780  0.00  0.00     0.000 O
BRANCH 78 81
ATOM     79  C1  NAG B   6      18.858   4.879  40.7150  0.00  0.00     0.000 C
ATOM     80  C2  NAG B   6      17.947   3.909  39.9460  0.00  0.00     0.000 C
ATOM     81  C3  NAG B   6      16.603   4.560  39.6630  0.00  0.00     0.000 C
ATOM     82  C4  NAG B   6      15.999   5.143  40.9440  0.00  0.00     0.000 C
ATOM     83  C5  NAG B   6      17.001   6.092  41.5910  0.00  0.00     0.000 C
ATOM     84  O5  NAG B   6      18.176   5.339  41.8960  0.00  0.00     0.000 O
BRANCH 80 87
ATOM     85   N  NAG B   6      18.711   3.477  38.7790  0.00  0.00     0.000 N
ATOM     87  HD  NAG B   6      19.335   2.986  38.4320  0.00  0.00     0.000 HD
ATOM     87   C  NAG B   6      18.673   2.237  38.2760  0.00  0.00     0.000 C
ATOM     88   C  NAG B   6      19.503   2.006  37.0530  0.00  0.00     0.000 C
ATOM     89   O  NAG B   6      17.997   1.338  38.7630  0.00  0.00     0.000 OA
ENDBRANCH 80 87
ATOM     90   O  NAG B   6      16.296   8.155  42.6380  0.00  0.00     0.000 O
ATOM     92  HD  NAG B   6      16.931   7.748  42.2120  0.00  0.00     0.000 HD
ATOM     92   O  NAG B   6      16.296   8.155  42.6380  0.00  0.00     0.000 O
ATOM     94  HD  NAG B   6      16.931   7.748  42.2120  0.00  0.00     0.000 HD
ENDBRANCH 78 81
ENDBRANCH 65 78
ENDBRANCH 64 68
ENDBRANCH 48 64
ENDBRANCH 47 50
ENDBRANCH 34 47
ENDBRANCH 33 37
ENDBRANCH 17 33
ENDBRANCH 16 19
ENDBRANCH 1 16
TORSDOF 16
ENDMDL
MODEL 58
REMARK VINA RESULT:      -5.6      5.509     10.776
ROOT
ATOM      1  C1  BDP B   1      20.229  13.610  28.8710  0.00  0.00     0.000 C
ATOM      2  C2  BDP B   1      20.793  14.410  27.7100  0.00  0.00     0.000 C
ATOM      3  C3  BDP B   1      21.764  13.600  26.8780  0.00  0.00     0.000 C
ATOM      4  C4  BDP B   1      21.708  12.100  27.1430  0.00  0.00     0.000 C
ATOM      5  C5  BDP B   1      21.701  11.763  28.6310  0.00  0.00     0.000 C
ATOM      6  O5  BDP B   1      21.310  12.886  29.4390  0.00  0.00     0.000 O
ATOM      7   O  BDP B   1      19.726  14.881  26.8800  0.00  0.00     0.000 O
ATOM      9  HD  BDP B   1      18.943  15.238  26.7780  0.00  0.00     0.000 HD
ATOM      9   O  BDP B   1      23.109  14.038  27.1310  0.00  0.00     0.000 O
ATOM     11  HD  BDP B   1      22.327  14.395  27.0290  0.00  0.00     0.000 HD
ATOM     11   O  BDP B   1      20.559  11.523  26.5110  0.00  0.00     0.000 O
ATOM     13  HD  BDP B   1      19.777  11.881  26.4100  0.00  0.00     0.000 HD
ENDROOT
BRANCH 5 13
ATOM     13   C  BDP B   1      23.081  11.339  28.9940  0.00  0.00     0.000 C
ATOM     14   O  BDP B   1      23.324  11.086  30.1920  0.00  0.00     0.000 OA
ATOM     15   O  BDP B   1      23.939  11.226  28.0930  0.00  0.00     0.000 OA
ENDBRANCH 5 13
BRANCH 1 16
ATOM     16  O3  NAG B   2      18.881  13.282  29.2030  0.00  0.00     0.000 O
BRANCH 16 19
ATOM     17  C1  NAG B   2      15.697  11.736  30.0540  0.00  0.00     0.000 C
ATOM     18  C2  NAG B   2      16.647  12.932  30.1100  0.00  0.00     0.000 C
ATOM     19  C3  NAG B   2      17.526  12.976  28.8690  0.00  0.00     0.000 C
ATOM     20  C4  NAG B   2      17.471  11.661  28.0870  0.00  0.00     0.000 C
ATOM     21  C5  NAG B   2      17.343  10.396  28.9480  0.00  0.00     0.000 C
ATOM     22  O5  NAG B   2      16.540  10.584  30.1190  0.00  0.00     0.000 O
ATOM     23   O  NAG B   2      16.382  11.728  27.1610  0.00  0.00     0.000 O
ATOM     25  HD  NAG B   2      15.843  12.120  27.7140  0.00  0.00     0.000 HD
ATOM     25   C  NAG B   2      18.728   9.893  29.3790  0.00  0.00     0.000 C
ATOM     26   O  NAG B   2      19.325   9.056  28.3780  0.00  0.00     0.000 O
ATOM     28  HD  NAG B   2      18.786   9.447  28.9320  0.00  0.00     0.000 HD
BRANCH 18 30
ATOM     28   N  NAG B   2      15.792  14.075  30.4260  0.00  0.00     0.000 N
ATOM     30  HD  NAG B   2      15.120  14.310  30.9190  0.00  0.00     0.000 HD
ATOM     30   C  NAG B   2      14.900  14.622  29.5870  0.00  0.00     0.000 C
ATOM     31   C  NAG B   2      14.148  15.798  30.1430  0.00  0.00     0.000 C
ATOM     32   O  NAG B   2      14.698  14.209  28.4690  0.00  0.00     0.000 OA
ENDBRANCH 18 30
BRANCH 17 33
ATOM     33  O4  BDP B   3      14.839  10.756  30.6780  0.00  0.00     0.000 O
BRANCH 33 37
ATOM     34  C1  BDP B   3      11.827   9.624  33.4860  0.00  0.00     0.000 C
ATOM     35  C2  BDP B   3      11.778   8.970  32.1100  0.00  0.00     0.000 C
ATOM     36  C3  BDP B   3      13.084   9.086  31.3320  0.00  0.00     0.000 C
ATOM     37  C4  BDP B   3      13.608  10.527  31.4240  0.00  0.00     0.000 C
ATOM     38  C5  BDP B   3      13.750  10.868  32.9200  0.00  0.00     0.000 C
ATOM     39  O5  BDP B   3      12.418  10.927  33.4310  0.00  0.00     0.000 O
ATOM     40   O  BDP B   3      11.397   7.609  32.3280  0.00  0.00     0.000 O
ATOM     42  HD  BDP B   3      10.623   7.995  32.3650  0.00  0.00     0.000 HD
ATOM     42   O  BDP B   3      12.794   8.712  29.9870  0.00  0.00     0.000 O
ATOM     44  HD  BDP B   3      12.019   9.097  30.0240  0.00  0.00     0.000 HD
BRANCH 38 44
ATOM     44   C  BDP B   3      14.457  12.158  33.1970  0.00  0.00     0.000 C
ATOM     45   O  BDP B   3      13.922  13.216  32.7990  0.00  0.00     0.000 OA
ATOM     46   O  BDP B   3      15.548  12.146  33.8080  0.00  0.00     0.000 OA
ENDBRANCH 38 44
BRANCH 34 47
ATOM     47  O3  NAG B   4      10.595  10.263  33.8170  0.00  0.00     0.000 O
BRANCH 47 50
ATOM     48  C1  NAG B   4       9.678   9.980  37.4540  0.00  0.00     0.000 C
ATOM     49  C2  NAG B   4      10.030   9.497  36.0580  0.00  0.00     0.000 C
ATOM     50  C3  NAG B   4      10.323  10.697  35.1660  0.00  0.00     0.000 C
ATOM     51  C4  NAG B   4       9.167  11.684  35.1570  0.00  0.00     0.000 C
ATOM     52  C5  NAG B   4       8.812  12.079  36.5910  0.00  0.00     0.000 C
ATOM     53  O5  NAG B   4       8.580  10.911  37.3890  0.00  0.00     0.000 O
ATOM     54   O  NAG B   4       9.541  12.834  34.3950  0.00  0.00     0.000 O
ATOM     56  HD  NAG B   4       8.690  12.801  34.5520  0.00  0.00     0.000 HD
ATOM     56   C  NAG B   4       7.576  12.970  36.6300  0.00  0.00     0.000 C
ATOM     57   O  NAG B   4       6.469  12.260  36.0590  0.00  0.00     0.000 O
ATOM     59  HD  NAG B   4       5.618  12.227  36.2160  0.00  0.00     0.000 HD
BRANCH 49 61
ATOM     59   N  NAG B   4       8.931   8.540  35.9180  0.00  0.00     0.000 N
ATOM     61  HD  NAG B   4       9.615   8.816  35.4630  0.00  0.00     0.000 HD
ATOM     61   O  NAG B   4      10.144   6.864  35.0110  0.00  0.00     0.000 OA
ATOM     62   C  NAG B   4       9.096   7.287  35.4770  0.00  0.00     0.000 C
ATOM     63   C  NAG B   4       7.902   6.395  35.6050  0.00  0.00     0.000 C
ENDBRANCH 49 61
BRANCH 48 64
ATOM     64  O4  BDP B   5       9.833   9.404  38.7470  0.00  0.00     0.000 O
BRANCH 64 68
ATOM     65  C1  BDP B   5      10.584   8.599  42.7680  0.00  0.00     0.000 C
ATOM     66  C2  BDP B   5      10.046   9.989  42.4550  0.00  0.00     0.000 C
ATOM     67  C3  BDP B   5       9.425   9.997  41.0640  0.00  0.00     0.000 C
ATOM     68  C4  BDP B   5      10.442   9.522  40.0320  0.00  0.00     0.000 C
ATOM     69  C5  BDP B   5      11.055   8.179  40.4050  0.00  0.00     0.000 C
ATOM     70  O5  BDP B   5      11.530   8.199  41.7630  0.00  0.00     0.000 O
ATOM     71   O  BDP B   5       9.097  10.376  43.4610  0.00  0.00     0.000 O
ATOM     73  HD  BDP B   5       8.520  10.552  44.0820  0.00  0.00     0.000 HD
ATOM     73   O  BDP B   5       8.981  11.314  40.7180  0.00  0.00     0.000 O
ATOM     75  HD  BDP B   5       8.403  11.490  41.3390  0.00  0.00     0.000 HD
BRANCH 69 75
ATOM     75   C  BDP B   5      12.209   7.909  39.4730  0.00  0.00     0.000 C
ATOM     76   O  BDP B   5      13.232   8.618  39.5640  0.00  0.00     0.000 OA
ATOM     77   O  BDP B   5      12.111   6.987  38.6430  0.00  0.00     0.000 OA
ENDBRANCH 69 75
BRANCH 65 78
ATOM     78  O3  NAG B   6      11.695   8.290  43.6140  0.00  0.00     0.000 O
BRANCH 78 81
ATOM     79  C1  NAG B   6      12.330   6.185  46.6960  0.00  0.00     0.000 C
ATOM     80  C2  NAG B   6      11.839   7.386  45.8720  0.00  0.00     0.000 C
ATOM     81  C3  NAG B   6      12.009   7.111  44.3870  0.00  0.00     0.000 C
ATOM     82  C4  NAG B   6      13.437   6.649  44.0780  0.00  0.00     0.000 C
ATOM     83  C5  NAG B   6      13.782   5.450  44.9540  0.00  0.00     0.000 C
ATOM     84  O5  NAG B   6      13.680   5.867  46.3160  0.00  0.00     0.000 O
BRANCH 80 87
ATOM     85   N  NAG B   6      11.273   8.639  46.3650  0.00  0.00     0.000 N
ATOM     87  HD  NAG B   6      10.822   9.364  46.2220  0.00  0.00     0.000 HD
ATOM     87   C  NAG B   6       9.960   8.886  46.4500  0.00  0.00     0.000 C
ATOM     88   C  NAG B   6       9.586  10.219  47.0160  0.00  0.00     0.000 C
ATOM     89   O  NAG B   6       9.105   8.079  46.1060  0.00  0.00     0.000 OA
ENDBRANCH 80 87
ATOM     90   O  NAG B   6      15.079   3.594  44.1040  0.00  0.00     0.000 O
ATOM     92  HD  NAG B   6      14.462   3.843  44.6590  0.00  0.00     0.000 HD
ATOM     92   O  NAG B   6      15.079   3.594  44.1040  0.00  0.00     0.000 O
ATOM     94  HD  NAG B   6      14.462   3.843  44.6590  0.00  0.00     0.000 HD
ENDBRANCH 78 81
ENDBRANCH 65 78
ENDBRANCH 64 68
ENDBRANCH 48 64
ENDBRANCH 47 50
ENDBRANCH 34 47
ENDBRANCH 33 37
ENDBRANCH 17 33
ENDBRANCH 16 19
ENDBRANCH 1 16
TORSDOF 16
ENDMDL
MODEL 59
REMARK VINA RESULT:      -5.5      5.019     16.251
ROOT
ATOM      1  C1  BDP B   1      21.157   8.328  34.1110  0.00  0.00     0.000 C
ATOM      2  C2  BDP B   1      22.052   7.625  35.1160  0.00  0.00     0.000 C
ATOM      3  C3  BDP B   1      21.462   6.312  35.5840  0.00  0.00     0.000 C
ATOM      4  C4  BDP B   1      20.315   5.803  34.7190  0.00  0.00     0.000 C
ATOM      5  C5  BDP B   1      19.291   6.888  34.3980  0.00  0.00     0.000 C
ATOM      6  O5  BDP B   1      19.825   8.209  34.5880  0.00  0.00     0.000 O
ATOM      7   O  BDP B   1      23.343   7.395  34.5410  0.00  0.00     0.000 O
ATOM      9  HD  BDP B   1      24.026   7.658  34.0790  0.00  0.00     0.000 HD
ATOM      9   O  BDP B   1      20.971   6.446  36.9270  0.00  0.00     0.000 O
ATOM     11  HD  BDP B   1      21.654   6.710  36.4650  0.00  0.00     0.000 HD
ATOM     11   O  BDP B   1      20.818   5.238  33.5020  0.00  0.00     0.000 O
ATOM     13  HD  BDP B   1      21.502   5.501  33.0410  0.00  0.00     0.000 HD
ENDROOT
BRANCH 5 13
ATOM     13   C  BDP B   1      18.130   6.680  35.3060  0.00  0.00     0.000 C
ATOM     14   O  BDP B   1      18.231   7.063  36.4900  0.00  0.00     0.000 OA
ATOM     15   O  BDP B   1      17.089   6.157  34.8520  0.00  0.00     0.000 OA
ENDBRANCH 5 13
BRANCH 1 16
ATOM     16  O3  NAG B   2      21.413   8.739  32.7700  0.00  0.00     0.000 O
BRANCH 16 19
ATOM     17  C1  NAG B   2      21.051   9.068  29.1620  0.00  0.00     0.000 C
ATOM     18  C2  NAG B   2      20.445   8.774  30.5340  0.00  0.00     0.000 C
ATOM     19  C3  NAG B   2      21.174   9.552  31.6200  0.00  0.00     0.000 C
ATOM     20  C4  NAG B   2      22.498  10.130  31.1110  0.00  0.00     0.000 C
ATOM     21  C5  NAG B   2      23.246   9.252  30.0980  0.00  0.00     0.000 C
ATOM     22  O5  NAG B   2      22.376   8.535  29.2150  0.00  0.00     0.000 O
ATOM     23   O  NAG B   2      22.242  11.418  30.5410  0.00  0.00     0.000 O
ATOM     25  HD  NAG B   2      21.505  11.178  30.1540  0.00  0.00     0.000 HD
ATOM     25   C  NAG B   2      24.151   8.244  30.8210  0.00  0.00     0.000 C
ATOM     26   O  NAG B   2      25.426   8.814  31.1490  0.00  0.00     0.000 O
ATOM     28  HD  NAG B   2      24.689   8.575  30.7620  0.00  0.00     0.000 HD
BRANCH 18 30
ATOM     28   N  NAG B   2      19.265   9.514  30.9790  0.00  0.00     0.000 N
ATOM     30  HD  NAG B   2      18.482   9.403  31.3330  0.00  0.00     0.000 HD
ATOM     30   C  NAG B   2      18.407  10.151  30.1690  0.00  0.00     0.000 C
ATOM     31   C  NAG B   2      17.276  10.849  30.8700  0.00  0.00     0.000 C
ATOM     32   O  NAG B   2      18.514  10.167  28.9650  0.00  0.00     0.000 OA
ENDBRANCH 18 30
BRANCH 17 33
ATOM     33  O4  BDP B   3      21.308   8.733  27.7810  0.00  0.00     0.000 O
BRANCH 33 37
ATOM     34  C1  BDP B   3      22.584   9.435  23.7660  0.00  0.00     0.000 C
ATOM     35  C2  BDP B   3      23.076  10.405  24.8330  0.00  0.00     0.000 C
ATOM     36  C3  BDP B   3      22.944   9.868  26.2540  0.00  0.00     0.000 C
ATOM     37  C4  BDP B   3      21.553   9.244  26.4380  0.00  0.00     0.000 C
ATOM     38  C5  BDP B   3      21.390   8.162  25.3530  0.00  0.00     0.000 C
ATOM     39  O5  BDP B   3      21.316   8.866  24.1140  0.00  0.00     0.000 O
ATOM     40   O  BDP B   3      24.430  10.716  24.4960  0.00  0.00     0.000 O
ATOM     42  HD  BDP B   3      24.010  11.249  23.9570  0.00  0.00     0.000 HD
ATOM     42   O  BDP B   3      23.150  10.975  27.1300  0.00  0.00     0.000 O
ATOM     44  HD  BDP B   3      22.730  11.508  26.5920  0.00  0.00     0.000 HD
BRANCH 38 44
ATOM     44   C  BDP B   3      20.178   7.298  25.5180  0.00  0.00     0.000 C
ATOM     45   O  BDP B   3      19.063   7.798  25.2560  0.00  0.00     0.000 OA
ATOM     46   O  BDP B   3      20.310   6.117  25.9080  0.00  0.00     0.000 OA
ENDBRANCH 38 44
BRANCH 34 47
ATOM     47  O3  NAG B   4      21.920  10.109  22.6980  0.00  0.00     0.000 O
BRANCH 47 50
ATOM     48  C1  NAG B   4      22.876   9.137  19.1920  0.00  0.00     0.000 C
ATOM     49  C2  NAG B   4      23.057   9.728  20.5790  0.00  0.00     0.000 C
ATOM     50  C3  NAG B   4      21.793   9.495  21.3980  0.00  0.00     0.000 C
ATOM     51  C4  NAG B   4      20.562  10.045  20.6960  0.00  0.00     0.000 C
ATOM     52  C5  NAG B   4      20.471   9.469  19.2820  0.00  0.00     0.000 C
ATOM     53  O5  NAG B   4      21.697   9.689  18.5730  0.00  0.00     0.000 O
ATOM     54   O  NAG B   4      19.400   9.703  21.4560  0.00  0.00     0.000 O
ATOM     56  HD  NAG B   4      19.240  10.307  20.8560  0.00  0.00     0.000 HD
ATOM     56   C  NAG B   4      19.319  10.094  18.5040  0.00  0.00     0.000 C
ATOM     57   O  NAG B   4      19.528  11.509  18.4130  0.00  0.00     0.000 O
ATOM     59  HD  NAG B   4      19.368  12.113  17.8130  0.00  0.00     0.000 HD
BRANCH 49 61
ATOM     59   N  NAG B   4      24.404   9.219  20.8410  0.00  0.00     0.000 N
ATOM     61  HD  NAG B   4      24.029   9.933  20.5270  0.00  0.00     0.000 HD
ATOM     61   O  NAG B   4      25.257  11.129  21.6930  0.00  0.00     0.000 OA
ATOM     62   C  NAG B   4      25.361   9.938  21.4400  0.00  0.00     0.000 C
ATOM     63   C  NAG B   4      26.597   9.184  21.8150  0.00  0.00     0.000 C
ENDBRANCH 49 61
BRANCH 48 64
ATOM     64  O4  BDP B   5      23.787   8.588  18.2450  0.00  0.00     0.000 O
BRANCH 64 68
ATOM     65  C1  BDP B   5      25.127   6.244  15.0700  0.00  0.00     0.000 C
ATOM     66  C2  BDP B   5      23.744   5.907  15.6110  0.00  0.00     0.000 C
ATOM     67  C3  BDP B   5      23.219   7.073  16.4380  0.00  0.00     0.000 C
ATOM     68  C4  BDP B   5      24.208   7.417  17.5460  0.00  0.00     0.000 C
ATOM     69  C5  BDP B   5      25.614   7.650  17.0090  0.00  0.00     0.000 C
ATOM     70  O5  BDP B   5      26.014   6.567  16.1520  0.00  0.00     0.000 O
ATOM     71   O  BDP B   5      22.864   5.591  14.5210  0.00  0.00     0.000 O
ATOM     73  HD  BDP B   5      22.371   5.429  13.8270  0.00  0.00     0.000 HD
ATOM     73   O  BDP B   5      21.951   6.746  17.0200  0.00  0.00     0.000 O
ATOM     75  HD  BDP B   5      21.459   6.585  16.3260  0.00  0.00     0.000 HD
BRANCH 69 75
ATOM     75   C  BDP B   5      26.559   7.741  18.1800  0.00  0.00     0.000 C
ATOM     76   O  BDP B   5      26.632   6.776  18.9680  0.00  0.00     0.000 OA
ATOM     77   O  BDP B   5      27.242   8.772  18.3260  0.00  0.00     0.000 OA
ENDBRANCH 69 75
BRANCH 65 78
ATOM     78  O3  NAG B   6      26.177   5.315  14.7860  0.00  0.00     0.000 O
BRANCH 78 81
ATOM     79  C1  NAG B   6      28.066   3.986  11.7860  0.00  0.00     0.000 C
ATOM     80  C2  NAG B   6      26.919   4.112  12.8010  0.00  0.00     0.000 C
ATOM     81  C3  NAG B   6      27.168   5.284  13.7360  0.00  0.00     0.000 C
ATOM     82  C4  NAG B   6      28.572   5.207  14.3450  0.00  0.00     0.000 C
ATOM     83  C5  NAG B   6      29.604   5.100  13.2280  0.00  0.00     0.000 C
ATOM     84  O5  NAG B   6      29.319   3.911  12.4890  0.00  0.00     0.000 O
BRANCH 80 87
ATOM     85   N  NAG B   6      25.760   3.223  12.7900  0.00  0.00     0.000 N
ATOM     87  HD  NAG B   6      24.976   3.011  13.0910  0.00  0.00     0.000 HD
ATOM     87   C  NAG B   6      24.537   3.591  12.3880  0.00  0.00     0.000 C
ATOM     88   C  NAG B   6      23.494   2.520  12.4200  0.00  0.00     0.000 C
ATOM     89   O  NAG B   6      24.273   4.723  12.0020  0.00  0.00     0.000 OA
ENDBRANCH 80 87
ATOM     90   O  NAG B   6      31.729   6.247  13.3550  0.00  0.00     0.000 O
ATOM     92  HD  NAG B   6      31.108   5.945  12.8320  0.00  0.00     0.000 HD
ATOM     92   O  NAG B   6      31.729   6.247  13.3550  0.00  0.00     0.000 O
ATOM     94  HD  NAG B   6      31.108   5.945  12.8320  0.00  0.00     0.000 HD
ENDBRANCH 78 81
ENDBRANCH 65 78
ENDBRANCH 64 68
ENDBRANCH 48 64
ENDBRANCH 47 50
ENDBRANCH 34 47
ENDBRANCH 33 37
ENDBRANCH 17 33
ENDBRANCH 16 19
ENDBRANCH 1 16
TORSDOF 16
ENDMDL
MODEL 60
REMARK VINA RESULT:      -5.4     16.530     21.021
ROOT
ATOM      1  C1  BDP B   1      27.325  18.375  15.0590  0.00  0.00     0.000 C
ATOM      2  C2  BDP B   1      26.863  19.747  15.5160  0.00  0.00     0.000 C
ATOM      3  C3  BDP B   1      27.394  20.852  14.6280  0.00  0.00     0.000 C
ATOM      4  C4  BDP B   1      27.960  20.363  13.2990  0.00  0.00     0.000 C
ATOM      5  C5  BDP B   1      28.891  19.165  13.4590  0.00  0.00     0.000 C
ATOM      6  O5  BDP B   1      28.697  18.493  14.7150  0.00  0.00     0.000 O
ATOM      7   O  BDP B   1      25.432  19.795  15.5410  0.00  0.00     0.000 O
ATOM      9  HD  BDP B   1      24.663  19.446  15.7330  0.00  0.00     0.000 HD
ATOM      9   O  BDP B   1      28.435  21.570  15.3080  0.00  0.00     0.000 O
ATOM     11  HD  BDP B   1      27.666  21.220  15.5000  0.00  0.00     0.000 HD
ATOM     11   O  BDP B   1      26.898  20.034  12.3950  0.00  0.00     0.000 O
ATOM     13  HD  BDP B   1      26.130  19.684  12.5870  0.00  0.00     0.000 HD
ENDROOT
BRANCH 5 13
ATOM     13   C  BDP B   1      30.286  19.677  13.3730  0.00  0.00     0.000 C
ATOM     14   O  BDP B   1      30.612  20.333  12.3620  0.00  0.00     0.000 OA
ATOM     15   O  BDP B   1      31.073  19.459  14.3190  0.00  0.00     0.000 OA
ENDBRANCH 5 13
BRANCH 1 16
ATOM     16  O3  NAG B   2      26.574  17.227  14.6680  0.00  0.00     0.000 O
BRANCH 16 19
ATOM     17  C1  NAG B   2      23.418  16.526  12.9950  0.00  0.00     0.000 C
ATOM     18  C2  NAG B   2      24.730  17.305  13.0780  0.00  0.00     0.000 C
ATOM     19  C3  NAG B   2      25.814  16.461  13.7320  0.00  0.00     0.000 C
ATOM     20  C4  NAG B   2      25.230  15.228  14.4260  0.00  0.00     0.000 C
ATOM     21  C5  NAG B   2      23.857  15.437  15.0800  0.00  0.00     0.000 C
ATOM     22  O5  NAG B   2      23.010  16.333  14.3510  0.00  0.00     0.000 O
ATOM     23   O  NAG B   2      25.156  14.162  13.4740  0.00  0.00     0.000 O
ATOM     25  HD  NAG B   2      24.887  14.667  12.8240  0.00  0.00     0.000 HD
ATOM     25   C  NAG B   2      24.015  15.968  16.5120  0.00  0.00     0.000 C
ATOM     26   O  NAG B   2      24.214  14.904  17.4540  0.00  0.00     0.000 O
ATOM     28  HD  NAG B   2      23.944  15.409  16.8040  0.00  0.00     0.000 HD
BRANCH 18 30
ATOM     28   N  NAG B   2      24.470  16.849  11.7130  0.00  0.00     0.000 N
ATOM     30  HD  NAG B   2      24.432  16.133  11.2280  0.00  0.00     0.000 HD
ATOM     30   C  NAG B   2      25.267  17.082  10.6600  0.00  0.00     0.000 C
ATOM     31   C  NAG B   2      24.775  16.517   9.3580  0.00  0.00     0.000 C
ATOM     32   O  NAG B   2      26.308  17.692  10.7350  0.00  0.00     0.000 OA
ENDBRANCH 18 30
BRANCH 17 33
ATOM     33  O4  BDP B   3      21.980  16.455  12.8820  0.00  0.00     0.000 O
BRANCH 33 37
ATOM     34  C1  BDP B   3      18.257  15.768  10.9040  0.00  0.00     0.000 C
ATOM     35  C2  BDP B   3      19.510  15.200  10.2480  0.00  0.00     0.000 C
ATOM     36  C3  BDP B   3      20.705  15.110  11.1900  0.00  0.00     0.000 C
ATOM     37  C4  BDP B   3      20.838  16.423  11.9760  0.00  0.00     0.000 C
ATOM     38  C5  BDP B   3      19.499  16.659  12.7010  0.00  0.00     0.000 C
ATOM     39  O5  BDP B   3      18.549  16.940  11.6740  0.00  0.00     0.000 O
ATOM     40   O  BDP B   3      19.140  13.926   9.7180  0.00  0.00     0.000 O
ATOM     42  HD  BDP B   3      18.838  14.446   9.0950  0.00  0.00     0.000 HD
ATOM     42   O  BDP B   3      21.850  14.860  10.3760  0.00  0.00     0.000 O
ATOM     44  HD  BDP B   3      21.547  15.380   9.7530  0.00  0.00     0.000 HD
BRANCH 38 44
ATOM     44   C  BDP B   3      19.522  17.781  13.6920  0.00  0.00     0.000 C
ATOM     45   O  BDP B   3      19.623  17.490  14.9040  0.00  0.00     0.000 OA
ATOM     46   O  BDP B   3      19.439  18.962  13.2900  0.00  0.00     0.000 OA
ENDBRANCH 38 44
BRANCH 34 47
ATOM     47  O3  NAG B   4      17.522  16.608  10.0160  0.00  0.00     0.000 O
BRANCH 47 50
ATOM     48  C1  NAG B   4      13.789  16.290  10.3400  0.00  0.00     0.000 C
ATOM     49  C2  NAG B   4      15.215  15.835  10.0870  0.00  0.00     0.000 C
ATOM     50  C3  NAG B   4      16.168  17.002  10.3160  0.00  0.00     0.000 C
ATOM     51  C4  NAG B   4      15.790  18.207   9.4700  0.00  0.00     0.000 C
ATOM     52  C5  NAG B   4      14.326  18.575   9.7140  0.00  0.00     0.000 C
ATOM     53  O5  NAG B   4      13.484  17.432   9.5160  0.00  0.00     0.000 O
ATOM     54   O  NAG B   4      16.648  19.300   9.8060  0.00  0.00     0.000 O
ATOM     56  HD  NAG B   4      16.208  19.435   9.0730  0.00  0.00     0.000 HD
ATOM     56   C  NAG B   4      13.876  19.700   8.7900  0.00  0.00     0.000 C
ATOM     57   O  NAG B   4      14.024  19.275   7.4290  0.00  0.00     0.000 O
ATOM     59  HD  NAG B   4      13.584  19.410   6.6950  0.00  0.00     0.000 HD
BRANCH 49 61
ATOM     59   N  NAG B   4      14.892  15.102   8.8620  0.00  0.00     0.000 N
ATOM     61  HD  NAG B   4      15.587  15.285   9.3450  0.00  0.00     0.000 HD
ATOM     61   O  NAG B   4      16.206  13.309   9.2630  0.00  0.00     0.000 OA
ATOM     62   C  NAG B   4      15.356  13.876   8.5920  0.00  0.00     0.000 C
ATOM     63   C  NAG B   4      14.750  13.202   7.4020  0.00  0.00     0.000 C
ENDBRANCH 49 61
BRANCH 48 64
ATOM     64  O4  BDP B   5      12.620  15.612  10.7930  0.00  0.00     0.000 O
BRANCH 64 68
ATOM     65  C1  BDP B   5       9.098  13.434  11.2600  0.00  0.00     0.000 C
ATOM     66  C2  BDP B   5      10.323  12.637  10.8320  0.00  0.00     0.000 C
ATOM     67  C3  BDP B   5      11.584  13.443  11.1170  0.00  0.00     0.000 C
ATOM     68  C4  BDP B   5      11.504  14.801  10.4280  0.00  0.00     0.000 C
ATOM     69  C5  BDP B   5      10.225  15.549  10.7780  0.00  0.00     0.000 C
ATOM     70  O5  BDP B   5       9.076  14.704  10.5900  0.00  0.00     0.000 O
ATOM     71   O  BDP B   5      10.337  11.372  11.5120  0.00  0.00     0.000 O
ATOM     73  HD  BDP B   5      10.308  10.634  11.9640  0.00  0.00     0.000 HD
ATOM     73   O  BDP B   5      12.744  12.744  10.6510  0.00  0.00     0.000 O
ATOM     75  HD  BDP B   5      12.715  12.005  11.1020  0.00  0.00     0.000 HD
BRANCH 69 75
ATOM     75   C  BDP B   5      10.117  16.752   9.8760  0.00  0.00     0.000 C
ATOM     76   O  BDP B   5      10.052  16.574   8.6430  0.00  0.00     0.000 OA
ATOM     77   O  BDP B   5      10.092  17.888  10.3860  0.00  0.00     0.000 OA
ENDBRANCH 69 75
BRANCH 65 78
ATOM     78  O3  NAG B   6       7.793  13.361  10.6800  0.00  0.00     0.000 O
BRANCH 78 81
ATOM     79  C1  NAG B   6       4.306  13.497  12.1470  0.00  0.00     0.000 C
ATOM     80  C2  NAG B   6       5.706  12.932  11.8630  0.00  0.00     0.000 C
ATOM     81  C3  NAG B   6       6.533  13.941  11.0820  0.00  0.00     0.000 C
ATOM     82  C4  NAG B   6       5.768  14.437   9.8510  0.00  0.00     0.000 C
ATOM     83  C5  NAG B   6       4.410  14.978  10.2820  0.00  0.00     0.000 C
ATOM     84  O5  NAG B   6       3.699  13.911  10.9100  0.00  0.00     0.000 O
BRANCH 80 87
ATOM     85   N  NAG B   6       6.214  11.626  12.2760  0.00  0.00     0.000 N
ATOM     87  HD  NAG B   6       6.880  11.086  12.3970  0.00  0.00     0.000 HD
ATOM     87   C  NAG B   6       7.005  11.432  13.3390  0.00  0.00     0.000 C
ATOM     88   C  NAG B   6       7.387  10.012  13.6130  0.00  0.00     0.000 C
ATOM     89   O  NAG B   6       7.390  12.344  14.0610  0.00  0.00     0.000 OA
ENDBRANCH 80 87
ATOM     90   O  NAG B   6       3.451  16.948   9.2580  0.00  0.00     0.000 O
ATOM     92  HD  NAG B   6       3.507  16.470   9.9780  0.00  0.00     0.000 HD
ATOM     92   O  NAG B   6       3.451  16.948   9.2580  0.00  0.00     0.000 O
ATOM     94  HD  NAG B   6       3.507  16.470   9.9780  0.00  0.00     0.000 HD
ENDBRANCH 78 81
ENDBRANCH 65 78
ENDBRANCH 64 68
ENDBRANCH 48 64
ENDBRANCH 47 50
ENDBRANCH 34 47
ENDBRANCH 33 37
ENDBRANCH 17 33
ENDBRANCH 16 19
ENDBRANCH 1 16
TORSDOF 16
ENDMDL
MODEL 61
REMARK VINA RESULT:      -5.4      8.245     17.712
ROOT
ATOM      1  C1  BDP B   1      15.590  12.272  30.8090  0.00  0.00     0.000 C
ATOM      2  C2  BDP B   1      16.011  10.875  30.3900  0.00  0.00     0.000 C
ATOM      3  C3  BDP B   1      15.109   9.809  30.9750  0.00  0.00     0.000 C
ATOM      4  C4  BDP B   1      13.801  10.345  31.5450  0.00  0.00     0.000 C
ATOM      5  C5  BDP B   1      14.001  11.572  32.4290  0.00  0.00     0.000 C
ATOM      6  O5  BDP B   1      15.267  12.211  32.1910  0.00  0.00     0.000 O
ATOM      7   O  BDP B   1      16.010  10.775  28.9620  0.00  0.00     0.000 O
ATOM      9  HD  BDP B   1      16.196  11.093  28.1780  0.00  0.00     0.000 HD
ATOM      9   O  BDP B   1      15.793   9.115  32.0300  0.00  0.00     0.000 O
ATOM     11  HD  BDP B   1      15.978   9.432  31.2460  0.00  0.00     0.000 HD
ATOM     11   O  BDP B   1      12.885  10.656  30.4870  0.00  0.00     0.000 O
ATOM     13  HD  BDP B   1      13.071  10.973  29.7030  0.00  0.00     0.000 HD
ENDROOT
BRANCH 5 13
ATOM     13   C  BDP B   1      13.929  11.112  33.8430  0.00  0.00     0.000 C
ATOM     14   O  BDP B   1      12.809  11.075  34.3940  0.00  0.00     0.000 OA
ATOM     15   O  BDP B   1      14.978  10.756  34.4210  0.00  0.00     0.000 OA
ENDBRANCH 5 13
BRANCH 1 16
ATOM     16  O3  NAG B   2      15.209  13.401  30.0250  0.00  0.00     0.000 O
BRANCH 16 19
ATOM     17  C1  NAG B   2      15.617  15.732  27.2580  0.00  0.00     0.000 C
ATOM     18  C2  NAG B   2      14.713  14.931  28.1950  0.00  0.00     0.000 C
ATOM     19  C3  NAG B   2      15.382  14.736  29.5480  0.00  0.00     0.000 C
ATOM     20  C4  NAG B   2      16.874  15.078  29.4970  0.00  0.00     0.000 C
ATOM     21  C5  NAG B   2      17.580  14.720  28.1820  0.00  0.00     0.000 C
ATOM     22  O5  NAG B   2      16.752  14.894  27.0260  0.00  0.00     0.000 O
ATOM     23   O  NAG B   2      17.029  16.475  29.7670  0.00  0.00     0.000 O
ATOM     25  HD  NAG B   2      16.343  16.714  29.2950  0.00  0.00     0.000 HD
ATOM     25   C  NAG B   2      18.079  13.269  28.2130  0.00  0.00     0.000 C
ATOM     26   O  NAG B   2      19.365  13.163  28.8400  0.00  0.00     0.000 O
ATOM     28  HD  NAG B   2      18.679  13.402  28.3690  0.00  0.00     0.000 HD
BRANCH 18 30
ATOM     28   N  NAG B   2      14.061  16.200  27.8730  0.00  0.00     0.000 N
ATOM     30  HD  NAG B   2      14.217  17.048  27.7940  0.00  0.00     0.000 HD
ATOM     30   C  NAG B   2      13.147  16.810  28.6410  0.00  0.00     0.000 C
ATOM     31   C  NAG B   2      12.616  18.101  28.0860  0.00  0.00     0.000 C
ATOM     32   O  NAG B   2      12.771  16.374  29.7040  0.00  0.00     0.000 OA
ENDBRANCH 18 30
BRANCH 17 33
ATOM     33  O4  BDP B   3      16.047  16.145  25.9420  0.00  0.00     0.000 O
BRANCH 33 37
ATOM     34  C1  BDP B   3      18.694  18.168  23.2700  0.00  0.00     0.000 C
ATOM     35  C2  BDP B   3      18.997  18.269  24.7600  0.00  0.00     0.000 C
ATOM     36  C3  BDP B   3      18.294  17.208  25.6000  0.00  0.00     0.000 C
ATOM     37  C4  BDP B   3      16.822  17.109  25.1710  0.00  0.00     0.000 C
ATOM     38  C5  BDP B   3      16.805  16.809  23.6600  0.00  0.00     0.000 C
ATOM     39  O5  BDP B   3      17.294  17.991  23.0260  0.00  0.00     0.000 O
ATOM     40   O  BDP B   3      20.419  18.202  24.8840  0.00  0.00     0.000 O
ATOM     42  HD  BDP B   3      20.321  19.036  24.6700  0.00  0.00     0.000 HD
ATOM     42   O  BDP B   3      18.424  17.611  26.9620  0.00  0.00     0.000 O
ATOM     44  HD  BDP B   3      18.326  18.445  26.7480  0.00  0.00     0.000 HD
BRANCH 38 44
ATOM     44   C  BDP B   3      15.456  16.462  23.1130  0.00  0.00     0.000 C
ATOM     45   O  BDP B   3      15.392  15.583  22.2250  0.00  0.00     0.000 OA
ATOM     46   O  BDP B   3      14.442  17.050  23.5480  0.00  0.00     0.000 OA
ENDBRANCH 38 44
BRANCH 34 47
ATOM     47  O3  NAG B   4      18.576  19.453  22.6610  0.00  0.00     0.000 O
BRANCH 47 50
ATOM     48  C1  NAG B   4      19.208  19.516  18.9540  0.00  0.00     0.000 C
ATOM     49  C2  NAG B   4      19.525  19.304  20.4240  0.00  0.00     0.000 C
ATOM     50  C3  NAG B   4      18.278  19.583  21.2560  0.00  0.00     0.000 C
ATOM     51  C4  NAG B   4      17.722  20.971  20.9820  0.00  0.00     0.000 C
ATOM     52  C5  NAG B   4      17.490  21.151  19.4810  0.00  0.00     0.000 C
ATOM     53  O5  NAG B   4      18.684  20.842  18.7500  0.00  0.00     0.000 O
ATOM     54   O  NAG B   4      16.500  21.135  21.7050  0.00  0.00     0.000 O
ATOM     56  HD  NAG B   4      16.811  21.884  21.4030  0.00  0.00     0.000 HD
ATOM     56   C  NAG B   4      17.051  22.573  19.1550  0.00  0.00     0.000 C
ATOM     57   O  NAG B   4      18.073  23.486  19.5760  0.00  0.00     0.000 O
ATOM     59  HD  NAG B   4      18.385  24.236  19.2740  0.00  0.00     0.000 HD
BRANCH 49 61
ATOM     59   N  NAG B   4      20.156  17.984  20.4480  0.00  0.00     0.000 N
ATOM     61  HD  NAG B   4      20.387  18.813  20.3500  0.00  0.00     0.000 HD
ATOM     61   O  NAG B   4      21.958  18.566  21.6790  0.00  0.00     0.000 OA
ATOM     62   C  NAG B   4      21.275  17.714  21.1310  0.00  0.00     0.000 C
ATOM     63   C  NAG B   4      21.650  16.268  21.2130  0.00  0.00     0.000 C
ENDBRANCH 49 61
BRANCH 48 64
ATOM     64  O4  BDP B   5      19.725  18.940  17.7580  0.00  0.00     0.000 O
BRANCH 64 68
ATOM     65  C1  BDP B   5      20.158  17.275  13.9610  0.00  0.00     0.000 C
ATOM     66  C2  BDP B   5      18.830  17.967  14.2390  0.00  0.00     0.000 C
ATOM     67  C3  BDP B   5      18.969  18.875  15.4540  0.00  0.00     0.000 C
ATOM     68  C4  BDP B   5      19.469  18.075  16.6520  0.00  0.00     0.000 C
ATOM     69  C5  BDP B   5      20.742  17.301  16.3350  0.00  0.00     0.000 C
ATOM     70  O5  BDP B   5      20.586  16.545  15.1220  0.00  0.00     0.000 O
ATOM     71   O  BDP B   5      18.415  18.698  13.0740  0.00  0.00     0.000 O
ATOM     73  HD  BDP B   5      18.223  19.138  12.3530  0.00  0.00     0.000 HD
ATOM     73   O  BDP B   5      17.711  19.477  15.7790  0.00  0.00     0.000 O
ATOM     75  HD  BDP B   5      17.518  19.916  15.0580  0.00  0.00     0.000 HD
BRANCH 69 75
ATOM     75   C  BDP B   5      21.022  16.362  17.4810  0.00  0.00     0.000 C
ATOM     76   O  BDP B   5      22.206  16.056  17.7300  0.00  0.00     0.000 OA
ATOM     77   O  BDP B   5      20.068  15.923  18.1480  0.00  0.00     0.000 OA
ENDBRANCH 69 75
BRANCH 65 78
ATOM     78  O3  NAG B   6      20.336  15.988  13.3650  0.00  0.00     0.000 O
BRANCH 78 81
ATOM     79  C1  NAG B   6      21.818  14.550  10.1910  0.00  0.00     0.000 C
ATOM     80  C2  NAG B   6      20.780  15.244  11.0870  0.00  0.00     0.000 C
ATOM     81  C3  NAG B   6      21.354  15.478  12.4750  0.00  0.00     0.000 C
ATOM     82  C4  NAG B   6      21.947  14.185  13.0450  0.00  0.00     0.000 C
ATOM     83  C5  NAG B   6      22.965  13.619  12.0630  0.00  0.00     0.000 C
ATOM     84  O5  NAG B   6      22.281  13.351  10.8380  0.00  0.00     0.000 O
BRANCH 80 87
ATOM     85   N  NAG B   6      20.343  16.418  10.3370  0.00  0.00     0.000 N
ATOM     87  HD  NAG B   6      19.859  16.768   9.7110  0.00  0.00     0.000 HD
ATOM     87   C  NAG B   6      19.093  16.898  10.3590  0.00  0.00     0.000 C
ATOM     88   C  NAG B   6      18.858  18.133   9.5480  0.00  0.00     0.000 C
ATOM     89   O  NAG B   6      18.190  16.383  11.0070  0.00  0.00     0.000 OA
ENDBRANCH 80 87
ATOM     90   O  NAG B   6      25.022  12.598  12.8210  0.00  0.00     0.000 O
ATOM     92  HD  NAG B   6      24.634  13.043  12.1870  0.00  0.00     0.000 HD
ATOM     92   O  NAG B   6      25.022  12.598  12.8210  0.00  0.00     0.000 O
ATOM     94  HD  NAG B   6      24.634  13.043  12.1870  0.00  0.00     0.000 HD
ENDBRANCH 78 81
ENDBRANCH 65 78
ENDBRANCH 64 68
ENDBRANCH 48 64
ENDBRANCH 47 50
ENDBRANCH 34 47
ENDBRANCH 33 37
ENDBRANCH 17 33
ENDBRANCH 16 19
ENDBRANCH 1 16
TORSDOF 16
ENDMDL
MODEL 62
REMARK VINA RESULT:      -5.4     14.621     22.212
ROOT
ATOM      1  C1  BDP B   1       6.407  16.059  26.7920  0.00  0.00     0.000 C
ATOM      2  C2  BDP B   1       6.383  14.541  26.7740  0.00  0.00     0.000 C
ATOM      3  C3  BDP B   1       5.244  13.979  27.5980  0.00  0.00     0.000 C
ATOM      4  C4  BDP B   1       4.179  15.005  27.9670  0.00  0.00     0.000 C
ATOM      5  C5  BDP B   1       4.771  16.308  28.4950  0.00  0.00     0.000 C
ATOM      6  O5  BDP B   1       6.153  16.462  28.1300  0.00  0.00     0.000 O
ATOM      7   O  BDP B   1       6.278  14.071  25.4260  0.00  0.00     0.000 O
ATOM      9  HD  BDP B   1       6.507  14.102  24.5910  0.00  0.00     0.000 HD
ATOM      9   O  BDP B   1       5.752  13.421  28.8200  0.00  0.00     0.000 O
ATOM     11  HD  BDP B   1       5.981  13.451  27.9850  0.00  0.00     0.000 HD
ATOM     11   O  BDP B   1       3.338  15.279  26.8400  0.00  0.00     0.000 O
ATOM     13  HD  BDP B   1       3.566  15.309  26.0050  0.00  0.00     0.000 HD
ENDROOT
BRANCH 5 13
ATOM     13   C  BDP B   1       4.644  16.281  29.9780  0.00  0.00     0.000 C
ATOM     14   O  BDP B   1       5.105  17.242  30.6270  0.00  0.00     0.000 OA
ATOM     15   O  BDP B   1       4.061  15.318  30.5210  0.00  0.00     0.000 OA
ENDBRANCH 5 13
BRANCH 1 16
ATOM     16  O3  NAG B   2       6.328  17.000  25.7230  0.00  0.00     0.000 O
BRANCH 16 19
ATOM     17  C1  NAG B   2       8.781  17.586  23.0970  0.00  0.00     0.000 C
ATOM     18  C2  NAG B   2       7.413  17.068  23.5430  0.00  0.00     0.000 C
ATOM     19  C3  NAG B   2       6.904  17.859  24.7390  0.00  0.00     0.000 C
ATOM     20  C4  NAG B   2       8.013  18.702  25.3740  0.00  0.00     0.000 C
ATOM     21  C5  NAG B   2       9.409  18.063  25.3570  0.00  0.00     0.000 C
ATOM     22  O5  NAG B   2       9.665  17.288  24.1800  0.00  0.00     0.000 O
ATOM     23   O  NAG B   2       8.053  19.972  24.7150  0.00  0.00     0.000 O
ATOM     25  HD  NAG B   2       7.929  19.644  23.9240  0.00  0.00     0.000 HD
ATOM     25   C  NAG B   2       9.609  17.167  26.5870  0.00  0.00     0.000 C
ATOM     26   O  NAG B   2      10.054  17.918  27.7250  0.00  0.00     0.000 O
ATOM     28  HD  NAG B   2       9.930  17.590  26.9340  0.00  0.00     0.000 HD
BRANCH 18 30
ATOM     28   N  NAG B   2       6.750  17.041  22.2400  0.00  0.00     0.000 N
ATOM     30  HD  NAG B   2       6.911  16.957  21.3930  0.00  0.00     0.000 HD
ATOM     30   C  NAG B   2       6.167  18.096  21.6530  0.00  0.00     0.000 C
ATOM     31   C  NAG B   2       5.542  17.811  20.3170  0.00  0.00     0.000 C
ATOM     32   O  NAG B   2       6.140  19.201  22.1440  0.00  0.00     0.000 OA
ENDBRANCH 18 30
BRANCH 17 33
ATOM     33  O4  BDP B   3      10.051  17.427  22.4280  0.00  0.00     0.000 O
BRANCH 33 37
ATOM     34  C1  BDP B   3      12.575  19.618  19.7690  0.00  0.00     0.000 C
ATOM     35  C2  BDP B   3      11.198  19.219  19.2520  0.00  0.00     0.000 C
ATOM     36  C3  BDP B   3      10.220  18.832  20.3560  0.00  0.00     0.000 C
ATOM     37  C4  BDP B   3      10.915  17.889  21.3490  0.00  0.00     0.000 C
ATOM     38  C5  BDP B   3      12.172  18.616  21.8670  0.00  0.00     0.000 C
ATOM     39  O5  BDP B   3      13.059  18.694  20.7510  0.00  0.00     0.000 O
ATOM     40   O  BDP B   3      10.728  20.322  18.4750  0.00  0.00     0.000 O
ATOM     42  HD  BDP B   3      11.248  19.937  17.8990  0.00  0.00     0.000 HD
ATOM     42   O  BDP B   3       9.109  18.205  19.7180  0.00  0.00     0.000 O
ATOM     44  HD  BDP B   3       9.629  17.821  19.1420  0.00  0.00     0.000 HD
BRANCH 38 44
ATOM     44   C  BDP B   3      12.855  17.933  23.0100  0.00  0.00     0.000 C
ATOM     45   O  BDP B   3      12.755  18.450  24.1450  0.00  0.00     0.000 OA
ATOM     46   O  BDP B   3      13.498  16.880  22.8070  0.00  0.00     0.000 OA
ENDBRANCH 38 44
BRANCH 34 47
ATOM     47  O3  NAG B   4      13.620  19.161  18.9120  0.00  0.00     0.000 O
BRANCH 47 50
ATOM     48  C1  NAG B   4      16.243  21.525  17.6180  0.00  0.00     0.000 C
ATOM     49  C2  NAG B   4      14.880  20.862  17.7100  0.00  0.00     0.000 C
ATOM     50  C3  NAG B   4      14.885  19.851  18.8510  0.00  0.00     0.000 C
ATOM     51  C4  NAG B   4      16.008  18.838  18.6970  0.00  0.00     0.000 C
ATOM     52  C5  NAG B   4      17.344  19.565  18.5390  0.00  0.00     0.000 C
ATOM     53  O5  NAG B   4      17.269  20.523  17.4760  0.00  0.00     0.000 O
ATOM     54   O  NAG B   4      16.029  17.988  19.8470  0.00  0.00     0.000 O
ATOM     56  HD  NAG B   4      16.506  17.678  19.1930  0.00  0.00     0.000 HD
ATOM     56   C  NAG B   4      18.477  18.585  18.2570  0.00  0.00     0.000 C
ATOM     57   O  NAG B   4      18.192  17.876  17.0450  0.00  0.00     0.000 O
ATOM     59  HD  NAG B   4      18.668  17.566  16.3910  0.00  0.00     0.000 HD
BRANCH 49 61
ATOM     59   N  NAG B   4      14.020  22.043  17.6330  0.00  0.00     0.000 N
ATOM     61  HD  NAG B   4      14.372  21.460  17.0990  0.00  0.00     0.000 HD
ATOM     61   O  NAG B   4      12.564  21.220  16.1140  0.00  0.00     0.000 OA
ATOM     62   C  NAG B   4      12.900  22.093  16.9010  0.00  0.00     0.000 C
ATOM     63   C  NAG B   4      12.042  23.299  17.1150  0.00  0.00     0.000 C
ENDBRANCH 49 61
BRANCH 48 64
ATOM     64  O4  BDP B   5      16.668  22.812  17.1790  0.00  0.00     0.000 O
BRANCH 64 68
ATOM     65  C1  BDP B   5      15.748  24.635  13.5450  0.00  0.00     0.000 C
ATOM     66  C2  BDP B   5      17.062  23.867  13.5920  0.00  0.00     0.000 C
ATOM     67  C3  BDP B   5      17.061  22.923  14.7880  0.00  0.00     0.000 C
ATOM     68  C4  BDP B   5      16.798  23.703  16.0710  0.00  0.00     0.000 C
ATOM     69  C5  BDP B   5      15.536  24.551  15.9800  0.00  0.00     0.000 C
ATOM     70  O5  BDP B   5      15.545  25.343  14.7780  0.00  0.00     0.000 O
ATOM     71   O  BDP B   5      17.251  23.159  12.3570  0.00  0.00     0.000 O
ATOM     73  HD  BDP B   5      17.306  22.737  11.6030  0.00  0.00     0.000 HD
ATOM     73   O  BDP B   5      18.320  22.247  14.8960  0.00  0.00     0.000 O
ATOM     75  HD  BDP B   5      18.374  21.826  14.1410  0.00  0.00     0.000 HD
BRANCH 69 75
ATOM     75   C  BDP B   5      15.489  25.461  17.1810  0.00  0.00     0.000 C
ATOM     76   O  BDP B   5      16.365  26.341  17.3020  0.00  0.00     0.000 OA
ATOM     77   O  BDP B   5      14.576  25.311  18.0150  0.00  0.00     0.000 OA
ENDBRANCH 69 75
BRANCH 65 78
ATOM     78  O3  NAG B   6      15.552  25.951  13.0210  0.00  0.00     0.000 O
BRANCH 78 81
ATOM     79  C1  NAG B   6      13.777  28.309  10.6490  0.00  0.00     0.000 C
ATOM     80  C2  NAG B   6      14.959  27.576  11.3050  0.00  0.00     0.000 C
ATOM     81  C3  NAG B   6      14.452  26.536  12.2900  0.00  0.00     0.000 C
ATOM     82  C4  NAG B   6      13.445  27.153  13.2660  0.00  0.00     0.000 C
ATOM     83  C5  NAG B   6      12.328  27.831  12.4810  0.00  0.00     0.000 C
ATOM     84  O5  NAG B   6      12.923  28.848  11.6740  0.00  0.00     0.000 O
BRANCH 80 87
ATOM     85   N  NAG B   6      16.132  26.735  11.0840  0.00  0.00     0.000 N
ATOM     87  HD  NAG B   6      16.604  26.232  10.5600  0.00  0.00     0.000 HD
ATOM     87   C  NAG B   6      17.121  27.038  10.2340  0.00  0.00     0.000 C
ATOM     88   C  NAG B   6      18.251  26.060  10.1790  0.00  0.00     0.000 C
ATOM     89   O  NAG B   6      17.126  28.054   9.5490  0.00  0.00     0.000 OA
ENDBRANCH 80 87
ATOM     90   O  NAG B   6      10.026  27.731  13.2150  0.00  0.00     0.000 O
ATOM     92  HD  NAG B   6      10.560  27.786  12.5350  0.00  0.00     0.000 HD
ATOM     92   O  NAG B   6      10.026  27.731  13.2150  0.00  0.00     0.000 O
ATOM     94  HD  NAG B   6      10.560  27.786  12.5350  0.00  0.00     0.000 HD
ENDBRANCH 78 81
ENDBRANCH 65 78
ENDBRANCH 64 68
ENDBRANCH 48 64
ENDBRANCH 47 50
ENDBRANCH 34 47
ENDBRANCH 33 37
ENDBRANCH 17 33
ENDBRANCH 16 19
ENDBRANCH 1 16
TORSDOF 16
ENDMDL
MODEL 63
REMARK VINA RESULT:      -5.3      6.073     16.617
ROOT
ATOM      1  C1  BDP B   1      15.456   9.952  32.4220  0.00  0.00     0.000 C
ATOM      2  C2  BDP B   1      14.467   8.839  32.7190  0.00  0.00     0.000 C
ATOM      3  C3  BDP B   1      13.036   9.334  32.7170  0.00  0.00     0.000 C
ATOM      4  C4  BDP B   1      12.855  10.710  32.0860  0.00  0.00     0.000 C
ATOM      5  C5  BDP B   1      13.884  11.724  32.5760  0.00  0.00     0.000 C
ATOM      6  O5  BDP B   1      15.035  11.090  33.1590  0.00  0.00     0.000 O
ATOM      7   O  BDP B   1      14.613   7.788  31.7580  0.00  0.00     0.000 O
ATOM      9  HD  BDP B   1      15.105   7.257  31.2830  0.00  0.00     0.000 HD
ATOM      9   O  BDP B   1      12.540   9.403  34.0630  0.00  0.00     0.000 O
ATOM     11  HD  BDP B   1      13.031   8.872  33.5870  0.00  0.00     0.000 HD
ATOM     11   O  BDP B   1      12.911  10.615  30.6570  0.00  0.00     0.000 O
ATOM     13  HD  BDP B   1      13.403  10.084  30.1820  0.00  0.00     0.000 HD
ENDROOT
BRANCH 5 13
ATOM     13   C  BDP B   1      13.211  12.578  33.5930  0.00  0.00     0.000 C
ATOM     14   O  BDP B   1      13.236  12.205  34.7850  0.00  0.00     0.000 OA
ATOM     15   O  BDP B   1      12.670  13.644  33.2300  0.00  0.00     0.000 OA
ENDBRANCH 5 13
BRANCH 1 16
ATOM     16  O3  NAG B   2      16.424  10.079  31.3810  0.00  0.00     0.000 O
BRANCH 16 19
ATOM     17  C1  NAG B   2      18.785  10.220  28.6140  0.00  0.00     0.000 C
ATOM     18  C2  NAG B   2      17.346  10.204  29.1300  0.00  0.00     0.000 C
ATOM     19  C3  NAG B   2      17.266  10.837  30.5110  0.00  0.00     0.000 C
ATOM     20  C4  NAG B   2      18.651  10.997  31.1430  0.00  0.00     0.000 C
ATOM     21  C5  NAG B   2      19.649   9.877  30.8200  0.00  0.00     0.000 C
ATOM     22  O5  NAG B   2      19.508   9.355  29.4930  0.00  0.00     0.000 O
ATOM     23   O  NAG B   2      19.191  12.259  30.7390  0.00  0.00     0.000 O
ATOM     25  HD  NAG B   2      18.909  12.198  29.9230  0.00  0.00     0.000 HD
ATOM     25   C  NAG B   2      19.506   8.720  31.8190  0.00  0.00     0.000 C
ATOM     26   O  NAG B   2      20.271   8.949  33.0100  0.00  0.00     0.000 O
ATOM     28  HD  NAG B   2      19.988   8.888  32.1940  0.00  0.00     0.000 HD
BRANCH 18 30
ATOM     28   N  NAG B   2      16.961  11.587  28.8490  0.00  0.00     0.000 N
ATOM     30  HD  NAG B   2      16.343  12.171  29.0150  0.00  0.00     0.000 HD
ATOM     30   C  NAG B   2      16.567  12.047  27.6530  0.00  0.00     0.000 C
ATOM     31   C  NAG B   2      16.234  13.511  27.6180  0.00  0.00     0.000 C
ATOM     32   O  NAG B   2      16.475  11.350  26.6690  0.00  0.00     0.000 OA
ENDBRANCH 18 30
BRANCH 17 33
ATOM     33  O4  BDP B   3      19.843   9.725  27.7650  0.00  0.00     0.000 O
BRANCH 33 37
ATOM     34  C1  BDP B   3      21.208  10.691  23.8350  0.00  0.00     0.000 C
ATOM     35  C2  BDP B   3      20.135   9.615  23.9550  0.00  0.00     0.000 C
ATOM     36  C3  BDP B   3      19.409   9.624  25.2950  0.00  0.00     0.000 C
ATOM     37  C4  BDP B   3      20.434   9.746  26.4330  0.00  0.00     0.000 C
ATOM     38  C5  BDP B   3      21.259  11.021  26.1700  0.00  0.00     0.000 C
ATOM     39  O5  BDP B   3      22.034  10.746  25.0040  0.00  0.00     0.000 O
ATOM     40   O  BDP B   3      19.244   9.815  22.8560  0.00  0.00     0.000 O
ATOM     42  HD  BDP B   3      19.881   9.381  22.4610  0.00  0.00     0.000 HD
ATOM     42   O  BDP B   3      18.674   8.404  25.3720  0.00  0.00     0.000 O
ATOM     44  HD  BDP B   3      19.311   7.970  24.9770  0.00  0.00     0.000 HD
BRANCH 38 44
ATOM     44   C  BDP B   3      22.162  11.417  27.2970  0.00  0.00     0.000 C
ATOM     45   O  BDP B   3      21.950  12.514  27.8590  0.00  0.00     0.000 OA
ATOM     46   O  BDP B   3      23.090  10.654  27.6420  0.00  0.00     0.000 OA
ENDBRANCH 38 44
BRANCH 34 47
ATOM     47  O3  NAG B   4      22.352  10.226  23.1220  0.00  0.00     0.000 O
BRANCH 47 50
ATOM     48  C1  NAG B   4      23.758  12.578  20.5450  0.00  0.00     0.000 C
ATOM     49  C2  NAG B   4      22.736  11.660  21.1920  0.00  0.00     0.000 C
ATOM     50  C3  NAG B   4      23.281  11.152  22.5220  0.00  0.00     0.000 C
ATOM     51  C4  NAG B   4      24.633  10.478  22.3520  0.00  0.00     0.000 C
ATOM     52  C5  NAG B   4      25.597  11.422  21.6340  0.00  0.00     0.000 C
ATOM     53  O5  NAG B   4      25.018  11.892  20.4100  0.00  0.00     0.000 O
ATOM     54   O  NAG B   4      25.141  10.121  23.6400  0.00  0.00     0.000 O
ATOM     56  HD  NAG B   4      25.570   9.736  22.9940  0.00  0.00     0.000 HD
ATOM     56   C  NAG B   4      26.924  10.735  21.3340  0.00  0.00     0.000 C
ATOM     57   O  NAG B   4      26.683   9.597  20.4960  0.00  0.00     0.000 O
ATOM     59  HD  NAG B   4      27.112   9.212  19.8500  0.00  0.00     0.000 HD
BRANCH 49 61
ATOM     59   N  NAG B   4      22.439  10.757  20.0800  0.00  0.00     0.000 N
ATOM     61  HD  NAG B   4      22.165  10.904  20.8880  0.00  0.00     0.000 HD
ATOM     61   O  NAG B   4      20.189  10.824  20.2670  0.00  0.00     0.000 OA
ATOM     62   C  NAG B   4      21.197  10.476  19.6690  0.00  0.00     0.000 C
ATOM     63   C  NAG B   4      21.097   9.708  18.3890  0.00  0.00     0.000 C
ENDBRANCH 49 61
BRANCH 48 64
ATOM     64  O4  BDP B   5      23.642  13.691  19.6640  0.00  0.00     0.000 O
BRANCH 64 68
ATOM     65  C1  BDP B   5      22.376  16.402  16.7620  0.00  0.00     0.000 C
ATOM     66  C2  BDP B   5      21.344  15.376  17.2120  0.00  0.00     0.000 C
ATOM     67  C3  BDP B   5      21.779  14.758  18.5340  0.00  0.00     0.000 C
ATOM     68  C4  BDP B   5      23.174  14.158  18.4000  0.00  0.00     0.000 C
ATOM     69  C5  BDP B   5      24.180  15.160  17.8490  0.00  0.00     0.000 C
ATOM     70  O5  BDP B   5      23.670  15.788  16.6600  0.00  0.00     0.000 O
ATOM     71   O  BDP B   5      20.056  16.002  17.3170  0.00  0.00     0.000 O
ATOM     73  HD  BDP B   5      19.308  16.433  17.3830  0.00  0.00     0.000 HD
ATOM     73   O  BDP B   5      20.861  13.734  18.9370  0.00  0.00     0.000 O
ATOM     75  HD  BDP B   5      20.113  14.165  19.0030  0.00  0.00     0.000 HD
BRANCH 69 75
ATOM     75   C  BDP B   5      25.454  14.423  17.5230  0.00  0.00     0.000 C
ATOM     76   O  BDP B   5      26.453  14.602  18.2480  0.00  0.00     0.000 OA
ATOM     77   O  BDP B   5      25.472  13.654  16.5440  0.00  0.00     0.000 OA
ENDBRANCH 69 75
BRANCH 65 78
ATOM     78  O3  NAG B   6      22.688  16.757  15.4120  0.00  0.00     0.000 O
BRANCH 78 81
ATOM     79  C1  NAG B   6      23.290  19.345  12.7150  0.00  0.00     0.000 C
ATOM     80  C2  NAG B   6      22.682  18.099  13.3790  0.00  0.00     0.000 C
ATOM     81  C3  NAG B   6      23.129  18.002  14.8280  0.00  0.00     0.000 C
ATOM     82  C4  NAG B   6      24.653  18.120  14.9380  0.00  0.00     0.000 C
ATOM     83  C5  NAG B   6      25.112  19.402  14.2530  0.00  0.00     0.000 C
ATOM     84  O5  NAG B   6      24.720  19.324  12.8820  0.00  0.00     0.000 O
BRANCH 80 87
ATOM     85   N  NAG B   6      21.287  17.813  13.7000  0.00  0.00     0.000 N
ATOM     87  HD  NAG B   6      20.443  17.917  13.5320  0.00  0.00     0.000 HD
ATOM     87   C  NAG B   6      20.459  17.127  12.9010  0.00  0.00     0.000 C
ATOM     88   C  NAG B   6      19.077  16.912  13.4300  0.00  0.00     0.000 C
ATOM     89   O  NAG B   6      20.799  16.683  11.8110  0.00  0.00     0.000 OA
ENDBRANCH 80 87
ATOM     90   O  NAG B   6      26.891  20.760  15.1700  0.00  0.00     0.000 O
ATOM     92  HD  NAG B   6      26.159  20.755  14.7080  0.00  0.00     0.000 HD
ATOM     92   O  NAG B   6      26.891  20.760  15.1700  0.00  0.00     0.000 O
ATOM     94  HD  NAG B   6      26.159  20.755  14.7080  0.00  0.00     0.000 HD
ENDBRANCH 78 81
ENDBRANCH 65 78
ENDBRANCH 64 68
ENDBRANCH 48 64
ENDBRANCH 47 50
ENDBRANCH 34 47
ENDBRANCH 33 37
ENDBRANCH 17 33
ENDBRANCH 16 19
ENDBRANCH 1 16
TORSDOF 16
ENDMDL
MODEL 64
REMARK VINA RESULT:      -5.3     16.955     23.930
ROOT
ATOM      1  C1  BDP B   1      16.799   2.399  44.4900  0.00  0.00     0.000 C
ATOM      2  C2  BDP B   1      16.765   1.380  43.3650  0.00  0.00     0.000 C
ATOM      3  C3  BDP B   1      18.153   0.951  42.9420  0.00  0.00     0.000 C
ATOM      4  C4  BDP B   1      19.250   1.333  43.9310  0.00  0.00     0.000 C
ATOM      5  C5  BDP B   1      19.141   2.780  44.4020  0.00  0.00     0.000 C
ATOM      6  O5  BDP B   1      17.830   3.325  44.1790  0.00  0.00     0.000 O
ATOM      7   O  BDP B   1      16.009   0.234  43.7690  0.00  0.00     0.000 O
ATOM      9  HD  BDP B   1      15.318  -0.125  44.1490  0.00  0.00     0.000 HD
ATOM      9   O  BDP B   1      18.485   1.539  41.6750  0.00  0.00     0.000 O
ATOM     11  HD  BDP B   1      17.794   1.180  42.0540  0.00  0.00     0.000 HD
ATOM     11   O  BDP B   1      19.231   0.453  45.0620  0.00  0.00     0.000 O
ATOM     13  HD  BDP B   1      18.541   0.094  45.4410  0.00  0.00     0.000 HD
ENDROOT
BRANCH 5 13
ATOM     13   C  BDP B   1      20.149   3.568  43.6410  0.00  0.00     0.000 C
ATOM     14   O  BDP B   1      19.853   3.949  42.4900  0.00  0.00     0.000 OA
ATOM     15   O  BDP B   1      21.241   3.843  44.1830  0.00  0.00     0.000 OA
ENDBRANCH 5 13
BRANCH 1 16
ATOM     16  O3  NAG B   2      16.233   2.355  45.7980  0.00  0.00     0.000 O
BRANCH 16 19
ATOM     17  C1  NAG B   2      12.927   3.661  46.5850  0.00  0.00     0.000 C
ATOM     18  C2  NAG B   2      13.816   2.542  46.0420  0.00  0.00     0.000 C
ATOM     19  C3  NAG B   2      15.172   2.553  46.7330  0.00  0.00     0.000 C
ATOM     20  C4  NAG B   2      15.402   3.852  47.5100  0.00  0.00     0.000 C
ATOM     21  C5  NAG B   2      14.810   5.112  46.8630  0.00  0.00     0.000 C
ATOM     22  O5  NAG B   2      13.569   4.875  46.1880  0.00  0.00     0.000 O
ATOM     23   O  NAG B   2      14.875   3.692  48.8310  0.00  0.00     0.000 O
ATOM     25  HD  NAG B   2      14.167   3.266  48.5720  0.00  0.00     0.000 HD
ATOM     25   C  NAG B   2      15.802   5.724  45.8630  0.00  0.00     0.000 C
ATOM     26   O  NAG B   2      16.740   6.594  46.5110  0.00  0.00     0.000 O
ATOM     28  HD  NAG B   2      16.032   6.168  46.2530  0.00  0.00     0.000 HD
BRANCH 18 30
ATOM     28   N  NAG B   2      13.358   1.839  47.2400  0.00  0.00     0.000 N
ATOM     30  HD  NAG B   2      13.646   1.369  47.9080  0.00  0.00     0.000 HD
ATOM     30   C  NAG B   2      12.622   0.718  47.2380  0.00  0.00     0.000 C
ATOM     31   C  NAG B   2      12.268   0.193  48.6000  0.00  0.00     0.000 C
ATOM     32   O  NAG B   2      12.267   0.156  46.2280  0.00  0.00     0.000 OA
ENDBRANCH 18 30
BRANCH 17 33
ATOM     33  O4  BDP B   3      11.817   4.579  46.4720  0.00  0.00     0.000 O
BRANCH 33 37
ATOM     34  C1  BDP B   3       8.703   6.321  48.8200  0.00  0.00     0.000 C
ATOM     35  C2  BDP B   3       8.815   4.801  48.8270  0.00  0.00     0.000 C
ATOM     36  C3  BDP B   3      10.162   4.285  48.3350  0.00  0.00     0.000 C
ATOM     37  C4  BDP B   3      10.556   5.027  47.0490  0.00  0.00     0.000 C
ATOM     38  C5  BDP B   3      10.555   6.534  47.3730  0.00  0.00     0.000 C
ATOM     39  O5  BDP B   3       9.188   6.880  47.5930  0.00  0.00     0.000 O
ATOM     40   O  BDP B   3       8.532   4.386  50.1660  0.00  0.00     0.000 O
ATOM     42  HD  BDP B   3       7.728   4.500  49.8660  0.00  0.00     0.000 HD
ATOM     42   O  BDP B   3      10.008   2.884  48.1130  0.00  0.00     0.000 O
ATOM     44  HD  BDP B   3       9.203   2.998  47.8140  0.00  0.00     0.000 HD
BRANCH 38 44
ATOM     44   C  BDP B   3      11.129   7.399  46.2940  0.00  0.00     0.000 C
ATOM     45   O  BDP B   3      12.242   7.930  46.5010  0.00  0.00     0.000 OA
ATOM     46   O  BDP B   3      10.492   7.566  45.2310  0.00  0.00     0.000 OA
ENDBRANCH 38 44
BRANCH 34 47
ATOM     47  O3  NAG B   4       7.402   6.759  48.4350  0.00  0.00     0.000 O
BRANCH 47 50
ATOM     48  C1  NAG B   4       5.539   8.970  50.8420  0.00  0.00     0.000 C
ATOM     49  C2  NAG B   4       6.188   7.697  50.3260  0.00  0.00     0.000 C
ATOM     50  C3  NAG B   4       6.837   7.972  48.9740  0.00  0.00     0.000 C
ATOM     51  C4  NAG B   4       5.842   8.553  47.9830  0.00  0.00     0.000 C
ATOM     52  C5  NAG B   4       5.171   9.788  48.5840  0.00  0.00     0.000 C
ATOM     53  O5  NAG B   4       4.609   9.478  49.8660  0.00  0.00     0.000 O
ATOM     54   O  NAG B   4       6.529   8.889  46.7750  0.00  0.00     0.000 O
ATOM     56  HD  NAG B   4       5.668   8.885  46.6790  0.00  0.00     0.000 HD
ATOM     56   C  NAG B   4       4.076  10.324  47.6690  0.00  0.00     0.000 C
ATOM     57   O  NAG B   4       3.084   9.307  47.4800  0.00  0.00     0.000 O
ATOM     59  HD  NAG B   4       2.223   9.302  47.3840  0.00  0.00     0.000 HD
BRANCH 49 61
ATOM     59   N  NAG B   4       5.105   6.717  50.4030  0.00  0.00     0.000 N
ATOM     61  HD  NAG B   4       5.953   6.736  50.2290  0.00  0.00     0.000 HD
ATOM     61   O  NAG B   4       6.274   5.101  51.4630  0.00  0.00     0.000 OA
ATOM     62   C  NAG B   4       5.219   5.538  51.0260  0.00  0.00     0.000 C
ATOM     63   C  NAG B   4       3.949   4.765  51.1870  0.00  0.00     0.000 C
ENDBRANCH 49 61
BRANCH 48 64
ATOM     64  O4  BDP B   5       5.286   9.466  52.1530  0.00  0.00     0.000 O
BRANCH 64 68
ATOM     65  C1  BDP B   5       4.726   7.076  55.5210  0.00  0.00     0.000 C
ATOM     66  C2  BDP B   5       3.580   8.015  55.1730  0.00  0.00     0.000 C
ATOM     67  C3  BDP B   5       3.725   8.488  53.7320  0.00  0.00     0.000 C
ATOM     68  C4  BDP B   5       5.090   9.136  53.5270  0.00  0.00     0.000 C
ATOM     69  C5  BDP B   5       6.229   8.231  53.9770  0.00  0.00     0.000 C
ATOM     70  O5  BDP B   5       5.986   7.732  55.3040  0.00  0.00     0.000 O
ATOM     71   O  BDP B   5       2.327   7.348  55.3880  0.00  0.00     0.000 O
ATOM     73  HD  BDP B   5       1.601   6.893  55.5160  0.00  0.00     0.000 HD
ATOM     73   O  BDP B   5       2.700   9.434  53.4070  0.00  0.00     0.000 O
ATOM     75  HD  BDP B   5       1.974   8.979  53.5350  0.00  0.00     0.000 HD
BRANCH 69 75
ATOM     75   C  BDP B   5       7.505   9.034  53.9680  0.00  0.00     0.000 C
ATOM     76   O  BDP B   5       8.460   8.635  53.2720  0.00  0.00     0.000 OA
ATOM     77   O  BDP B   5       7.568  10.074  54.6500  0.00  0.00     0.000 OA
ENDBRANCH 69 75
BRANCH 65 78
ATOM     78  O3  NAG B   6       5.306   6.887  56.8150  0.00  0.00     0.000 O
BRANCH 78 81
ATOM     79  C1  NAG B   6       5.758   4.143  59.3840  0.00  0.00     0.000 C
ATOM     80  C2  NAG B   6       5.049   5.275  58.6240  0.00  0.00     0.000 C
ATOM     81  C3  NAG B   6       5.891   5.725  57.4410  0.00  0.00     0.000 C
ATOM     82  C4  NAG B   6       7.326   6.033  57.8790  0.00  0.00     0.000 C
ATOM     83  C5  NAG B   6       7.906   4.823  58.6040  0.00  0.00     0.000 C
ATOM     84  O5  NAG B   6       7.084   4.568  59.7440  0.00  0.00     0.000 O
BRANCH 80 87
ATOM     85   N  NAG B   6       3.762   5.915  58.8870  0.00  0.00     0.000 N
ATOM     87  HD  NAG B   6       3.086   6.378  58.6090  0.00  0.00     0.000 HD
ATOM     87   C  NAG B   6       2.608   5.532  58.3290  0.00  0.00     0.000 C
ATOM     88   C  NAG B   6       1.395   6.296  58.7580  0.00  0.00     0.000 C
ATOM     89   O  NAG B   6       2.526   4.609  57.5280  0.00  0.00     0.000 OA
ENDBRANCH 80 87
ATOM     90   O  NAG B   6      10.211   4.155  58.3060  0.00  0.00     0.000 O
ATOM     92  HD  NAG B   6       9.404   3.890  58.4740  0.00  0.00     0.000 HD
ATOM     92   O  NAG B   6      10.211   4.155  58.3060  0.00  0.00     0.000 O
ATOM     94  HD  NAG B   6       9.404   3.890  58.4740  0.00  0.00     0.000 HD
ENDBRANCH 78 81
ENDBRANCH 65 78
ENDBRANCH 64 68
ENDBRANCH 48 64
ENDBRANCH 47 50
ENDBRANCH 34 47
ENDBRANCH 33 37
ENDBRANCH 17 33
ENDBRANCH 16 19
ENDBRANCH 1 16
TORSDOF 16
ENDMDL
MODEL 65
REMARK VINA RESULT:      -5.2      8.943     16.589
ROOT
ATOM      1  C1  BDP B   1      15.743   8.543  32.9990  0.00  0.00     0.000 C
ATOM      2  C2  BDP B   1      16.115   9.746  32.1500  0.00  0.00     0.000 C
ATOM      3  C3  BDP B   1      14.981  10.179  31.2460  0.00  0.00     0.000 C
ATOM      4  C4  BDP B   1      13.629   9.576  31.6130  0.00  0.00     0.000 C
ATOM      5  C5  BDP B   1      13.704   8.075  31.8760  0.00  0.00     0.000 C
ATOM      6  O5  BDP B   1      15.046   7.640  32.1540  0.00  0.00     0.000 O
ATOM      7   O  BDP B   1      16.499  10.837  32.9940  0.00  0.00     0.000 O
ATOM      9  HD  BDP B   1      16.927  11.155  33.6770  0.00  0.00     0.000 HD
ATOM      9   O  BDP B   1      15.269   9.809  29.8880  0.00  0.00     0.000 O
ATOM     11  HD  BDP B   1      15.696  10.127  30.5710  0.00  0.00     0.000 HD
ATOM     11   O  BDP B   1      13.080  10.240  32.7570  0.00  0.00     0.000 O
ATOM     13  HD  BDP B   1      13.508  10.559  33.4390  0.00  0.00     0.000 HD
ENDROOT
BRANCH 5 13
ATOM     13   C  BDP B   1      13.195   7.388  30.6570  0.00  0.00     0.000 C
ATOM     14   O  BDP B   1      13.331   7.962  29.5570  0.00  0.00     0.000 OA
ATOM     15   O  BDP B   1      12.677   6.256  30.7680  0.00  0.00     0.000 OA
ENDBRANCH 5 13
BRANCH 1 16
ATOM     16  O3  NAG B   2      15.715   8.381  34.4150  0.00  0.00     0.000 O
BRANCH 16 19
ATOM     17  C1  NAG B   2      15.452   7.876  38.0110  0.00  0.00     0.000 C
ATOM     18  C2  NAG B   2      15.541   7.306  36.5950  0.00  0.00     0.000 C
ATOM     19  C3  NAG B   2      16.337   8.238  35.6930  0.00  0.00     0.000 C
ATOM     20  C4  NAG B   2      16.531   9.617  36.3300  0.00  0.00     0.000 C
ATOM     21  C5  NAG B   2      15.349  10.116  37.1740  0.00  0.00     0.000 C
ATOM     22  O5  NAG B   2      14.677   9.071  37.8860  0.00  0.00     0.000 O
ATOM     23   O  NAG B   2      17.718   9.586  37.1290  0.00  0.00     0.000 O
ATOM     25  HD  NAG B   2      17.568   8.794  37.4470  0.00  0.00     0.000 HD
ATOM     25   C  NAG B   2      14.326  10.846  36.2940  0.00  0.00     0.000 C
ATOM     26   O  NAG B   2      14.673  12.226  36.1080  0.00  0.00     0.000 O
ATOM     28  HD  NAG B   2      14.523  11.434  36.4260  0.00  0.00     0.000 HD
BRANCH 18 30
ATOM     28   N  NAG B   2      15.951   5.948  36.9480  0.00  0.00     0.000 N
ATOM     30  HD  NAG B   2      15.909   5.367  37.5890  0.00  0.00     0.000 HD
ATOM     30   C  NAG B   2      17.216   5.561  37.1700  0.00  0.00     0.000 C
ATOM     31   C  NAG B   2      17.381   4.106  37.5080  0.00  0.00     0.000 C
ATOM     32   O  NAG B   2      18.162   6.311  37.1130  0.00  0.00     0.000 OA
ENDBRANCH 18 30
BRANCH 17 33
ATOM     33  O4  BDP B   3      14.826   7.979  39.3090  0.00  0.00     0.000 O
BRANCH 33 37
ATOM     34  C1  BDP B   3      13.874   6.810  43.3050  0.00  0.00     0.000 C
ATOM     35  C2  BDP B   3      14.722   8.065  43.1290  0.00  0.00     0.000 C
ATOM     36  C3  BDP B   3      14.664   8.649  41.7220  0.00  0.00     0.000 C
ATOM     37  C4  BDP B   3      14.828   7.520  40.6920  0.00  0.00     0.000 C
ATOM     38  C5  BDP B   3      13.727   6.480  40.9730  0.00  0.00     0.000 C
ATOM     39  O5  BDP B   3      14.067   5.887  42.2260  0.00  0.00     0.000 O
ATOM     40   O  BDP B   3      14.272   8.993  44.1190  0.00  0.00     0.000 O
ATOM     42  HD  BDP B   3      14.795   8.496  44.5980  0.00  0.00     0.000 HD
ATOM     42   O  BDP B   3      15.717   9.607  41.6320  0.00  0.00     0.000 O
ATOM     44  HD  BDP B   3      16.239   9.110  42.1120  0.00  0.00     0.000 HD
BRANCH 38 44
ATOM     44   C  BDP B   3      13.598   5.417  39.9280  0.00  0.00     0.000 C
ATOM     45   O  BDP B   3      12.452   5.143  39.5090  0.00  0.00     0.000 OA
ATOM     46   O  BDP B   3      14.623   4.837  39.5060  0.00  0.00     0.000 OA
ENDBRANCH 38 44
BRANCH 34 47
ATOM     47  O3  NAG B   4      14.506   5.855  44.1550  0.00  0.00     0.000 O
BRANCH 47 50
ATOM     48  C1  NAG B   4      12.093   4.062  46.4160  0.00  0.00     0.000 C
ATOM     49  C2  NAG B   4      12.812   5.246  45.7960  0.00  0.00     0.000 C
ATOM     50  C3  NAG B   4      13.762   4.751  44.7110  0.00  0.00     0.000 C
ATOM     51  C4  NAG B   4      14.729   3.707  45.2490  0.00  0.00     0.000 C
ATOM     52  C5  NAG B   4      13.951   2.577  45.9220  0.00  0.00     0.000 C
ATOM     53  O5  NAG B   4      13.053   3.105  46.9060  0.00  0.00     0.000 O
ATOM     54   O  NAG B   4      15.518   3.203  44.1680  0.00  0.00     0.000 O
ATOM     56  HD  NAG B   4      15.839   2.989  44.9440  0.00  0.00     0.000 HD
ATOM     56   C  NAG B   4      14.891   1.575  46.5830  0.00  0.00     0.000 C
ATOM     57   O  NAG B   4      15.673   2.252  47.5750  0.00  0.00     0.000 O
ATOM     59  HD  NAG B   4      15.994   2.038  48.3510  0.00  0.00     0.000 HD
BRANCH 49 61
ATOM     59   N  NAG B   4      13.149   5.908  47.0570  0.00  0.00     0.000 N
ATOM     61  HD  NAG B   4      13.251   6.039  46.2070  0.00  0.00     0.000 HD
ATOM     61   O  NAG B   4      12.642   8.010  46.4050  0.00  0.00     0.000 OA
ATOM     62   C  NAG B   4      12.966   7.215  47.2760  0.00  0.00     0.000 C
ATOM     63   C  NAG B   4      13.164   7.669  48.6870  0.00  0.00     0.000 C
ENDBRANCH 49 61
BRANCH 48 64
ATOM     64  O4  BDP B   5      10.812   3.914  47.0220  0.00  0.00     0.000 O
BRANCH 64 68
ATOM     65  C1  BDP B   5       9.868   5.056  50.9180  0.00  0.00     0.000 C
ATOM     66  C2  BDP B   5       9.998   3.558  50.6740  0.00  0.00     0.000 C
ATOM     67  C3  BDP B   5      10.747   3.314  49.3710  0.00  0.00     0.000 C
ATOM     68  C4  BDP B   5      10.048   4.030  48.2210  0.00  0.00     0.000 C
ATOM     69  C5  BDP B   5       9.827   5.509  48.5150  0.00  0.00     0.000 C
ATOM     70  O5  BDP B   5       9.212   5.682  49.8040  0.00  0.00     0.000 O
ATOM     71   O  BDP B   5      10.660   2.944  51.7910  0.00  0.00     0.000 O
ATOM     73  HD  BDP B   5      11.081   2.628  52.4780  0.00  0.00     0.000 HD
ATOM     73   O  BDP B   5      10.812   1.912  49.0840  0.00  0.00     0.000 O
ATOM     75  HD  BDP B   5      11.233   1.596  49.7720  0.00  0.00     0.000 HD
BRANCH 69 75
ATOM     75   C  BDP B   5       8.926   6.074  47.4470  0.00  0.00     0.000 C
ATOM     76   O  BDP B   5       7.704   5.831  47.5030  0.00  0.00     0.000 OA
ATOM     77   O  BDP B   5       9.425   6.770  46.5440  0.00  0.00     0.000 OA
ENDBRANCH 69 75
BRANCH 65 78
ATOM     78  O3  NAG B   6       8.810   5.713  51.6200  0.00  0.00     0.000 O
BRANCH 78 81
ATOM     79  C1  NAG B   6       7.394   8.570  53.6610  0.00  0.00     0.000 C
ATOM     80  C2  NAG B   6       7.391   7.259  52.8590  0.00  0.00     0.000 C
ATOM     81  C3  NAG B   6       8.813   6.858  52.5010  0.00  0.00     0.000 C
ATOM     82  C4  NAG B   6       9.559   8.023  51.8430  0.00  0.00     0.000 C
ATOM     83  C5  NAG B   6       9.491   9.246  52.7500  0.00  0.00     0.000 C
ATOM     84  O5  NAG B   6       8.113   9.577  52.9270  0.00  0.00     0.000 O
BRANCH 80 87
ATOM     85   N  NAG B   6       6.296   6.399  52.4210  0.00  0.00     0.000 N
ATOM     87  HD  NAG B   6       6.008   5.619  52.1760  0.00  0.00     0.000 HD
ATOM     87   C  NAG B   6       5.812   5.377  53.1390  0.00  0.00     0.000 C
ATOM     88   C  NAG B   6       4.663   4.641  52.5260  0.00  0.00     0.000 C
ATOM     89   O  NAG B   6       6.258   5.060  54.2350  0.00  0.00     0.000 OA
ENDBRANCH 80 87
ATOM     90   O  NAG B   6      11.379  10.735  53.0100  0.00  0.00     0.000 O
ATOM     92  HD  NAG B   6      10.676  10.395  53.3870  0.00  0.00     0.000 HD
ATOM     92   O  NAG B   6      11.379  10.735  53.0100  0.00  0.00     0.000 O
ATOM     94  HD  NAG B   6      10.676  10.395  53.3870  0.00  0.00     0.000 HD
ENDBRANCH 78 81
ENDBRANCH 65 78
ENDBRANCH 64 68
ENDBRANCH 48 64
ENDBRANCH 47 50
ENDBRANCH 34 47
ENDBRANCH 33 37
ENDBRANCH 17 33
ENDBRANCH 16 19
ENDBRANCH 1 16
TORSDOF 16
ENDMDL
MODEL 66
REMARK VINA RESULT:      -5.2      7.179     10.852
ROOT
ATOM      1  C1  BDP B   1      15.832  18.257  27.4830  0.00  0.00     0.000 C
ATOM      2  C2  BDP B   1      14.935  17.641  26.4240  0.00  0.00     0.000 C
ATOM      3  C3  BDP B   1      15.728  17.084  25.2610  0.00  0.00     0.000 C
ATOM      4  C4  BDP B   1      17.218  16.930  25.5410  0.00  0.00     0.000 C
ATOM      5  C5  BDP B   1      17.826  18.166  26.1980  0.00  0.00     0.000 C
ATOM      6  O5  BDP B   1      16.827  19.006  26.8010  0.00  0.00     0.000 O
ATOM      7   O  BDP B   1      14.138  16.603  27.0040  0.00  0.00     0.000 O
ATOM      9  HD  BDP B   1      13.638  16.296  27.6400  0.00  0.00     0.000 HD
ATOM      9   O  BDP B   1      15.585  17.939  24.1160  0.00  0.00     0.000 O
ATOM     11  HD  BDP B   1      15.085  17.632  24.7520  0.00  0.00     0.000 HD
ATOM     11   O  BDP B   1      17.456  15.780  26.3610  0.00  0.00     0.000 O
ATOM     13  HD  BDP B   1      16.957  15.472  26.9980  0.00  0.00     0.000 HD
ENDROOT
BRANCH 5 13
ATOM     13   C  BDP B   1      18.542  18.923  25.1350  0.00  0.00     0.000 C
ATOM     14   O  BDP B   1      19.426  18.329  24.4820  0.00  0.00     0.000 OA
ATOM     15   O  BDP B   1      18.222  20.110  24.9120  0.00  0.00     0.000 OA
ENDBRANCH 5 13
BRANCH 1 16
ATOM     16  O3  NAG B   2      15.980  17.946  28.8670  0.00  0.00     0.000 O
BRANCH 16 19
ATOM     17  C1  NAG B   2      15.707  14.720  30.5330  0.00  0.00     0.000 C
ATOM     18  C2  NAG B   2      16.373  15.625  29.4960  0.00  0.00     0.000 C
ATOM     19  C3  NAG B   2      16.328  17.078  29.9470  0.00  0.00     0.000 C
ATOM     20  C4  NAG B   2      15.353  17.281  31.1090  0.00  0.00     0.000 C
ATOM     21  C5  NAG B   2      14.093  16.405  31.0640  0.00  0.00     0.000 C
ATOM     22  O5  NAG B   2      14.328  15.097  30.5290  0.00  0.00     0.000 O
ATOM     23   O  NAG B   2      16.054  17.057  32.3360  0.00  0.00     0.000 O
ATOM     25  HD  NAG B   2      16.499  16.376  32.0400  0.00  0.00     0.000 HD
ATOM     25   C  NAG B   2      12.993  17.082  30.2340  0.00  0.00     0.000 C
ATOM     26   O  NAG B   2      12.226  18.005  31.0220  0.00  0.00     0.000 O
ATOM     28  HD  NAG B   2      12.671  17.323  30.7250  0.00  0.00     0.000 HD
BRANCH 18 30
ATOM     28   N  NAG B   2      17.600  15.704  30.2880  0.00  0.00     0.000 N
ATOM     30  HD  NAG B   2      18.273  16.223  30.4550  0.00  0.00     0.000 HD
ATOM     30   C  NAG B   2      18.694  14.956  30.0850  0.00  0.00     0.000 C
ATOM     31   C  NAG B   2      19.824  15.217  31.0400  0.00  0.00     0.000 C
ATOM     32   O  NAG B   2      18.786  14.134  29.2030  0.00  0.00     0.000 OA
ENDBRANCH 18 30
BRANCH 17 33
ATOM     33  O4  BDP B   3      15.047  13.496  30.9230  0.00  0.00     0.000 O
BRANCH 33 37
ATOM     34  C1  BDP B   3      15.762   9.458  32.1180  0.00  0.00     0.000 C
ATOM     35  C2  BDP B   3      16.575   9.992  30.9440  0.00  0.00     0.000 C
ATOM     36  C3  BDP B   3      16.584  11.513  30.8500  0.00  0.00     0.000 C
ATOM     37  C4  BDP B   3      15.155  12.046  31.0350  0.00  0.00     0.000 C
ATOM     38  C5  BDP B   3      14.642  11.517  32.3880  0.00  0.00     0.000 C
ATOM     39  O5  BDP B   3      14.490  10.108  32.2180  0.00  0.00     0.000 O
ATOM     40   O  BDP B   3      17.890   9.451  31.0900  0.00  0.00     0.000 O
ATOM     42  HD  BDP B   3      17.485   8.777  30.7280  0.00  0.00     0.000 HD
ATOM     42   O  BDP B   3      17.110  11.841  29.5650  0.00  0.00     0.000 O
ATOM     44  HD  BDP B   3      16.705  11.167  29.2030  0.00  0.00     0.000 HD
BRANCH 38 44
ATOM     44   C  BDP B   3      13.345  12.116  32.8350  0.00  0.00     0.000 C
ATOM     45   O  BDP B   3      12.306  11.434  32.6950  0.00  0.00     0.000 OA
ATOM     46   O  BDP B   3      13.333  13.265  33.3290  0.00  0.00     0.000 OA
ENDBRANCH 38 44
BRANCH 34 47
ATOM     47  O3  NAG B   4      15.058   8.264  31.7800  0.00  0.00     0.000 O
BRANCH 47 50
ATOM     48  C1  NAG B   4      13.320   6.717  34.7350  0.00  0.00     0.000 C
ATOM     49  C2  NAG B   4      14.480   7.271  33.9260  0.00  0.00     0.000 C
ATOM     50  C3  NAG B   4      13.962   7.794  32.5910  0.00  0.00     0.000 C
ATOM     51  C4  NAG B   4      13.191   6.726  31.8330  0.00  0.00     0.000 C
ATOM     52  C5  NAG B   4      12.083   6.157  32.7200  0.00  0.00     0.000 C
ATOM     53  O5  NAG B   4      12.623   5.713  33.9710  0.00  0.00     0.000 O
ATOM     54   O  NAG B   4      12.640   7.304  30.6460  0.00  0.00     0.000 O
ATOM     56  HD  NAG B   4      12.615   6.438  30.6380  0.00  0.00     0.000 HD
ATOM     56   C  NAG B   4      11.368   4.997  32.0370  0.00  0.00     0.000 C
ATOM     57   O  NAG B   4      12.318   3.959  31.7630  0.00  0.00     0.000 O
ATOM     59  HD  NAG B   4      12.293   3.093  31.7550  0.00  0.00     0.000 HD
BRANCH 49 61
ATOM     59   N  NAG B   4      15.372   6.156  34.2480  0.00  0.00     0.000 N
ATOM     61  HD  NAG B   4      15.384   6.884  33.7780  0.00  0.00     0.000 HD
ATOM     61   O  NAG B   4      17.245   7.383  34.5420  0.00  0.00     0.000 OA
ATOM     62   C  NAG B   4      16.654   6.315  34.5980  0.00  0.00     0.000 C
ATOM     63   C  NAG B   4      17.345   5.086  35.0970  0.00  0.00     0.000 C
ENDBRANCH 49 61
BRANCH 48 64
ATOM     64  O4  BDP B   5      13.078   6.607  36.1340  0.00  0.00     0.000 O
BRANCH 64 68
ATOM     65  C1  BDP B   5       9.630   7.958  38.0470  0.00  0.00     0.000 C
ATOM     66  C2  BDP B   5      10.920   8.683  38.4080  0.00  0.00     0.000 C
ATOM     67  C3  BDP B   5      11.981   8.395  37.3530  0.00  0.00     0.000 C
ATOM     68  C4  BDP B   5      12.181   6.890  37.2080  0.00  0.00     0.000 C
ATOM     69  C5  BDP B   5      10.870   6.159  36.9510  0.00  0.00     0.000 C
ATOM     70  O5  BDP B   5       9.876   6.550  37.9150  0.00  0.00     0.000 O
ATOM     71   O  BDP B   5      10.664  10.090  38.5320  0.00  0.00     0.000 O
ATOM     73  HD  BDP B   5      10.459  10.931  38.5740  0.00  0.00     0.000 HD
ATOM     73   O  BDP B   5      13.226   9.004  37.7140  0.00  0.00     0.000 O
ATOM     75  HD  BDP B   5      13.022   9.845  37.7560  0.00  0.00     0.000 HD
BRANCH 69 75
ATOM     75   C  BDP B   5      11.125   4.677  37.0640  0.00  0.00     0.000 C
ATOM     76   O  BDP B   5      10.513   3.903  36.3000  0.00  0.00     0.000 OA
ATOM     77   O  BDP B   5      11.940   4.268  37.9110  0.00  0.00     0.000 OA
ENDBRANCH 69 75
BRANCH 65 78
ATOM     78  O3  NAG B   6       8.646   7.470  38.9630  0.00  0.00     0.000 O
BRANCH 78 81
ATOM     79  C1  NAG B   6       5.019   7.976  39.9240  0.00  0.00     0.000 C
ATOM     80  C2  NAG B   6       6.538   8.212  39.9340  0.00  0.00     0.000 C
ATOM     81  C3  NAG B   6       7.209   7.371  38.8600  0.00  0.00     0.000 C
ATOM     82  C4  NAG B   6       6.777   5.905  38.9670  0.00  0.00     0.000 C
ATOM     83  C5  NAG B   6       5.255   5.821  38.9320  0.00  0.00     0.000 C
ATOM     84  O5  NAG B   6       4.755   6.566  40.0430  0.00  0.00     0.000 O
BRANCH 80 87
ATOM     85   N  NAG B   6       7.099   9.198  40.8540  0.00  0.00     0.000 N
ATOM     87  HD  NAG B   6       7.785   9.620  41.1710  0.00  0.00     0.000 HD
ATOM     87   C  NAG B   6       7.683  10.338  40.4650  0.00  0.00     0.000 C
ATOM     88   C  NAG B   6       8.162  11.230  41.5670  0.00  0.00     0.000 C
ATOM     89   O  NAG B   6       7.813  10.656  39.2890  0.00  0.00     0.000 OA
ENDBRANCH 80 87
ATOM     90   O  NAG B   6       4.114   4.044  37.7540  0.00  0.00     0.000 O
ATOM     92  HD  NAG B   6       4.079   4.869  38.0140  0.00  0.00     0.000 HD
ATOM     92   O  NAG B   6       4.114   4.044  37.7540  0.00  0.00     0.000 O
ATOM     94  HD  NAG B   6       4.079   4.869  38.0140  0.00  0.00     0.000 HD
ENDBRANCH 78 81
ENDBRANCH 65 78
ENDBRANCH 64 68
ENDBRANCH 48 64
ENDBRANCH 47 50
ENDBRANCH 34 47
ENDBRANCH 33 37
ENDBRANCH 17 33
ENDBRANCH 16 19
ENDBRANCH 1 16
TORSDOF 16
ENDMDL
MODEL 67
REMARK VINA RESULT:      -5.2     11.460     20.062
ROOT
ATOM      1  C1  BDP B   1       5.782  16.677  26.8670  0.00  0.00     0.000 C
ATOM      2  C2  BDP B   1       5.161  15.292  26.8180  0.00  0.00     0.000 C
ATOM      3  C3  BDP B   1       3.680  15.342  26.5070  0.00  0.00     0.000 C
ATOM      4  C4  BDP B   1       3.203  16.686  25.9680  0.00  0.00     0.000 C
ATOM      5  C5  BDP B   1       3.729  17.867  26.7780  0.00  0.00     0.000 C
ATOM      6  O5  BDP B   1       4.875  17.513  27.5710  0.00  0.00     0.000 O
ATOM      7   O  BDP B   1       5.831  14.492  25.8390  0.00  0.00     0.000 O
ATOM      9  HD  BDP B   1       6.554  14.208  25.4550  0.00  0.00     0.000 HD
ATOM      9   O  BDP B   1       2.920  15.053  27.6910  0.00  0.00     0.000 O
ATOM     11  HD  BDP B   1       3.643  14.769  27.3080  0.00  0.00     0.000 HD
ATOM     11   O  BDP B   1       3.582  16.836  24.5940  0.00  0.00     0.000 O
ATOM     13  HD  BDP B   1       4.304  16.552  24.2110  0.00  0.00     0.000 HD
ENDROOT
BRANCH 5 13
ATOM     13   C  BDP B   1       2.624  18.318  27.6670  0.00  0.00     0.000 C
ATOM     14   O  BDP B   1       1.833  19.181  27.2330  0.00  0.00     0.000 OA
ATOM     15   O  BDP B   1       2.507  17.805  28.8010  0.00  0.00     0.000 OA
ENDBRANCH 5 13
BRANCH 1 16
ATOM     16  O3  NAG B   2       6.851  17.240  26.1100  0.00  0.00     0.000 O
BRANCH 16 19
ATOM     17  C1  NAG B   2       9.507  18.900  24.2540  0.00  0.00     0.000 C
ATOM     18  C2  NAG B   2       8.739  18.678  25.5570  0.00  0.00     0.000 C
ATOM     19  C3  NAG B   2       8.193  17.259  25.6210  0.00  0.00     0.000 C
ATOM     20  C4  NAG B   2       8.256  16.565  24.2580  0.00  0.00     0.000 C
ATOM     21  C5  NAG B   2       8.006  17.478  23.0490  0.00  0.00     0.000 C
ATOM     22  O5  NAG B   2       8.526  18.802  23.2190  0.00  0.00     0.000 O
ATOM     23   O  NAG B   2       9.532  15.930  24.1300  0.00  0.00     0.000 O
ATOM     25  HD  NAG B   2       9.972  16.583  24.4900  0.00  0.00     0.000 HD
ATOM     25   C  NAG B   2       6.504  17.577  22.7480  0.00  0.00     0.000 C
ATOM     26   O  NAG B   2       6.055  16.493  21.9220  0.00  0.00     0.000 O
ATOM     28  HD  NAG B   2       6.495  17.147  22.2820  0.00  0.00     0.000 HD
BRANCH 18 30
ATOM     28   N  NAG B   2      10.183  18.677  25.7870  0.00  0.00     0.000 N
ATOM     30  HD  NAG B   2      10.897  18.209  25.6420  0.00  0.00     0.000 HD
ATOM     30   C  NAG B   2      10.770  18.533  26.9840  0.00  0.00     0.000 C
ATOM     31   C  NAG B   2      12.271  18.577  26.9600  0.00  0.00     0.000 C
ATOM     32   O  NAG B   2      10.155  18.372  28.0120  0.00  0.00     0.000 OA
ENDBRANCH 18 30
BRANCH 17 33
ATOM     33  O4  BDP B   3      10.054  19.751  23.2230  0.00  0.00     0.000 O
BRANCH 33 37
ATOM     34  C1  BDP B   3      13.928  20.425  21.5540  0.00  0.00     0.000 C
ATOM     35  C2  BDP B   3      13.616  21.097  22.8860  0.00  0.00     0.000 C
ATOM     36  C3  BDP B   3      12.421  20.490  23.6120  0.00  0.00     0.000 C
ATOM     37  C4  BDP B   3      11.265  20.293  22.6190  0.00  0.00     0.000 C
ATOM     38  C5  BDP B   3      11.795  19.418  21.4670  0.00  0.00     0.000 C
ATOM     39  O5  BDP B   3      12.744  20.227  20.7730  0.00  0.00     0.000 O
ATOM     40   O  BDP B   3      14.814  21.022  23.6610  0.00  0.00     0.000 O
ATOM     42  HD  BDP B   3      14.996  21.705  23.1610  0.00  0.00     0.000 HD
ATOM     42   O  BDP B   3      12.073  21.396  24.6580  0.00  0.00     0.000 O
ATOM     44  HD  BDP B   3      12.255  22.078  24.1570  0.00  0.00     0.000 HD
BRANCH 38 44
ATOM     44   C  BDP B   3      10.742  18.941  20.5160  0.00  0.00     0.000 C
ATOM     45   O  BDP B   3      10.220  19.782  19.7520  0.00  0.00     0.000 OA
ATOM     46   O  BDP B   3      10.415  17.735  20.5110  0.00  0.00     0.000 OA
ENDBRANCH 38 44
BRANCH 34 47
ATOM     47  O3  NAG B   4      14.349  21.364  20.5680  0.00  0.00     0.000 O
BRANCH 47 50
ATOM     48  C1  NAG B   4      16.891  19.810  18.2710  0.00  0.00     0.000 C
ATOM     49  C2  NAG B   4      16.254  20.202  19.5930  0.00  0.00     0.000 C
ATOM     50  C3  NAG B   4      14.938  20.924  19.3270  0.00  0.00     0.000 C
ATOM     51  C4  NAG B   4      15.131  22.117  18.4050  0.00  0.00     0.000 C
ATOM     52  C5  NAG B   4      15.838  21.674  17.1240  0.00  0.00     0.000 C
ATOM     53  O5  NAG B   4      17.048  20.974  17.4370  0.00  0.00     0.000 O
ATOM     54   O  NAG B   4      13.853  22.686  18.1060  0.00  0.00     0.000 O
ATOM     56  HD  NAG B   4      14.510  23.207  17.8870  0.00  0.00     0.000 HD
ATOM     56   C  NAG B   4      16.160  22.866  16.2290  0.00  0.00     0.000 C
ATOM     57   O  NAG B   4      17.018  23.767  16.9420  0.00  0.00     0.000 O
ATOM     59  HD  NAG B   4      17.675  24.288  16.7230  0.00  0.00     0.000 HD
BRANCH 49 61
ATOM     59   N  NAG B   4      16.383  18.942  20.3260  0.00  0.00     0.000 N
ATOM     61  HD  NAG B   4      16.830  19.675  20.2100  0.00  0.00     0.000 HD
ATOM     61   O  NAG B   4      17.177  19.824  22.2470  0.00  0.00     0.000 OA
ATOM     62   C  NAG B   4      16.761  18.869  21.6070  0.00  0.00     0.000 C
ATOM     63   C  NAG B   4      16.628  17.523  22.2460  0.00  0.00     0.000 C
ENDBRANCH 49 61
BRANCH 48 64
ATOM     64  O4  BDP B   5      17.749  18.740  17.8880  0.00  0.00     0.000 O
BRANCH 64 68
ATOM     65  C1  BDP B   5      20.894  16.262  16.7290  0.00  0.00     0.000 C
ATOM     66  C2  BDP B   5      20.831  16.611  18.2100  0.00  0.00     0.000 C
ATOM     67  C3  BDP B   5      19.443  17.136  18.5540  0.00  0.00     0.000 C
ATOM     68  C4  BDP B   5      19.095  18.323  17.6630  0.00  0.00     0.000 C
ATOM     69  C5  BDP B   5      19.262  17.999  16.1840  0.00  0.00     0.000 C
ATOM     70  O5  BDP B   5      20.551  17.410  15.9370  0.00  0.00     0.000 O
ATOM     71   O  BDP B   5      21.170  15.456  18.9920  0.00  0.00     0.000 O
ATOM     73  HD  BDP B   5      21.362  14.725  19.4160  0.00  0.00     0.000 HD
ATOM     73   O  BDP B   5      19.385  17.543  19.9270  0.00  0.00     0.000 O
ATOM     75  HD  BDP B   5      19.577  16.812  20.3500  0.00  0.00     0.000 HD
BRANCH 69 75
ATOM     75   C  BDP B   5      19.136  19.281  15.4010  0.00  0.00     0.000 C
ATOM     76   O  BDP B   5      19.906  20.226  15.6690  0.00  0.00     0.000 OA
ATOM     77   O  BDP B   5      18.272  19.361  14.5080  0.00  0.00     0.000 OA
ENDBRANCH 69 75
BRANCH 65 78
ATOM     78  O3  NAG B   6      22.054  16.315  15.8940  0.00  0.00     0.000 O
BRANCH 78 81
ATOM     79  C1  NAG B   6      23.503  13.886  13.3770  0.00  0.00     0.000 C
ATOM     80  C2  NAG B   6      23.071  14.417  14.7530  0.00  0.00     0.000 C
ATOM     81  C3  NAG B   6      22.328  15.734  14.6000  0.00  0.00     0.000 C
ATOM     82  C4  NAG B   6      23.132  16.718  13.7440  0.00  0.00     0.000 C
ATOM     83  C5  NAG B   6      23.478  16.065  12.4110  0.00  0.00     0.000 C
ATOM     84  O5  NAG B   6      24.256  14.901  12.6890  0.00  0.00     0.000 O
BRANCH 80 87
ATOM     85   N  NAG B   6      22.320  13.343  15.3950  0.00  0.00     0.000 N
ATOM     87  HD  NAG B   6      22.307  12.582  15.8090  0.00  0.00     0.000 HD
ATOM     87   C  NAG B   6      22.394  13.053  16.7000  0.00  0.00     0.000 C
ATOM     88   C  NAG B   6      21.516  11.936  17.1680  0.00  0.00     0.000 C
ATOM     89   O  NAG B   6      23.116  13.662  17.4800  0.00  0.00     0.000 OA
ENDBRANCH 80 87
ATOM     90   O  NAG B   6      23.440  17.317  10.3420  0.00  0.00     0.000 O
ATOM     92  HD  NAG B   6      23.332  16.542  10.7130  0.00  0.00     0.000 HD
ATOM     92   O  NAG B   6      23.440  17.317  10.3420  0.00  0.00     0.000 O
ATOM     94  HD  NAG B   6      23.332  16.542  10.7130  0.00  0.00     0.000 HD
ENDBRANCH 78 81
ENDBRANCH 65 78
ENDBRANCH 64 68
ENDBRANCH 48 64
ENDBRANCH 47 50
ENDBRANCH 34 47
ENDBRANCH 33 37
ENDBRANCH 17 33
ENDBRANCH 16 19
ENDBRANCH 1 16
TORSDOF 16
ENDMDL
MODEL 68
REMARK VINA RESULT:      -5.2      7.086     17.824
ROOT
ATOM      1  C1  BDP B   1      21.043   9.437  24.4390  0.00  0.00     0.000 C
ATOM      2  C2  BDP B   1      20.483   8.026  24.4520  0.00  0.00     0.000 C
ATOM      3  C3  BDP B   1      19.580   7.781  25.6410  0.00  0.00     0.000 C
ATOM      4  C4  BDP B   1      19.140   9.052  26.3590  0.00  0.00     0.000 C
ATOM      5  C5  BDP B   1      20.295  10.014  26.6180  0.00  0.00     0.000 C
ATOM      6  O5  BDP B   1      21.426   9.743  25.7720  0.00  0.00     0.000 O
ATOM      7   O  BDP B   1      19.761   7.778  23.2400  0.00  0.00     0.000 O
ATOM      9  HD  BDP B   1      19.682   7.828  22.3790  0.00  0.00     0.000 HD
ATOM      9   O  BDP B   1      20.248   6.947  26.6010  0.00  0.00     0.000 O
ATOM     11  HD  BDP B   1      20.169   6.998  25.7400  0.00  0.00     0.000 HD
ATOM     11   O  BDP B   1      18.114   9.718  25.6120  0.00  0.00     0.000 O
ATOM     13  HD  BDP B   1      18.035   9.768  24.7510  0.00  0.00     0.000 HD
ENDROOT
BRANCH 5 13
ATOM     13   C  BDP B   1      20.687   9.858  28.0450  0.00  0.00     0.000 C
ATOM     14   O  BDP B   1      21.527   8.980  28.3340  0.00  0.00     0.000 OA
ATOM     15   O  BDP B   1      20.188  10.621  28.9000  0.00  0.00     0.000 OA
ENDBRANCH 5 13
BRANCH 1 16
ATOM     16  O3  NAG B   2      20.935  10.469  23.4600  0.00  0.00     0.000 O
BRANCH 16 19
ATOM     17  C1  NAG B   2      23.002  10.591  20.4660  0.00  0.00     0.000 C
ATOM     18  C2  NAG B   2      21.733  10.130  21.1840  0.00  0.00     0.000 C
ATOM     19  C3  NAG B   2      21.333  11.130  22.2580  0.00  0.00     0.000 C
ATOM     20  C4  NAG B   2      22.462  12.119  22.5620  0.00  0.00     0.000 C
ATOM     21  C5  NAG B   2      23.879  11.534  22.4830  0.00  0.00     0.000 C
ATOM     22  O5  NAG B   2      24.031  10.546  21.4570  0.00  0.00     0.000 O
ATOM     23   O  NAG B   2      22.345  13.230  21.6670  0.00  0.00     0.000 O
ATOM     25  HD  NAG B   2      22.142  12.745  20.9790  0.00  0.00     0.000 HD
ATOM     25   C  NAG B   2      24.282  10.911  23.8270  0.00  0.00     0.000 C
ATOM     26   O  NAG B   2      24.822  11.891  24.7260  0.00  0.00     0.000 O
ATOM     28  HD  NAG B   2      24.619  11.405  24.0380  0.00  0.00     0.000 HD
BRANCH 18 30
ATOM     28   N  NAG B   2      20.800   9.811  20.1040  0.00  0.00     0.000 N
ATOM     30  HD  NAG B   2      20.761   9.447  19.3190  0.00  0.00     0.000 HD
ATOM     30   C  NAG B   2      20.202  10.715  19.3140  0.00  0.00     0.000 C
ATOM     31   C  NAG B   2      19.276  10.138  18.2820  0.00  0.00     0.000 C
ATOM     32   O  NAG B   2      20.388  11.906  19.4050  0.00  0.00     0.000 OA
ENDBRANCH 18 30
BRANCH 17 33
ATOM     33  O4  BDP B   3      24.185  10.340  19.6770  0.00  0.00     0.000 O
BRANCH 33 37
ATOM     34  C1  BDP B   3      26.175   8.463  16.3970  0.00  0.00     0.000 C
ATOM     35  C2  BDP B   3      26.614   9.876  16.7620  0.00  0.00     0.000 C
ATOM     36  C3  BDP B   3      26.183  10.307  18.1590  0.00  0.00     0.000 C
ATOM     37  C4  BDP B   3      24.709   9.934  18.3790  0.00  0.00     0.000 C
ATOM     38  C5  BDP B   3      24.580   8.418  18.1360  0.00  0.00     0.000 C
ATOM     39  O5  BDP B   3      24.803   8.231  16.7380  0.00  0.00     0.000 O
ATOM     40   O  BDP B   3      28.034   9.907  16.6000  0.00  0.00     0.000 O
ATOM     42  HD  BDP B   3      27.782  10.010  15.7770  0.00  0.00     0.000 HD
ATOM     42   O  BDP B   3      26.391  11.717  18.2350  0.00  0.00     0.000 O
ATOM     44  HD  BDP B   3      26.139  11.820  17.4130  0.00  0.00     0.000 HD
BRANCH 38 44
ATOM     44   C  BDP B   3      23.254   7.840  18.5190  0.00  0.00     0.000 C
ATOM     45   O  BDP B   3      23.216   7.056  19.4930  0.00  0.00     0.000 OA
ATOM     46   O  BDP B   3      22.233   8.149  17.8670  0.00  0.00     0.000 OA
ENDBRANCH 38 44
BRANCH 34 47
ATOM     47  O3  NAG B   4      25.789   8.361  15.0280  0.00  0.00     0.000 O
BRANCH 47 50
ATOM     48  C1  NAG B   4      25.820   4.788  13.8500  0.00  0.00     0.000 C
ATOM     49  C2  NAG B   4      26.363   6.058  14.4820  0.00  0.00     0.000 C
ATOM     50  C3  NAG B   4      25.273   7.125  14.4920  0.00  0.00     0.000 C
ATOM     51  C4  NAG B   4      24.716   7.368  13.0980  0.00  0.00     0.000 C
ATOM     52  C5  NAG B   4      24.251   6.047  12.4870  0.00  0.00     0.000 C
ATOM     53  O5  NAG B   4      25.304   5.076  12.5350  0.00  0.00     0.000 O
ATOM     54   O  NAG B   4      23.630   8.294  13.1870  0.00  0.00     0.000 O
ATOM     56  HD  NAG B   4      23.908   8.183  12.3740  0.00  0.00     0.000 HD
ATOM     56   C  NAG B   4      23.802   6.233  11.0420  0.00  0.00     0.000 C
ATOM     57   O  NAG B   4      24.902   6.737  10.2720  0.00  0.00     0.000 O
ATOM     59  HD  NAG B   4      25.180   6.626   9.4590  0.00  0.00     0.000 HD
BRANCH 49 61
ATOM     59   N  NAG B   4      27.640   5.997  13.7710  0.00  0.00     0.000 N
ATOM     61  HD  NAG B   4      27.236   6.513  14.3370  0.00  0.00     0.000 HD
ATOM     61   O  NAG B   4      28.946   6.630  15.5020  0.00  0.00     0.000 OA
ATOM     62   C  NAG B   4      28.823   6.215  14.3590  0.00  0.00     0.000 C
ATOM     63   C  NAG B   4      30.026   5.898  13.5290  0.00  0.00     0.000 C
ENDBRANCH 49 61
BRANCH 48 64
ATOM     64  O4  BDP B   5      26.124   3.409  14.0310  0.00  0.00     0.000 O
BRANCH 64 68
ATOM     65  C1  BDP B   5      29.830   1.950  15.2590  0.00  0.00     0.000 C
ATOM     66  C2  BDP B   5      29.374   1.526  13.8690  0.00  0.00     0.000 C
ATOM     67  C3  BDP B   5      28.258   2.447  13.3940  0.00  0.00     0.000 C
ATOM     68  C4  BDP B   5      27.116   2.453  14.4040  0.00  0.00     0.000 C
ATOM     69  C5  BDP B   5      27.596   2.775  15.8130  0.00  0.00     0.000 C
ATOM     70  O5  BDP B   5      28.717   1.946  16.1670  0.00  0.00     0.000 O
ATOM     71   O  BDP B   5      30.492   1.539  12.9690  0.00  0.00     0.000 O
ATOM     73  HD  BDP B   5      31.195   1.584  12.4660  0.00  0.00     0.000 HD
ATOM     73   O  BDP B   5      27.760   2.018  12.1200  0.00  0.00     0.000 O
ATOM     75  HD  BDP B   5      28.463   2.063  11.6170  0.00  0.00     0.000 HD
BRANCH 69 75
ATOM     75   C  BDP B   5      26.460   2.521  16.7700  0.00  0.00     0.000 C
ATOM     76   O  BDP B   5      26.063   3.458  17.4920  0.00  0.00     0.000 OA
ATOM     77   O  BDP B   5      25.948   1.387  16.8120  0.00  0.00     0.000 OA
ENDBRANCH 69 75
BRANCH 65 78
ATOM     78  O3  NAG B   6      30.369   1.097  16.2730  0.00  0.00     0.000 O
BRANCH 78 81
ATOM     79  C1  NAG B   6      33.446   1.248  18.4730  0.00  0.00     0.000 C
ATOM     80  C2  NAG B   6      32.631   1.096  17.1790  0.00  0.00     0.000 C
ATOM     81  C3  NAG B   6      31.162   1.387  17.4440  0.00  0.00     0.000 C
ATOM     82  C4  NAG B   6      30.651   0.572  18.6370  0.00  0.00     0.000 C
ATOM     83  C5  NAG B   6      31.542   0.830  19.8460  0.00  0.00     0.000 C
ATOM     84  O5  NAG B   6      32.867   0.424  19.5010  0.00  0.00     0.000 O
BRANCH 80 87
ATOM     85   N  NAG B   6      33.276   1.948  16.1840  0.00  0.00     0.000 N
ATOM     87  HD  NAG B   6      33.924   2.088  15.6260  0.00  0.00     0.000 HD
ATOM     87   C  NAG B   6      33.406   1.624  14.8920  0.00  0.00     0.000 C
ATOM     88   C  NAG B   6      34.068   2.650  14.0290  0.00  0.00     0.000 C
ATOM     89   O  NAG B   6      33.002   0.566  14.4240  0.00  0.00     0.000 OA
ENDBRANCH 80 87
ATOM     90   O  NAG B   6      30.624   1.020  22.0750  0.00  0.00     0.000 O
ATOM     92  HD  NAG B   6      31.256   1.268  21.5370  0.00  0.00     0.000 HD
ATOM     92   O  NAG B   6      30.624   1.020  22.0750  0.00  0.00     0.000 O
ATOM     94  HD  NAG B   6      31.256   1.268  21.5370  0.00  0.00     0.000 HD
ENDBRANCH 78 81
ENDBRANCH 65 78
ENDBRANCH 64 68
ENDBRANCH 48 64
ENDBRANCH 47 50
ENDBRANCH 34 47
ENDBRANCH 33 37
ENDBRANCH 17 33
ENDBRANCH 16 19
ENDBRANCH 1 16
TORSDOF 16
ENDMDL
MODEL 69
REMARK VINA RESULT:      -5.1      7.379     12.078
ROOT
ATOM      1  C1  BDP B   1      25.360   4.802  12.6920  0.00  0.00     0.000 C
ATOM      2  C2  BDP B   1      24.206   4.093  12.0040  0.00  0.00     0.000 C
ATOM      3  C3  BDP B   1      23.488   3.139  12.9340  0.00  0.00     0.000 C
ATOM      4  C4  BDP B   1      23.821   3.340  14.4090  0.00  0.00     0.000 C
ATOM      5  C5  BDP B   1      25.318   3.479  14.6630  0.00  0.00     0.000 C
ATOM      6  O5  BDP B   1      26.040   3.828  13.4690  0.00  0.00     0.000 O
ATOM      7   O  BDP B   1      23.278   5.056  11.4940  0.00  0.00     0.000 O
ATOM      9  HD  BDP B   1      23.101   5.797  11.0810  0.00  0.00     0.000 HD
ATOM      9   O  BDP B   1      23.818   1.783  12.5940  0.00  0.00     0.000 O
ATOM     11  HD  BDP B   1      23.642   2.523  12.1810  0.00  0.00     0.000 HD
ATOM     11   O  BDP B   1      23.134   4.487  14.9230  0.00  0.00     0.000 O
ATOM     13  HD  BDP B   1      22.958   5.227  14.5100  0.00  0.00     0.000 HD
ENDROOT
BRANCH 5 13
ATOM     13   C  BDP B   1      25.802   2.168  15.1760  0.00  0.00     0.000 C
ATOM     14   O  BDP B   1      24.952   1.315  15.5090  0.00  0.00     0.000 OA
ATOM     15   O  BDP B   1      27.032   1.953  15.2330  0.00  0.00     0.000 OA
ENDBRANCH 5 13
BRANCH 1 16
ATOM     16  O3  NAG B   2      25.607   6.192  12.8910  0.00  0.00     0.000 O
BRANCH 16 19
ATOM     17  C1  NAG B   2      24.647   8.105  15.8370  0.00  0.00     0.000 C
ATOM     18  C2  NAG B   2      25.515   7.033  15.1760  0.00  0.00     0.000 C
ATOM     19  C3  NAG B   2      25.740   7.358  13.7070  0.00  0.00     0.000 C
ATOM     20  C4  NAG B   2      24.782   8.446  13.2130  0.00  0.00     0.000 C
ATOM     21  C5  NAG B   2      23.377   8.407  13.8310  0.00  0.00     0.000 C
ATOM     22  O5  NAG B   2      23.370   7.996  15.2040  0.00  0.00     0.000 O
ATOM     23   O  NAG B   2      25.382   9.723  13.4530  0.00  0.00     0.000 O
ATOM     25  HD  NAG B   2      25.695   9.508  14.2320  0.00  0.00     0.000 HD
ATOM     25   C  NAG B   2      22.461   7.467  13.0340  0.00  0.00     0.000 C
ATOM     26   O  NAG B   2      21.863   8.132  11.9130  0.00  0.00     0.000 O
ATOM     28  HD  NAG B   2      22.176   7.917  12.6920  0.00  0.00     0.000 HD
BRANCH 18 30
ATOM     28   N  NAG B   2      26.362   7.394  16.3120  0.00  0.00     0.000 N
ATOM     30  HD  NAG B   2      26.461   7.996  16.9260  0.00  0.00     0.000 HD
ATOM     30   C  NAG B   2      27.637   7.798  16.2220  0.00  0.00     0.000 C
ATOM     31   C  NAG B   2      28.298   8.101  17.5360  0.00  0.00     0.000 C
ATOM     32   O  NAG B   2      28.224   7.920  15.1720  0.00  0.00     0.000 OA
ENDBRANCH 18 30
BRANCH 17 33
ATOM     33  O4  BDP B   3      23.747   8.560  16.8700  0.00  0.00     0.000 O
BRANCH 33 37
ATOM     34  C1  BDP B   3      22.891   7.724  20.9700  0.00  0.00     0.000 C
ATOM     35  C2  BDP B   3      22.640   6.607  19.9640  0.00  0.00     0.000 C
ATOM     36  C3  BDP B   3      23.348   6.817  18.6290  0.00  0.00     0.000 C
ATOM     37  C4  BDP B   3      23.140   8.265  18.1620  0.00  0.00     0.000 C
ATOM     38  C5  BDP B   3      23.656   9.187  19.2840  0.00  0.00     0.000 C
ATOM     39  O5  BDP B   3      22.747   9.017  20.3710  0.00  0.00     0.000 O
ATOM     40   O  BDP B   3      23.042   5.394  20.6040  0.00  0.00     0.000 O
ATOM     42  HD  BDP B   3      22.254   5.498  20.9490  0.00  0.00     0.000 HD
ATOM     42   O  BDP B   3      22.784   5.878  17.7150  0.00  0.00     0.000 O
ATOM     44  HD  BDP B   3      21.997   5.981  18.0600  0.00  0.00     0.000 HD
BRANCH 38 44
ATOM     44   C  BDP B   3      23.734  10.634  18.9090  0.00  0.00     0.000 C
ATOM     45   O  BDP B   3      22.663  11.274  18.8230  0.00  0.00     0.000 OA
ATOM     46   O  BDP B   3      24.848  11.157  18.6940  0.00  0.00     0.000 OA
ENDBRANCH 38 44
BRANCH 34 47
ATOM     47  O3  NAG B   4      21.729   8.018  21.7420  0.00  0.00     0.000 O
BRANCH 47 50
ATOM     48  C1  NAG B   4      22.716   8.790  25.2880  0.00  0.00     0.000 C
ATOM     49  C2  NAG B   4      22.687   8.020  23.9800  0.00  0.00     0.000 C
ATOM     50  C3  NAG B   4      21.824   8.768  22.9710  0.00  0.00     0.000 C
ATOM     51  C4  NAG B   4      20.428   9.031  23.5140  0.00  0.00     0.000 C
ATOM     52  C5  NAG B   4      20.523   9.745  24.8630  0.00  0.00     0.000 C
ATOM     53  O5  NAG B   4      21.372   9.014  25.7570  0.00  0.00     0.000 O
ATOM     54   O  NAG B   4      19.704   9.826  22.5710  0.00  0.00     0.000 O
ATOM     56  HD  NAG B   4      19.192   9.474  23.1750  0.00  0.00     0.000 HD
ATOM     56   C  NAG B   4      19.147   9.913  25.4970  0.00  0.00     0.000 C
ATOM     57   O  NAG B   4      18.563   8.620  25.6990  0.00  0.00     0.000 O
ATOM     59  HD  NAG B   4      18.051   8.268  26.3030  0.00  0.00     0.000 HD
BRANCH 49 61
ATOM     59   N  NAG B   4      24.101   7.657  24.0840  0.00  0.00     0.000 N
ATOM     61  HD  NAG B   4      23.326   7.302  24.2380  0.00  0.00     0.000 HD
ATOM     61   O  NAG B   4      23.902   5.553  23.2870  0.00  0.00     0.000 OA
ATOM     62   C  NAG B   4      24.595   6.487  23.6620  0.00  0.00     0.000 C
ATOM     63   C  NAG B   4      26.087   6.381  23.6520  0.00  0.00     0.000 C
ENDBRANCH 49 61
BRANCH 48 64
ATOM     64  O4  BDP B   5      23.685   8.903  26.3270  0.00  0.00     0.000 O
BRANCH 64 68
ATOM     65  C1  BDP B   5      26.371  10.110  29.2760  0.00  0.00     0.000 C
ATOM     66  C2  BDP B   5      24.895  10.193  29.6430  0.00  0.00     0.000 C
ATOM     67  C3  BDP B   5      24.079   9.342  28.6790  0.00  0.00     0.000 C
ATOM     68  C4  BDP B   5      24.345   9.776  27.2420  0.00  0.00     0.000 C
ATOM     69  C5  BDP B   5      25.832   9.791  26.9130  0.00  0.00     0.000 C
ATOM     70  O5  BDP B   5      26.564  10.520  27.9130  0.00  0.00     0.000 O
ATOM     71   O  BDP B   5      24.713   9.775  31.0050  0.00  0.00     0.000 O
ATOM     73  HD  BDP B   5      24.657   9.495  31.8230  0.00  0.00     0.000 HD
ATOM     73   O  BDP B   5      22.679   9.468  28.9590  0.00  0.00     0.000 O
ATOM     75  HD  BDP B   5      22.623   9.188  29.7770  0.00  0.00     0.000 HD
BRANCH 69 75
ATOM     75   C  BDP B   5      26.013  10.456  25.5720  0.00  0.00     0.000 C
ATOM     76   O  BDP B   5      25.866  11.693  25.4910  0.00  0.00     0.000 OA
ATOM     77   O  BDP B   5      26.308   9.756  24.5860  0.00  0.00     0.000 OA
ENDBRANCH 69 75
BRANCH 65 78
ATOM     78  O3  NAG B   6      27.356  11.125  29.4840  0.00  0.00     0.000 O
BRANCH 78 81
ATOM     79  C1  NAG B   6      30.792  11.260  31.0680  0.00  0.00     0.000 C
ATOM     80  C2  NAG B   6      29.259  11.166  31.0050  0.00  0.00     0.000 C
ATOM     81  C3  NAG B   6      28.797  11.059  29.5610  0.00  0.00     0.000 C
ATOM     82  C4  NAG B   6      29.418  12.168  28.7050  0.00  0.00     0.000 C
ATOM     83  C5  NAG B   6      30.935  12.133  28.8540  0.00  0.00     0.000 C
ATOM     84  O5  NAG B   6      31.238  12.344  30.2340  0.00  0.00     0.000 O
BRANCH 80 87
ATOM     85   N  NAG B   6      28.329  11.166  32.1310  0.00  0.00     0.000 N
ATOM     87  HD  NAG B   6      27.538  11.014  32.4480  0.00  0.00     0.000 HD
ATOM     87   C  NAG B   6      27.793  10.059  32.6590  0.00  0.00     0.000 C
ATOM     88   C  NAG B   6      26.890  10.271  33.8320  0.00  0.00     0.000 C
ATOM     89   O  NAG B   6      28.026   8.934  32.2320  0.00  0.00     0.000 OA
ENDBRANCH 80 87
ATOM     90   O  NAG B   6      32.400  12.542  26.9740  0.00  0.00     0.000 O
ATOM     92  HD  NAG B   6      32.300  12.127  27.7280  0.00  0.00     0.000 HD
ATOM     92   O  NAG B   6      32.400  12.542  26.9740  0.00  0.00     0.000 O
ATOM     94  HD  NAG B   6      32.300  12.127  27.7280  0.00  0.00     0.000 HD
ENDBRANCH 78 81
ENDBRANCH 65 78
ENDBRANCH 64 68
ENDBRANCH 48 64
ENDBRANCH 47 50
ENDBRANCH 34 47
ENDBRANCH 33 37
ENDBRANCH 17 33
ENDBRANCH 16 19
ENDBRANCH 1 16
TORSDOF 16
ENDMDL
MODEL 70
REMARK VINA RESULT:      -5.1      7.092     14.988
ROOT
ATOM      1  C1  BDP B   1      28.746  14.458  37.4270  0.00  0.00     0.000 C
ATOM      2  C2  BDP B   1      27.713  15.549  37.6470  0.00  0.00     0.000 C
ATOM      3  C3  BDP B   1      28.254  16.923  37.3150  0.00  0.00     0.000 C
ATOM      4  C4  BDP B   1      29.551  16.902  36.5130  0.00  0.00     0.000 C
ATOM      5  C5  BDP B   1      30.579  15.927  37.0780  0.00  0.00     0.000 C
ATOM      6  O5  BDP B   1      29.978  14.944  37.9390  0.00  0.00     0.000 O
ATOM      7   O  BDP B   1      26.550  15.285  36.8540  0.00  0.00     0.000 O
ATOM      9  HD  BDP B   1      25.949  14.744  36.5440  0.00  0.00     0.000 HD
ATOM      9   O  BDP B   1      28.500  17.658  38.5240  0.00  0.00     0.000 O
ATOM     11  HD  BDP B   1      27.899  17.117  38.2130  0.00  0.00     0.000 HD
ATOM     11   O  BDP B   1      29.286  16.584  35.1420  0.00  0.00     0.000 O
ATOM     13  HD  BDP B   1      28.684  16.044  34.8310  0.00  0.00     0.000 HD
ENDROOT
BRANCH 5 13
ATOM     13   C  BDP B   1      31.571  16.728  37.8470  0.00  0.00     0.000 C
ATOM     14   O  BDP B   1      32.510  16.124  38.4060  0.00  0.00     0.000 OA
ATOM     15   O  BDP B   1      31.449  17.971  37.8860  0.00  0.00     0.000 OA
ENDBRANCH 5 13
BRANCH 1 16
ATOM     16  O3  NAG B   2      28.714  13.307  36.5850  0.00  0.00     0.000 O
BRANCH 16 19
ATOM     17  C1  NAG B   2      27.274  11.756  33.6220  0.00  0.00     0.000 C
ATOM     18  C2  NAG B   2      27.767  13.001  34.3610  0.00  0.00     0.000 C
ATOM     19  C3  NAG B   2      28.881  12.640  35.3330  0.00  0.00     0.000 C
ATOM     20  C4  NAG B   2      28.968  11.129  35.5600  0.00  0.00     0.000 C
ATOM     21  C5  NAG B   2      27.623  10.390  35.5560  0.00  0.00     0.000 C
ATOM     22  O5  NAG B   2      26.677  10.935  34.6280  0.00  0.00     0.000 O
ATOM     23   O  NAG B   2      29.832  10.569  34.5650  0.00  0.00     0.000 O
ATOM     25  HD  NAG B   2      29.526  11.061  33.9220  0.00  0.00     0.000 HD
ATOM     25   C  NAG B   2      26.996  10.401  36.9580  0.00  0.00     0.000 C
ATOM     26   O  NAG B   2      27.493   9.327  37.7700  0.00  0.00     0.000 O
ATOM     28  HD  NAG B   2      27.187   9.820  37.1270  0.00  0.00     0.000 HD
BRANCH 18 30
ATOM     28   N  NAG B   2      28.639  12.890  33.1930  0.00  0.00     0.000 N
ATOM     30  HD  NAG B   2      29.456  12.717  32.9640  0.00  0.00     0.000 HD
ATOM     30   C  NAG B   2      29.026  13.918  32.4230  0.00  0.00     0.000 C
ATOM     31   C  NAG B   2      29.916  13.545  31.2720  0.00  0.00     0.000 C
ATOM     32   O  NAG B   2      28.699  15.064  32.6290  0.00  0.00     0.000 OA
ENDBRANCH 18 30
BRANCH 17 33
ATOM     33  O4  BDP B   3      26.276  11.025  32.8770  0.00  0.00     0.000 O
BRANCH 33 37
ATOM     34  C1  BDP B   3      23.915  10.128  29.4330  0.00  0.00     0.000 C
ATOM     35  C2  BDP B   3      25.055  11.124  29.2560  0.00  0.00     0.000 C
ATOM     36  C3  BDP B   3      26.089  11.073  30.3750  0.00  0.00     0.000 C
ATOM     37  C4  BDP B   3      25.373  11.036  31.7340  0.00  0.00     0.000 C
ATOM     38  C5  BDP B   3      24.424   9.822  31.7170  0.00  0.00     0.000 C
ATOM     39  O5  BDP B   3      23.403  10.143  30.7710  0.00  0.00     0.000 O
ATOM     40   O  BDP B   3      25.629  10.851  27.9760  0.00  0.00     0.000 O
ATOM     42  HD  BDP B   3      24.944  11.327  27.7410  0.00  0.00     0.000 HD
ATOM     42   O  BDP B   3      26.901  12.238  30.2350  0.00  0.00     0.000 O
ATOM     44  HD  BDP B   3      26.217  12.713  30.0000  0.00  0.00     0.000 HD
BRANCH 38 44
ATOM     44   C  BDP B   3      23.804   9.502  33.0420  0.00  0.00     0.000 C
ATOM     45   O  BDP B   3      22.824  10.186  33.4100  0.00  0.00     0.000 OA
ATOM     46   O  BDP B   3      24.276   8.576  33.7370  0.00  0.00     0.000 OA
ENDBRANCH 38 44
BRANCH 34 47
ATOM     47  O3  NAG B   4      22.663  10.670  29.0140  0.00  0.00     0.000 O
BRANCH 47 50
ATOM     48  C1  NAG B   4      20.524   8.685  26.6400  0.00  0.00     0.000 C
ATOM     49  C2  NAG B   4      21.702   9.534  27.0870  0.00  0.00     0.000 C
ATOM     50  C3  NAG B   4      21.589   9.809  28.5820  0.00  0.00     0.000 C
ATOM     51  C4  NAG B   4      20.255  10.447  28.9350  0.00  0.00     0.000 C
ATOM     52  C5  NAG B   4      19.111   9.585  28.4000  0.00  0.00     0.000 C
ATOM     53  O5  NAG B   4      19.288   9.333  27.0000  0.00  0.00     0.000 O
ATOM     54   O  NAG B   4      20.164  10.581  30.3560  0.00  0.00     0.000 O
ATOM     56  HD  NAG B   4      19.562  11.042  29.9380  0.00  0.00     0.000 HD
ATOM     56   C  NAG B   4      17.761  10.256  28.6250  0.00  0.00     0.000 C
ATOM     57   O  NAG B   4      17.746  11.518  27.9450  0.00  0.00     0.000 O
ATOM     59  HD  NAG B   4      17.144  11.980  27.5270  0.00  0.00     0.000 HD
BRANCH 49 61
ATOM     59   N  NAG B   4      22.763   8.801  26.3960  0.00  0.00     0.000 N
ATOM     61  HD  NAG B   4      22.247   9.482  26.2570  0.00  0.00     0.000 HD
ATOM     61   O  NAG B   4      23.855  10.604  25.5850  0.00  0.00     0.000 OA
ATOM     62   C  NAG B   4      23.784   9.398  25.7690  0.00  0.00     0.000 C
ATOM     63   C  NAG B   4      24.880   8.491  25.3080  0.00  0.00     0.000 C
ENDBRANCH 49 61
BRANCH 48 64
ATOM     64  O4  BDP B   5      20.359   7.726  25.6010  0.00  0.00     0.000 O
BRANCH 64 68
ATOM     65  C1  BDP B   5      21.120   8.167  21.5270  0.00  0.00     0.000 C
ATOM     66  C2  BDP B   5      19.733   8.586  21.9950  0.00  0.00     0.000 C
ATOM     67  C3  BDP B   5      19.740   8.781  23.5060  0.00  0.00     0.000 C
ATOM     68  C4  BDP B   5      20.227   7.511  24.1960  0.00  0.00     0.000 C
ATOM     69  C5  BDP B   5      21.567   7.037  23.6490  0.00  0.00     0.000 C
ATOM     70  O5  BDP B   5      21.533   6.974  22.2120  0.00  0.00     0.000 O
ATOM     71   O  BDP B   5      19.334   9.782  21.3080  0.00  0.00     0.000 O
ATOM     73  HD  BDP B   5      19.151  10.513  20.8810  0.00  0.00     0.000 HD
ATOM     73   O  BDP B   5      18.426   9.101  23.9780  0.00  0.00     0.000 O
ATOM     75  HD  BDP B   5      18.243   9.832  23.5510  0.00  0.00     0.000 HD
BRANCH 69 75
ATOM     75   C  BDP B   5      21.848   5.666  24.2070  0.00  0.00     0.000 C
ATOM     76   O  BDP B   5      22.996   5.412  24.6260  0.00  0.00     0.000 OA
ATOM     77   O  BDP B   5      20.929   4.827  24.2380  0.00  0.00     0.000 OA
ENDBRANCH 69 75
BRANCH 65 78
ATOM     78  O3  NAG B   6      21.422   7.348  20.3940  0.00  0.00     0.000 O
BRANCH 78 81
ATOM     79  C1  NAG B   6      23.099   7.847  17.0360  0.00  0.00     0.000 C
ATOM     80  C2  NAG B   6      21.994   7.941  18.1010  0.00  0.00     0.000 C
ATOM     81  C3  NAG B   6      22.497   7.405  19.4310  0.00  0.00     0.000 C
ATOM     82  C4  NAG B   6      23.119   6.015  19.2590  0.00  0.00     0.000 C
ATOM     83  C5  NAG B   6      24.201   6.073  18.1870  0.00  0.00     0.000 C
ATOM     84  O5  NAG B   6      23.583   6.493  16.9700  0.00  0.00     0.000 O
BRANCH 80 87
ATOM     85   N  NAG B   6      21.538   9.328  18.0520  0.00  0.00     0.000 N
ATOM     87  HD  NAG B   6      21.060   9.946  17.6790  0.00  0.00     0.000 HD
ATOM     87   C  NAG B   6      20.273   9.708  18.2680  0.00  0.00     0.000 C
ATOM     88   C  NAG B   6      20.018  11.181  18.2070  0.00  0.00     0.000 C
ATOM     89   O  NAG B   6      19.370   8.917  18.5160  0.00  0.00     0.000 OA
ENDBRANCH 80 87
ATOM     90   O  NAG B   6      26.265   4.831  18.4050  0.00  0.00     0.000 O
ATOM     92  HD  NAG B   6      25.886   5.541  18.0850  0.00  0.00     0.000 HD
ATOM     92   O  NAG B   6      26.265   4.831  18.4050  0.00  0.00     0.000 O
ATOM     94  HD  NAG B   6      25.886   5.541  18.0850  0.00  0.00     0.000 HD
ENDBRANCH 78 81
ENDBRANCH 65 78
ENDBRANCH 64 68
ENDBRANCH 48 64
ENDBRANCH 47 50
ENDBRANCH 34 47
ENDBRANCH 33 37
ENDBRANCH 17 33
ENDBRANCH 16 19
ENDBRANCH 1 16
TORSDOF 16
ENDMDL
MODEL 71
REMARK VINA RESULT:      -5.1      6.298     15.002
ROOT
ATOM      1  C1  BDP B   1      22.149  22.458  29.9650  0.00  0.00     0.000 C
ATOM      2  C2  BDP B   1      21.967  21.925  31.3750  0.00  0.00     0.000 C
ATOM      3  C3  BDP B   1      20.733  22.493  32.0440  0.00  0.00     0.000 C
ATOM      4  C4  BDP B   1      19.763  23.173  31.0840  0.00  0.00     0.000 C
ATOM      5  C5  BDP B   1      20.461  24.121  30.1130  0.00  0.00     0.000 C
ATOM      6  O5  BDP B   1      21.869  23.849  30.0080  0.00  0.00     0.000 O
ATOM      7   O  BDP B   1      21.886  20.496  31.3490  0.00  0.00     0.000 O
ATOM      9  HD  BDP B   1      22.160  19.725  31.0660  0.00  0.00     0.000 HD
ATOM      9   O  BDP B   1      21.114  23.459  33.0360  0.00  0.00     0.000 O
ATOM     11  HD  BDP B   1      21.389  22.688  32.7530  0.00  0.00     0.000 HD
ATOM     11   O  BDP B   1      19.017  22.193  30.3510  0.00  0.00     0.000 O
ATOM     13  HD  BDP B   1      19.291  21.422  30.0690  0.00  0.00     0.000 HD
ENDROOT
BRANCH 5 13
ATOM     13   C  BDP B   1      20.252  25.504  30.6220  0.00  0.00     0.000 C
ATOM     14   O  BDP B   1      21.098  25.976  31.4100  0.00  0.00     0.000 OA
ATOM     15   O  BDP B   1      19.260  26.154  30.2270  0.00  0.00     0.000 OA
ENDBRANCH 5 13
BRANCH 1 16
ATOM     16  O3  NAG B   2      22.226  21.771  28.7170  0.00  0.00     0.000 O
BRANCH 16 19
ATOM     17  C1  NAG B   2      20.803  18.833  27.1060  0.00  0.00     0.000 C
ATOM     18  C2  NAG B   2      20.636  20.085  27.9680  0.00  0.00     0.000 C
ATOM     19  C3  NAG B   2      21.648  21.148  27.5690  0.00  0.00     0.000 C
ATOM     20  C4  NAG B   2      22.755  20.573  26.6810  0.00  0.00     0.000 C
ATOM     21  C5  NAG B   2      23.176  19.135  27.0130  0.00  0.00     0.000 C
ATOM     22  O5  NAG B   2      22.089  18.311  27.4500  0.00  0.00     0.000 O
ATOM     23   O  NAG B   2      22.330  20.652  25.3170  0.00  0.00     0.000 O
ATOM     25  HD  NAG B   2      21.514  20.417  25.4840  0.00  0.00     0.000 HD
ATOM     25   C  NAG B   2      24.264  19.126  28.0960  0.00  0.00     0.000 C
ATOM     26   O  NAG B   2      25.573  19.295  27.5350  0.00  0.00     0.000 O
ATOM     28  HD  NAG B   2      24.757  19.060  27.7030  0.00  0.00     0.000 HD
BRANCH 18 30
ATOM     28   N  NAG B   2      19.583  19.993  26.9570  0.00  0.00     0.000 N
ATOM     30  HD  NAG B   2      19.446  20.063  26.1050  0.00  0.00     0.000 HD
ATOM     30   C  NAG B   2      18.570  20.860  26.8230  0.00  0.00     0.000 C
ATOM     31   C  NAG B   2      17.609  20.542  25.7130  0.00  0.00     0.000 C
ATOM     32   O  NAG B   2      18.427  21.832  27.5270  0.00  0.00     0.000 OA
ENDBRANCH 18 30
BRANCH 17 33
ATOM     33  O4  BDP B   3      20.641  17.419  26.8630  0.00  0.00     0.000 O
BRANCH 33 37
ATOM     34  C1  BDP B   3      20.420  13.258  27.8030  0.00  0.00     0.000 C
ATOM     35  C2  BDP B   3      19.992  14.241  28.8860  0.00  0.00     0.000 C
ATOM     36  C3  BDP B   3      19.694  15.640  28.3580  0.00  0.00     0.000 C
ATOM     37  C4  BDP B   3      20.811  16.073  27.3960  0.00  0.00     0.000 C
ATOM     38  C5  BDP B   3      20.902  15.004  26.2900  0.00  0.00     0.000 C
ATOM     39  O5  BDP B   3      21.401  13.829  26.9290  0.00  0.00     0.000 O
ATOM     40   O  BDP B   3      18.861  13.655  29.5330  0.00  0.00     0.000 O
ATOM     42  HD  BDP B   3      19.503  13.229  29.9290  0.00  0.00     0.000 HD
ATOM     42   O  BDP B   3      19.611  16.498  29.4950  0.00  0.00     0.000 O
ATOM     44  HD  BDP B   3      20.253  16.072  29.8910  0.00  0.00     0.000 HD
BRANCH 38 44
ATOM     44   C  BDP B   3      21.790  15.374  25.1430  0.00  0.00     0.000 C
ATOM     45   O  BDP B   3      21.318  15.292  23.9880  0.00  0.00     0.000 OA
ATOM     46   O  BDP B   3      22.962  15.748  25.3650  0.00  0.00     0.000 OA
ENDBRANCH 38 44
BRANCH 34 47
ATOM     47  O3  NAG B   4      21.435  12.367  28.2610  0.00  0.00     0.000 O
BRANCH 47 50
ATOM     48  C1  NAG B   4      21.933   9.077  26.5080  0.00  0.00     0.000 C
ATOM     49  C2  NAG B   4      21.246  10.099  27.3970  0.00  0.00     0.000 C
ATOM     50  C3  NAG B   4      22.035  11.404  27.3710  0.00  0.00     0.000 C
ATOM     51  C4  NAG B   4      23.488  11.187  27.7610  0.00  0.00     0.000 C
ATOM     52  C5  NAG B   4      24.105  10.100  26.8810  0.00  0.00     0.000 C
ATOM     53  O5  NAG B   4      23.304   8.912  26.9190  0.00  0.00     0.000 O
ATOM     54   O  NAG B   4      24.198  12.419  27.6140  0.00  0.00     0.000 O
ATOM     56  HD  NAG B   4      24.642  11.830  28.0680  0.00  0.00     0.000 HD
ATOM     56   C  NAG B   4      25.525   9.767  27.3250  0.00  0.00     0.000 C
ATOM     57   O  NAG B   4      25.493   9.301  28.6810  0.00  0.00     0.000 O
ATOM     59  HD  NAG B   4      25.937   8.712  29.1350  0.00  0.00     0.000 HD
BRANCH 49 61
ATOM     59   N  NAG B   4      19.852  10.162  26.9560  0.00  0.00     0.000 N
ATOM     61  HD  NAG B   4      20.342   9.696  27.4970  0.00  0.00     0.000 HD
ATOM     61   O  NAG B   4      18.912   9.860  28.9880  0.00  0.00     0.000 OA
ATOM     62   C  NAG B   4      18.811  10.111  27.7960  0.00  0.00     0.000 C
ATOM     63   C  NAG B   4      17.476  10.406  27.1890  0.00  0.00     0.000 C
ENDBRANCH 49 61
BRANCH 48 64
ATOM     64  O4  BDP B   5      21.451   7.973  25.7480  0.00  0.00     0.000 O
BRANCH 64 68
ATOM     65  C1  BDP B   5      21.167   7.916  21.5900  0.00  0.00     0.000 C
ATOM     66  C2  BDP B   5      19.851   7.815  22.3500  0.00  0.00     0.000 C
ATOM     67  C3  BDP B   5      20.054   8.274  23.7880  0.00  0.00     0.000 C
ATOM     68  C4  BDP B   5      21.167   7.465  24.4450  0.00  0.00     0.000 C
ATOM     69  C5  BDP B   5      22.451   7.484  23.6260  0.00  0.00     0.000 C
ATOM     70  O5  BDP B   5      22.181   7.145  22.2540  0.00  0.00     0.000 O
ATOM     71   O  BDP B   5      18.848   8.594  21.6810  0.00  0.00     0.000 O
ATOM     73  HD  BDP B   5      18.287   9.094  21.2500  0.00  0.00     0.000 HD
ATOM     73   O  BDP B   5      18.846   8.114  24.5420  0.00  0.00     0.000 O
ATOM     75  HD  BDP B   5      18.285   8.614  24.1110  0.00  0.00     0.000 HD
BRANCH 69 75
ATOM     75   C  BDP B   5      23.404   6.476  24.2150  0.00  0.00     0.000 C
ATOM     76   O  BDP B   5      24.528   6.862  24.5940  0.00  0.00     0.000 OA
ATOM     77   O  BDP B   5      23.042   5.288  24.3110  0.00  0.00     0.000 OA
ENDBRANCH 69 75
BRANCH 65 78
ATOM     78  O3  NAG B   6      21.580   7.095  20.4940  0.00  0.00     0.000 O
BRANCH 78 81
ATOM     79  C1  NAG B   6      22.912   7.870  17.0360  0.00  0.00     0.000 C
ATOM     80  C2  NAG B   6      21.891   7.802  18.1830  0.00  0.00     0.000 C
ATOM     81  C3  NAG B   6      22.561   7.308  19.4560  0.00  0.00     0.000 C
ATOM     82  C4  NAG B   6      23.337   6.013  19.1960  0.00  0.00     0.000 C
ATOM     83  C5  NAG B   6      24.316   6.231  18.0480  0.00  0.00     0.000 C
ATOM     84  O5  NAG B   6      23.556   6.592  16.8940  0.00  0.00     0.000 O
BRANCH 80 87
ATOM     85   N  NAG B   6      21.271   9.122  18.2510  0.00  0.00     0.000 N
ATOM     87  HD  NAG B   6      20.709   9.702  17.9390  0.00  0.00     0.000 HD
ATOM     87   C  NAG B   6      19.979   9.330  18.5320  0.00  0.00     0.000 C
ATOM     88   C  NAG B   6      19.549  10.761  18.5880  0.00  0.00     0.000 C
ATOM     89   O  NAG B   6      19.187   8.420  18.7480  0.00  0.00     0.000 OA
ENDBRANCH 80 87
ATOM     90   O  NAG B   6      26.530   5.259  18.0720  0.00  0.00     0.000 O
ATOM     92  HD  NAG B   6      26.041   5.921  17.8030  0.00  0.00     0.000 HD
ATOM     92   O  NAG B   6      26.530   5.259  18.0720  0.00  0.00     0.000 O
ATOM     94  HD  NAG B   6      26.041   5.921  17.8030  0.00  0.00     0.000 HD
ENDBRANCH 78 81
ENDBRANCH 65 78
ENDBRANCH 64 68
ENDBRANCH 48 64
ENDBRANCH 47 50
ENDBRANCH 34 47
ENDBRANCH 33 37
ENDBRANCH 17 33
ENDBRANCH 16 19
ENDBRANCH 1 16
TORSDOF 16
ENDMDL
MODEL 72
REMARK VINA RESULT:      -5.1     12.561     20.566
ROOT
ATOM      1  C1  BDP B   1       5.813  16.565  26.9100  0.00  0.00     0.000 C
ATOM      2  C2  BDP B   1       5.214  15.172  26.8460  0.00  0.00     0.000 C
ATOM      3  C3  BDP B   1       3.709  15.205  26.6830  0.00  0.00     0.000 C
ATOM      4  C4  BDP B   1       3.160  16.565  26.2670  0.00  0.00     0.000 C
ATOM      5  C5  BDP B   1       3.742  17.713  27.0860  0.00  0.00     0.000 C
ATOM      6  O5  BDP B   1       4.966  17.343  27.7430  0.00  0.00     0.000 O
ATOM      7   O  BDP B   1       5.799  14.440  25.7640  0.00  0.00     0.000 O
ATOM      9  HD  BDP B   1       6.485  14.192  25.2970  0.00  0.00     0.000 HD
ATOM      9   O  BDP B   1       3.074  14.838  27.9180  0.00  0.00     0.000 O
ATOM     11  HD  BDP B   1       3.761  14.590  27.4510  0.00  0.00     0.000 HD
ATOM     11   O  BDP B   1       3.399  16.796  24.8730  0.00  0.00     0.000 O
ATOM     13  HD  BDP B   1       4.085  16.548  24.4070  0.00  0.00     0.000 HD
ENDROOT
BRANCH 5 13
ATOM     13   C  BDP B   1       2.722  18.092  28.1020  0.00  0.00     0.000 C
ATOM     14   O  BDP B   1       1.878  18.960  27.7940  0.00  0.00     0.000 OA
ATOM     15   O  BDP B   1       2.725  17.517  29.2110  0.00  0.00     0.000 OA
ENDBRANCH 5 13
BRANCH 1 16
ATOM     16  O3  NAG B   2       6.794  17.192  26.0850  0.00  0.00     0.000 O
BRANCH 16 19
ATOM     17  C1  NAG B   2       9.200  18.978  24.0180  0.00  0.00     0.000 C
ATOM     18  C2  NAG B   2       8.553  18.723  25.3790  0.00  0.00     0.000 C
ATOM     19  C3  NAG B   2       8.089  17.278  25.4890  0.00  0.00     0.000 C
ATOM     20  C4  NAG B   2       8.077  16.581  24.1250  0.00  0.00     0.000 C
ATOM     21  C5  NAG B   2       7.682  17.474  22.9410  0.00  0.00     0.000 C
ATOM     22  O5  NAG B   2       8.145  18.824  23.0660  0.00  0.00     0.000 O
ATOM     23   O  NAG B   2       9.370  16.012  23.8940  0.00  0.00     0.000 O
ATOM     25  HD  NAG B   2       9.803  16.689  24.2180  0.00  0.00     0.000 HD
ATOM     25   C  NAG B   2       6.157  17.493  22.7620  0.00  0.00     0.000 C
ATOM     26   O  NAG B   2       5.701  16.383  21.9760  0.00  0.00     0.000 O
ATOM     28  HD  NAG B   2       6.133  17.060  22.2990  0.00  0.00     0.000 HD
BRANCH 18 30
ATOM     28   N  NAG B   2      10.010  18.763  25.4870  0.00  0.00     0.000 N
ATOM     30  HD  NAG B   2      10.722  18.303  25.3060  0.00  0.00     0.000 HD
ATOM     30   C  NAG B   2      10.698  18.691  26.6360  0.00  0.00     0.000 C
ATOM     31   C  NAG B   2      12.191  18.765  26.4850  0.00  0.00     0.000 C
ATOM     32   O  NAG B   2      10.174  18.569  27.7190  0.00  0.00     0.000 OA
ENDBRANCH 18 30
BRANCH 17 33
ATOM     33  O4  BDP B   3       9.616  19.851  22.9460  0.00  0.00     0.000 O
BRANCH 33 37
ATOM     34  C1  BDP B   3      13.291  20.851  21.0120  0.00  0.00     0.000 C
ATOM     35  C2  BDP B   3      13.060  21.421  22.4060  0.00  0.00     0.000 C
ATOM     36  C3  BDP B   3      11.965  20.702  23.1860  0.00  0.00     0.000 C
ATOM     37  C4  BDP B   3      10.740  20.499  22.2810  0.00  0.00     0.000 C
ATOM     38  C5  BDP B   3      11.216  19.728  21.0340  0.00  0.00     0.000 C
ATOM     39  O5  BDP B   3      12.057  20.633  20.3190  0.00  0.00     0.000 O
ATOM     40   O  BDP B   3      14.322  21.369  23.0740  0.00  0.00     0.000 O
ATOM     42  HD  BDP B   3      14.424  22.091  22.6060  0.00  0.00     0.000 HD
ATOM     42   O  BDP B   3      11.661  21.520  24.3150  0.00  0.00     0.000 O
ATOM     44  HD  BDP B   3      11.763  22.241  23.8460  0.00  0.00     0.000 HD
BRANCH 38 44
ATOM     44   C  BDP B   3      10.112  19.250  20.1440  0.00  0.00     0.000 C
ATOM     45   O  BDP B   3       9.501  20.101  19.4610  0.00  0.00     0.000 OA
ATOM     46   O  BDP B   3       9.831  18.032  20.1060  0.00  0.00     0.000 OA
ENDBRANCH 38 44
BRANCH 34 47
ATOM     47  O3  NAG B   4      13.576  21.872  20.0580  0.00  0.00     0.000 O
BRANCH 47 50
ATOM     48  C1  NAG B   4      16.189  21.026  17.4870  0.00  0.00     0.000 C
ATOM     49  C2  NAG B   4      15.622  21.296  18.8700  0.00  0.00     0.000 C
ATOM     50  C3  NAG B   4      14.123  21.547  18.7630  0.00  0.00     0.000 C
ATOM     51  C4  NAG B   4      13.811  22.668  17.7850  0.00  0.00     0.000 C
ATOM     52  C5  NAG B   4      14.465  22.375  16.4340  0.00  0.00     0.000 C
ATOM     53  O5  NAG B   4      15.864  22.115  16.6020  0.00  0.00     0.000 O
ATOM     54   O  NAG B   4      12.393  22.784  17.6450  0.00  0.00     0.000 O
ATOM     56  HD  NAG B   4      12.817  23.466  17.3210  0.00  0.00     0.000 HD
ATOM     56   C  NAG B   4      14.279  23.537  15.4650  0.00  0.00     0.000 C
ATOM     57   O  NAG B   4      14.881  24.712  16.0240  0.00  0.00     0.000 O
ATOM     59  HD  NAG B   4      15.305  25.394  15.7000  0.00  0.00     0.000 HD
BRANCH 49 61
ATOM     59   N  NAG B   4      16.210  20.194  19.6320  0.00  0.00     0.000 N
ATOM     61  HD  NAG B   4      16.399  21.013  19.4230  0.00  0.00     0.000 HD
ATOM     61   O  NAG B   4      16.927  21.426  21.3840  0.00  0.00     0.000 OA
ATOM     62   C  NAG B   4      16.744  20.341  20.8510  0.00  0.00     0.000 C
ATOM     63   C  NAG B   4      17.098  19.073  21.5600  0.00  0.00     0.000 C
ENDBRANCH 49 61
BRANCH 48 64
ATOM     64  O4  BDP B   5      17.293  20.253  17.0260  0.00  0.00     0.000 O
BRANCH 64 68
ATOM     65  C1  BDP B   5      20.882  18.206  16.4780  0.00  0.00     0.000 C
ATOM     66  C2  BDP B   5      19.844  17.511  17.3490  0.00  0.00     0.000 C
ATOM     67  C3  BDP B   5      18.476  18.137  17.1130  0.00  0.00     0.000 C
ATOM     68  C4  BDP B   5      18.535  19.639  17.3680  0.00  0.00     0.000 C
ATOM     69  C5  BDP B   5      19.645  20.313  16.5720  0.00  0.00     0.000 C
ATOM     70  O5  BDP B   5      20.891  19.616  16.7510  0.00  0.00     0.000 O
ATOM     71   O  BDP B   5      19.840  16.104  17.0640  0.00  0.00     0.000 O
ATOM     73  HD  BDP B   5      19.864  15.268  16.8390  0.00  0.00     0.000 HD
ATOM     73   O  BDP B   5      17.498  17.550  17.9800  0.00  0.00     0.000 O
ATOM     75  HD  BDP B   5      17.522  16.714  17.7560  0.00  0.00     0.000 HD
BRANCH 69 75
ATOM     75   C  BDP B   5      19.787  21.731  17.0640  0.00  0.00     0.000 C
ATOM     76   O  BDP B   5      20.116  21.924  18.2510  0.00  0.00     0.000 OA
ATOM     77   O  BDP B   5      19.576  22.668  16.2720  0.00  0.00     0.000 OA
ENDBRANCH 69 75
BRANCH 65 78
ATOM     78  O3  NAG B   6      22.271  18.369  16.7790  0.00  0.00     0.000 O
BRANCH 78 81
ATOM     79  C1  NAG B   6      25.469  17.567  14.9190  0.00  0.00     0.000 C
ATOM     80  C2  NAG B   6      24.167  17.295  15.6890  0.00  0.00     0.000 C
ATOM     81  C3  NAG B   6      23.414  18.594  15.9260  0.00  0.00     0.000 C
ATOM     82  C4  NAG B   6      24.332  19.651  16.5500  0.00  0.00     0.000 C
ATOM     83  C5  NAG B   6      25.570  19.825  15.6780  0.00  0.00     0.000 C
ATOM     84  O5  NAG B   6      26.237  18.563  15.6170  0.00  0.00     0.000 O
BRANCH 80 87
ATOM     85   N  NAG B   6      23.440  16.280  14.9310  0.00  0.00     0.000 N
ATOM     87  HD  NAG B   6      23.339  15.454  14.6920  0.00  0.00     0.000 HD
ATOM     87   C  NAG B   6      22.745  15.283  15.4920  0.00  0.00     0.000 C
ATOM     88   C  NAG B   6      22.041  14.368  14.5400  0.00  0.00     0.000 C
ATOM     89   O  NAG B   6      22.665  15.121  16.7040  0.00  0.00     0.000 OA
ENDBRANCH 80 87
ATOM     90   O  NAG B   6      26.559  22.000  15.3050  0.00  0.00     0.000 O
ATOM     92  HD  NAG B   6      26.419  21.211  14.9770  0.00  0.00     0.000 HD
ATOM     92   O  NAG B   6      26.559  22.000  15.3050  0.00  0.00     0.000 O
ATOM     94  HD  NAG B   6      26.419  21.211  14.9770  0.00  0.00     0.000 HD
ENDBRANCH 78 81
ENDBRANCH 65 78
ENDBRANCH 64 68
ENDBRANCH 48 64
ENDBRANCH 47 50
ENDBRANCH 34 47
ENDBRANCH 33 37
ENDBRANCH 17 33
ENDBRANCH 16 19
ENDBRANCH 1 16
TORSDOF 16
ENDMDL
MODEL 73
REMARK VINA RESULT:      -5.0      4.618     15.656
ROOT
ATOM      1  C1  BDP B   1      15.467  16.132  32.9400  0.00  0.00     0.000 C
ATOM      2  C2  BDP B   1      14.737  17.016  33.9360  0.00  0.00     0.000 C
ATOM      3  C3  BDP B   1      15.381  18.379  34.0670  0.00  0.00     0.000 C
ATOM      4  C4  BDP B   1      16.371  18.708  32.9540  0.00  0.00     0.000 C
ATOM      5  C5  BDP B   1      17.340  17.565  32.6700  0.00  0.00     0.000 C
ATOM      6  O5  BDP B   1      16.857  16.307  33.1710  0.00  0.00     0.000 O
ATOM      7   O  BDP B   1      13.369  17.166  33.5430  0.00  0.00     0.000 O
ATOM      9  HD  BDP B   1      12.623  16.839  33.2490  0.00  0.00     0.000 HD
ATOM      9   O  BDP B   1      16.084  18.472  35.3160  0.00  0.00     0.000 O
ATOM     11  HD  BDP B   1      15.337  18.145  35.0230  0.00  0.00     0.000 HD
ATOM     11   O  BDP B   1      15.673  19.061  31.7540  0.00  0.00     0.000 O
ATOM     13  HD  BDP B   1      14.927  18.734  31.4600  0.00  0.00     0.000 HD
ENDROOT
BRANCH 5 13
ATOM     13   C  BDP B   1      18.630  17.907  33.3300  0.00  0.00     0.000 C
ATOM     14   O  BDP B   1      19.164  19.000  33.0510  0.00  0.00     0.000 OA
ATOM     15   O  BDP B   1      19.121  17.107  34.1550  0.00  0.00     0.000 OA
ENDBRANCH 5 13
BRANCH 1 16
ATOM     16  O3  NAG B   2      15.003  15.497  31.7500  0.00  0.00     0.000 O
BRANCH 16 19
ATOM     17  C1  NAG B   2      16.846  13.308  29.4990  0.00  0.00     0.000 C
ATOM     18  C2  NAG B   2      16.278  13.610  30.8870  0.00  0.00     0.000 C
ATOM     19  C3  NAG B   2      15.016  14.452  30.7770  0.00  0.00     0.000 C
ATOM     20  C4  NAG B   2      14.851  15.048  29.3760  0.00  0.00     0.000 C
ATOM     21  C5  NAG B   2      16.160  15.451  28.6820  0.00  0.00     0.000 C
ATOM     22  O5  NAG B   2      17.254  14.575  28.9780  0.00  0.00     0.000 O
ATOM     23   O  NAG B   2      14.140  14.109  28.5630  0.00  0.00     0.000 O
ATOM     25  HD  NAG B   2      14.557  13.417  28.8750  0.00  0.00     0.000 HD
ATOM     25   C  NAG B   2      16.559  16.882  29.0680  0.00  0.00     0.000 C
ATOM     26   O  NAG B   2      15.911  17.856  28.2370  0.00  0.00     0.000 O
ATOM     28  HD  NAG B   2      16.328  17.164  28.5490  0.00  0.00     0.000 HD
BRANCH 18 30
ATOM     28   N  NAG B   2      16.276  12.157  30.7210  0.00  0.00     0.000 N
ATOM     30  HD  NAG B   2      16.154  11.537  30.1280  0.00  0.00     0.000 HD
ATOM     30   C  NAG B   2      15.365  11.325  31.2470  0.00  0.00     0.000 C
ATOM     31   C  NAG B   2      15.586   9.871  30.9410  0.00  0.00     0.000 C
ATOM     32   O  NAG B   2      14.428  11.699  31.9130  0.00  0.00     0.000 OA
ENDBRANCH 18 30
BRANCH 17 33
ATOM     33  O4  BDP B   3      17.927  12.948  28.6130  0.00  0.00     0.000 O
BRANCH 33 37
ATOM     34  C1  BDP B   3      20.523  10.321  26.4670  0.00  0.00     0.000 C
ATOM     35  C2  BDP B   3      19.172   9.765  26.9000  0.00  0.00     0.000 C
ATOM     36  C3  BDP B   3      18.157  10.842  27.2670  0.00  0.00     0.000 C
ATOM     37  C4  BDP B   3      18.826  11.889  28.1710  0.00  0.00     0.000 C
ATOM     38  C5  BDP B   3      20.053  12.431  27.4120  0.00  0.00     0.000 C
ATOM     39  O5  BDP B   3      20.981  11.348  27.3540  0.00  0.00     0.000 O
ATOM     40   O  BDP B   3      18.718   8.938  25.8270  0.00  0.00     0.000 O
ATOM     42  HD  BDP B   3      19.264   8.394  26.2210  0.00  0.00     0.000 HD
ATOM     42   O  BDP B   3      17.079  10.182  27.9280  0.00  0.00     0.000 O
ATOM     44  HD  BDP B   3      17.626   9.638  28.3220  0.00  0.00     0.000 HD
BRANCH 38 44
ATOM     44   C  BDP B   3      20.701  13.620  28.0520  0.00  0.00     0.000 C
ATOM     45   O  BDP B   3      20.381  14.755  27.6360  0.00  0.00     0.000 OA
ATOM     46   O  BDP B   3      21.533  13.451  28.9700  0.00  0.00     0.000 OA
ENDBRANCH 38 44
BRANCH 34 47
ATOM     47  O3  NAG B   4      21.605   9.519  26.9340  0.00  0.00     0.000 O
BRANCH 47 50
ATOM     48  C1  NAG B   4      24.053   7.790  24.6600  0.00  0.00     0.000 C
ATOM     49  C2  NAG B   4      22.762   7.988  25.4350  0.00  0.00     0.000 C
ATOM     50  C3  NAG B   4      22.795   9.340  26.1380  0.00  0.00     0.000 C
ATOM     51  C4  NAG B   4      24.023   9.480  27.0230  0.00  0.00     0.000 C
ATOM     52  C5  NAG B   4      25.286   9.201  26.2070  0.00  0.00     0.000 C
ATOM     53  O5  NAG B   4      25.182   7.935  25.5440  0.00  0.00     0.000 O
ATOM     54   O  NAG B   4      24.056  10.802  27.5690  0.00  0.00     0.000 O
ATOM     56  HD  NAG B   4      24.603  10.262  27.9680  0.00  0.00     0.000 HD
ATOM     56   C  NAG B   4      26.529   9.210  27.0890  0.00  0.00     0.000 C
ATOM     57   O  NAG B   4      26.396   8.196  28.0940  0.00  0.00     0.000 O
ATOM     59  HD  NAG B   4      26.943   7.656  28.4940  0.00  0.00     0.000 HD
BRANCH 49 61
ATOM     59   N  NAG B   4      21.877   7.478  24.3860  0.00  0.00     0.000 N
ATOM     61  HD  NAG B   4      22.274   7.189  25.1000  0.00  0.00     0.000 HD
ATOM     61   O  NAG B   4      20.529   6.265  25.7320  0.00  0.00     0.000 OA
ATOM     62   C  NAG B   4      20.799   6.724  24.6320  0.00  0.00     0.000 C
ATOM     63   C  NAG B   4      19.900   6.479  23.4620  0.00  0.00     0.000 C
ENDBRANCH 49 61
BRANCH 48 64
ATOM     64  O4  BDP B   5      24.372   7.067  23.4750  0.00  0.00     0.000 O
BRANCH 64 68
ATOM     65  C1  BDP B   5      26.045   5.532  19.9800  0.00  0.00     0.000 C
ATOM     66  C2  BDP B   5      27.029   5.923  21.0750  0.00  0.00     0.000 C
ATOM     67  C3  BDP B   5      26.294   6.048  22.4030  0.00  0.00     0.000 C
ATOM     68  C4  BDP B   5      25.144   7.040  22.2750  0.00  0.00     0.000 C
ATOM     69  C5  BDP B   5      24.221   6.703  21.1110  0.00  0.00     0.000 C
ATOM     70  O5  BDP B   5      24.980   6.493  19.9080  0.00  0.00     0.000 O
ATOM     71   O  BDP B   5      28.085   4.953  21.1420  0.00  0.00     0.000 O
ATOM     73  HD  BDP B   5      28.686   4.330  21.1540  0.00  0.00     0.000 HD
ATOM     73   O  BDP B   5      27.187   6.490  23.4320  0.00  0.00     0.000 O
ATOM     75  HD  BDP B   5      27.788   5.867  23.4440  0.00  0.00     0.000 HD
BRANCH 69 75
ATOM     75   C  BDP B   5      23.269   7.855  20.9120  0.00  0.00     0.000 C
ATOM     76   O  BDP B   5      22.084   7.724  21.2800  0.00  0.00     0.000 OA
ATOM     77   O  BDP B   5      23.692   8.903  20.3910  0.00  0.00     0.000 OA
ENDBRANCH 69 75
BRANCH 65 78
ATOM     78  O3  NAG B   6      26.140   5.871  18.5940  0.00  0.00     0.000 O
BRANCH 78 81
ATOM     79  C1  NAG B   6      26.059   3.896  15.3640  0.00  0.00     0.000 C
ATOM     80  C2  NAG B   6      26.619   4.417  16.6980  0.00  0.00     0.000 C
ATOM     81  C3  NAG B   6      25.573   5.253  17.4180  0.00  0.00     0.000 C
ATOM     82  C4  NAG B   6      24.998   6.327  16.4880  0.00  0.00     0.000 C
ATOM     83  C5  NAG B   6      24.471   5.668  15.2180  0.00  0.00     0.000 C
ATOM     84  O5  NAG B   6      25.567   5.004  14.5890  0.00  0.00     0.000 O
BRANCH 80 87
ATOM     85   N  NAG B   6      27.086   3.258  17.4530  0.00  0.00     0.000 N
ATOM     87  HD  NAG B   6      27.671   2.630  17.5750  0.00  0.00     0.000 HD
ATOM     87   C  NAG B   6      28.214   3.238  18.1730  0.00  0.00     0.000 C
ATOM     88   C  NAG B   6      28.497   1.963  18.9020  0.00  0.00     0.000 C
ATOM     89   O  NAG B   6      28.972   4.198  18.2550  0.00  0.00     0.000 OA
ENDBRANCH 80 87
ATOM     90   O  NAG B   6      22.436   6.425  14.1530  0.00  0.00     0.000 O
ATOM     92  HD  NAG B   6      22.956   5.750  14.3070  0.00  0.00     0.000 HD
ATOM     92   O  NAG B   6      22.436   6.425  14.1530  0.00  0.00     0.000 O
ATOM     94  HD  NAG B   6      22.956   5.750  14.3070  0.00  0.00     0.000 HD
ENDBRANCH 78 81
ENDBRANCH 65 78
ENDBRANCH 64 68
ENDBRANCH 48 64
ENDBRANCH 47 50
ENDBRANCH 34 47
ENDBRANCH 33 37
ENDBRANCH 17 33
ENDBRANCH 16 19
ENDBRANCH 1 16
TORSDOF 16
ENDMDL
MODEL 74
REMARK VINA RESULT:      -4.9     11.200     17.642
ROOT
ATOM      1  C1  BDP B   1      21.749  10.224  19.1770  0.00  0.00     0.000 C
ATOM      2  C2  BDP B   1      22.964   9.515  19.7470  0.00  0.00     0.000 C
ATOM      3  C3  BDP B   1      22.794   8.011  19.7590  0.00  0.00     0.000 C
ATOM      4  C4  BDP B   1      21.640   7.509  18.8990  0.00  0.00     0.000 C
ATOM      5  C5  BDP B   1      20.355   8.302  19.1140  0.00  0.00     0.000 C
ATOM      6  O5  BDP B   1      20.603   9.583  19.7190  0.00  0.00     0.000 O
ATOM      7   O  BDP B   1      24.129   9.862  18.9910  0.00  0.00     0.000 O
ATOM      9  HD  BDP B   1      24.627  10.444  18.5870  0.00  0.00     0.000 HD
ATOM      9   O  BDP B   1      22.567   7.554  21.1020  0.00  0.00     0.000 O
ATOM     11  HD  BDP B   1      23.066   8.136  20.6980  0.00  0.00     0.000 HD
ATOM     11   O  BDP B   1      22.000   7.541  17.5120  0.00  0.00     0.000 O
ATOM     13  HD  BDP B   1      22.499   8.123  17.1090  0.00  0.00     0.000 HD
ENDROOT
BRANCH 5 13
ATOM     13   C  BDP B   1      19.479   7.490  20.0020  0.00  0.00     0.000 C
ATOM     14   O  BDP B   1      19.966   6.474  20.5410  0.00  0.00     0.000 OA
ATOM     15   O  BDP B   1      18.302   7.860  20.2000  0.00  0.00     0.000 OA
ENDBRANCH 5 13
BRANCH 1 16
ATOM     16  O3  NAG B   2      21.628  11.106  18.0620  0.00  0.00     0.000 O
BRANCH 16 19
ATOM     17  C1  NAG B   2      22.463  13.145  15.1640  0.00  0.00     0.000 C
ATOM     18  C2  NAG B   2      22.780  11.979  16.1010  0.00  0.00     0.000 C
ATOM     19  C3  NAG B   2      21.499  11.384  16.6670  0.00  0.00     0.000 C
ATOM     20  C4  NAG B   2      20.295  12.301  16.4320  0.00  0.00     0.000 C
ATOM     21  C5  NAG B   2      20.597  13.804  16.5090  0.00  0.00     0.000 C
ATOM     22  O5  NAG B   2      21.889  14.152  16.0000  0.00  0.00     0.000 O
ATOM     23   O  NAG B   2      19.725  11.985  15.1580  0.00  0.00     0.000 O
ATOM     25  HD  NAG B   2      20.489  11.886  14.7620  0.00  0.00     0.000 HD
ATOM     25   C  NAG B   2      20.490  14.304  17.9570  0.00  0.00     0.000 C
ATOM     26   O  NAG B   2      19.138  14.638  18.3050  0.00  0.00     0.000 O
ATOM     28  HD  NAG B   2      19.902  14.538  17.9090  0.00  0.00     0.000 HD
BRANCH 18 30
ATOM     28   N  NAG B   2      22.667  11.443  14.7450  0.00  0.00     0.000 N
ATOM     30  HD  NAG B   2      22.120  11.026  14.2180  0.00  0.00     0.000 HD
ATOM     30   C  NAG B   2      23.347  10.385  14.2780  0.00  0.00     0.000 C
ATOM     31   C  NAG B   2      23.065  10.035  12.8450  0.00  0.00     0.000 C
ATOM     32   O  NAG B   2      24.126   9.747  14.9470  0.00  0.00     0.000 OA
ENDBRANCH 18 30
BRANCH 17 33
ATOM     33  O4  BDP B   3      22.820  14.363  14.4750  0.00  0.00     0.000 O
BRANCH 33 37
ATOM     34  C1  BDP B   3      20.740  17.469  12.4090  0.00  0.00     0.000 C
ATOM     35  C2  BDP B   3      20.896  16.135  11.6870  0.00  0.00     0.000 C
ATOM     36  C3  BDP B   3      21.254  14.978  12.6130  0.00  0.00     0.000 C
ATOM     37  C4  BDP B   3      22.375  15.414  13.5690  0.00  0.00     0.000 C
ATOM     38  C5  BDP B   3      21.880  16.668  14.3140  0.00  0.00     0.000 C
ATOM     39  O5  BDP B   3      21.812  17.700  13.3300  0.00  0.00     0.000 O
ATOM     40   O  BDP B   3      19.669  15.911  10.9900  0.00  0.00     0.000 O
ATOM     42  HD  BDP B   3      20.062  16.454  10.4410  0.00  0.00     0.000 HD
ATOM     42   O  BDP B   3      21.659  13.895  11.7780  0.00  0.00     0.000 O
ATOM     44  HD  BDP B   3      22.052  14.437  11.2290  0.00  0.00     0.000 HD
BRANCH 38 44
ATOM     44   C  BDP B   3      22.758  17.103  15.4450  0.00  0.00     0.000 C
ATOM     45   O  BDP B   3      23.975  17.268  15.2110  0.00  0.00     0.000 OA
ATOM     46   O  BDP B   3      22.261  17.287  16.5780  0.00  0.00     0.000 OA
ENDBRANCH 38 44
BRANCH 34 47
ATOM     47  O3  NAG B   4      21.248  18.556  11.6380  0.00  0.00     0.000 O
BRANCH 47 50
ATOM     48  C1  NAG B   4      19.339  21.640  12.6340  0.00  0.00     0.000 C
ATOM     49  C2  NAG B   4      19.548  20.181  12.2700  0.00  0.00     0.000 C
ATOM     50  C3  NAG B   4      21.034  19.921  12.0500  0.00  0.00     0.000 C
ATOM     51  C4  NAG B   4      21.618  20.863  11.0080  0.00  0.00     0.000 C
ATOM     52  C5  NAG B   4      21.315  22.312  11.3910  0.00  0.00     0.000 C
ATOM     53  O5  NAG B   4      19.911  22.486  11.6180  0.00  0.00     0.000 O
ATOM     54   O  NAG B   4      23.029  20.647  10.9240  0.00  0.00     0.000 O
ATOM     56  HD  NAG B   4      22.722  21.113  10.2610  0.00  0.00     0.000 HD
ATOM     56   C  NAG B   4      21.776  23.279  10.3060  0.00  0.00     0.000 C
ATOM     57   O  NAG B   4      21.091  22.972   9.0850  0.00  0.00     0.000 O
ATOM     59  HD  NAG B   4      20.785  23.438   8.4220  0.00  0.00     0.000 HD
BRANCH 49 61
ATOM     59   N  NAG B   4      18.470  20.098  11.2850  0.00  0.00     0.000 N
ATOM     61  HD  NAG B   4      19.069  19.581  11.6370  0.00  0.00     0.000 HD
ATOM     61   O  NAG B   4      17.658  18.093  11.9370  0.00  0.00     0.000 OA
ATOM     62   C  NAG B   4      17.577  19.101  11.2500  0.00  0.00     0.000 C
ATOM     63   C  NAG B   4      16.426  19.296  10.3150  0.00  0.00     0.000 C
ENDBRANCH 49 61
BRANCH 48 64
ATOM     64  O4  BDP B   5      18.362  22.313  13.4230  0.00  0.00     0.000 O
BRANCH 64 68
ATOM     65  C1  BDP B   5      16.054  21.861  16.8640  0.00  0.00     0.000 C
ATOM     66  C2  BDP B   5      15.873  23.170  16.1060  0.00  0.00     0.000 C
ATOM     67  C3  BDP B   5      16.421  23.024  14.6930  0.00  0.00     0.000 C
ATOM     68  C4  BDP B   5      17.878  22.576  14.7390  0.00  0.00     0.000 C
ATOM     69  C5  BDP B   5      18.068  21.325  15.5860  0.00  0.00     0.000 C
ATOM     70  O5  BDP B   5      17.439  21.483  16.8700  0.00  0.00     0.000 O
ATOM     71   O  BDP B   5      14.484  23.536  16.1010  0.00  0.00     0.000 O
ATOM     73  HD  BDP B   5      13.634  23.699  16.1110  0.00  0.00     0.000 HD
ATOM     73   O  BDP B   5      16.331  24.267  13.9870  0.00  0.00     0.000 O
ATOM     75  HD  BDP B   5      15.481  24.430  13.9970  0.00  0.00     0.000 HD
BRANCH 69 75
ATOM     75   C  BDP B   5      19.547  21.100  15.7740  0.00  0.00     0.000 C
ATOM     76   O  BDP B   5      19.998  19.943  15.6560  0.00  0.00     0.000 OA
ATOM     77   O  BDP B   5      20.276  22.074  16.0380  0.00  0.00     0.000 OA
ENDBRANCH 69 75
BRANCH 65 78
ATOM     78  O3  NAG B   6      16.242  21.716  18.2740  0.00  0.00     0.000 O
BRANCH 78 81
ATOM     79  C1  NAG B   6      14.707  19.376  20.8240  0.00  0.00     0.000 C
ATOM     80  C2  NAG B   6      14.760  20.505  19.7820  0.00  0.00     0.000 C
ATOM     81  C3  NAG B   6      16.136  20.565  19.1400  0.00  0.00     0.000 C
ATOM     82  C4  NAG B   6      17.235  20.610  20.2070  0.00  0.00     0.000 C
ATOM     83  C5  NAG B   6      17.067  19.430  21.1570  0.00  0.00     0.000 C
ATOM     84  O5  NAG B   6      15.781  19.546  21.7660  0.00  0.00     0.000 O
BRANCH 80 87
ATOM     85   N  NAG B   6      13.644  20.274  18.8700  0.00  0.00     0.000 N
ATOM     87  HD  NAG B   6      12.795  20.311  18.7010  0.00  0.00     0.000 HD
ATOM     87   C  NAG B   6      12.897  21.250  18.3380  0.00  0.00     0.000 C
ATOM     88   C  NAG B   6      11.822  20.805  17.3980  0.00  0.00     0.000 C
ATOM     89   O  NAG B   6      13.076  22.437  18.5820  0.00  0.00     0.000 OA
ENDBRANCH 80 87
ATOM     90   O  NAG B   6      18.975  18.227  22.0290  0.00  0.00     0.000 O
ATOM     92  HD  NAG B   6      18.143  18.178  21.7940  0.00  0.00     0.000 HD
ATOM     92   O  NAG B   6      18.975  18.227  22.0290  0.00  0.00     0.000 O
ATOM     94  HD  NAG B   6      18.143  18.178  21.7940  0.00  0.00     0.000 HD
ENDBRANCH 78 81
ENDBRANCH 65 78
ENDBRANCH 64 68
ENDBRANCH 48 64
ENDBRANCH 47 50
ENDBRANCH 34 47
ENDBRANCH 33 37
ENDBRANCH 17 33
ENDBRANCH 16 19
ENDBRANCH 1 16
TORSDOF 16
ENDMDL
MODEL 75
REMARK VINA RESULT:      -4.9      7.248     14.223
ROOT
ATOM      1  C1  BDP B   1      33.594  10.251  33.7450  0.00  0.00     0.000 C
ATOM      2  C2  BDP B   1      34.003  11.581  33.1380  0.00  0.00     0.000 C
ATOM      3  C3  BDP B   1      35.073  11.420  32.0800  0.00  0.00     0.000 C
ATOM      4  C4  BDP B   1      35.258   9.986  31.5960  0.00  0.00     0.000 C
ATOM      5  C5  BDP B   1      35.333   8.982  32.7420  0.00  0.00     0.000 C
ATOM      6  O5  BDP B   1      34.787   9.511  33.9630  0.00  0.00     0.000 O
ATOM      7   O  BDP B   1      32.859  12.230  32.5720  0.00  0.00     0.000 O
ATOM      9  HD  BDP B   1      32.029  12.473  32.6070  0.00  0.00     0.000 HD
ATOM      9   O  BDP B   1      36.337  11.876  32.5870  0.00  0.00     0.000 O
ATOM     11  HD  BDP B   1      35.507  12.119  32.6220  0.00  0.00     0.000 HD
ATOM     11   O  BDP B   1      34.200   9.621  30.7010  0.00  0.00     0.000 O
ATOM     13  HD  BDP B   1      33.370   9.864  30.7360  0.00  0.00     0.000 HD
ENDROOT
BRANCH 5 13
ATOM     13   C  BDP B   1      36.769   8.645  32.9390  0.00  0.00     0.000 C
ATOM     14   O  BDP B   1      37.454   9.388  33.6710  0.00  0.00     0.000 OA
ATOM     15   O  BDP B   1      37.234   7.622  32.3920  0.00  0.00     0.000 OA
ENDBRANCH 5 13
BRANCH 1 16
ATOM     16  O3  NAG B   2      32.322   9.610  33.8030  0.00  0.00     0.000 O
BRANCH 16 19
ATOM     17  C1  NAG B   2      29.020   9.232  32.3150  0.00  0.00     0.000 C
ATOM     18  C2  NAG B   2      30.522   9.479  32.1660  0.00  0.00     0.000 C
ATOM     19  C3  NAG B   2      31.292   8.774  33.2720  0.00  0.00     0.000 C
ATOM     20  C4  NAG B   2      30.368   8.313  34.4020  0.00  0.00     0.000 C
ATOM     21  C5  NAG B   2      29.188   9.248  34.7020  0.00  0.00     0.000 C
ATOM     22  O5  NAG B   2      28.653   9.882  33.5340  0.00  0.00     0.000 O
ATOM     23   O  NAG B   2      29.880   7.005  34.0860  0.00  0.00     0.000 O
ATOM     25  HD  NAG B   2      29.760   7.176  33.2460  0.00  0.00     0.000 HD
ATOM     25   C  NAG B   2      29.602  10.336  35.7040  0.00  0.00     0.000 C
ATOM     26   O  NAG B   2      29.484   9.882  37.0590  0.00  0.00     0.000 O
ATOM     28  HD  NAG B   2      29.364  10.054  36.2190  0.00  0.00     0.000 HD
BRANCH 18 30
ATOM     28   N  NAG B   2      30.630   9.158  30.7430  0.00  0.00     0.000 N
ATOM     30  HD  NAG B   2      30.168   9.133  30.0110  0.00  0.00     0.000 HD
ATOM     30   C  NAG B   2      30.806   7.925  30.2450  0.00  0.00     0.000 C
ATOM     31   C  NAG B   2      30.898   7.856  28.7470  0.00  0.00     0.000 C
ATOM     32   O  NAG B   2      30.880   6.934  30.9330  0.00  0.00     0.000 OA
ENDBRANCH 18 30
BRANCH 17 33
ATOM     33  O4  BDP B   3      27.639   9.583  32.0790  0.00  0.00     0.000 O
BRANCH 33 37
ATOM     34  C1  BDP B   3      24.829   9.389  28.8680  0.00  0.00     0.000 C
ATOM     35  C2  BDP B   3      26.003  10.348  28.7100  0.00  0.00     0.000 C
ATOM     36  C3  BDP B   3      27.158  10.062  29.6630  0.00  0.00     0.000 C
ATOM     37  C4  BDP B   3      26.608   9.827  31.0780  0.00  0.00     0.000 C
ATOM     38  C5  BDP B   3      25.586   8.678  30.9870  0.00  0.00     0.000 C
ATOM     39  O5  BDP B   3      24.483   9.200  30.2450  0.00  0.00     0.000 O
ATOM     40   O  BDP B   3      26.401  10.269  27.3390  0.00  0.00     0.000 O
ATOM     42  HD  BDP B   3      25.726  10.809  27.2740  0.00  0.00     0.000 HD
ATOM     42   O  BDP B   3      28.023  11.195  29.6100  0.00  0.00     0.000 O
ATOM     44  HD  BDP B   3      27.348  11.734  29.5450  0.00  0.00     0.000 HD
BRANCH 38 44
ATOM     44   C  BDP B   3      25.109   8.167  32.3110  0.00  0.00     0.000 C
ATOM     45   O  BDP B   3      24.353   8.902  32.9840  0.00  0.00     0.000 OA
ATOM     46   O  BDP B   3      25.474   7.038  32.7050  0.00  0.00     0.000 OA
ENDBRANCH 38 44
BRANCH 34 47
ATOM     47  O3  NAG B   4      23.575  10.050  28.7070  0.00  0.00     0.000 O
BRANCH 47 50
ATOM     48  C1  NAG B   4      20.947   8.412  26.5720  0.00  0.00     0.000 C
ATOM     49  C2  NAG B   4      22.246   9.134  26.8840  0.00  0.00     0.000 C
ATOM     50  C3  NAG B   4      22.380   9.306  28.3930  0.00  0.00     0.000 C
ATOM     51  C4  NAG B   4      21.171  10.015  28.9840  0.00  0.00     0.000 C
ATOM     52  C5  NAG B   4      19.891   9.284  28.5790  0.00  0.00     0.000 C
ATOM     53  O5  NAG B   4      19.837   9.123  27.1560  0.00  0.00     0.000 O
ATOM     54   O  NAG B   4      21.303  10.050  30.4080  0.00  0.00     0.000 O
ATOM     56  HD  NAG B   4      20.688  10.586  30.1160  0.00  0.00     0.000 HD
ATOM     56   C  NAG B   4      18.652  10.036  29.0490  0.00  0.00     0.000 C
ATOM     57   O  NAG B   4      18.645  11.342  28.4580  0.00  0.00     0.000 O
ATOM     59  HD  NAG B   4      18.030  11.878  28.1660  0.00  0.00     0.000 HD
BRANCH 49 61
ATOM     59   N  NAG B   4      23.175   8.374  26.0470  0.00  0.00     0.000 N
ATOM     61  HD  NAG B   4      22.677   9.081  25.9890  0.00  0.00     0.000 HD
ATOM     61   O  NAG B   4      24.237  10.148  25.1380  0.00  0.00     0.000 OA
ATOM     62   C  NAG B   4      24.134   8.942  25.3060  0.00  0.00     0.000 C
ATOM     63   C  NAG B   4      25.118   7.999  24.6890  0.00  0.00     0.000 C
ENDBRANCH 49 61
BRANCH 48 64
ATOM     64  O4  BDP B   5      20.549   7.547  25.5120  0.00  0.00     0.000 O
BRANCH 64 68
ATOM     65  C1  BDP B   5      21.132   8.192  21.4360  0.00  0.00     0.000 C
ATOM     66  C2  BDP B   5      19.776   8.608  21.9900  0.00  0.00     0.000 C
ATOM     67  C3  BDP B   5      19.854   8.722  23.5070  0.00  0.00     0.000 C
ATOM     68  C4  BDP B   5      20.349   7.410  24.1060  0.00  0.00     0.000 C
ATOM     69  C5  BDP B   5      21.654   6.945  23.4730  0.00  0.00     0.000 C
ATOM     70  O5  BDP B   5      21.554   6.958  22.0380  0.00  0.00     0.000 O
ATOM     71   O  BDP B   5      19.367   9.844  21.3850  0.00  0.00     0.000 O
ATOM     73  HD  BDP B   5      19.178  10.600  21.0060  0.00  0.00     0.000 HD
ATOM     73   O  BDP B   5      18.569   9.036  24.0550  0.00  0.00     0.000 O
ATOM     75  HD  BDP B   5      18.380   9.792  23.6760  0.00  0.00     0.000 HD
BRANCH 69 75
ATOM     75   C  BDP B   5      21.936   5.541  23.9450  0.00  0.00     0.000 C
ATOM     76   O  BDP B   5      21.125   4.638  23.6570  0.00  0.00     0.000 OA
ATOM     77   O  BDP B   5      22.969   5.322  24.6040  0.00  0.00     0.000 OA
ENDBRANCH 69 75
BRANCH 65 78
ATOM     78  O3  NAG B   6      21.367   7.430  20.2490  0.00  0.00     0.000 O
BRANCH 78 81
ATOM     79  C1  NAG B   6      23.016   7.995  16.8880  0.00  0.00     0.000 C
ATOM     80  C2  NAG B   6      21.931   8.090  17.9720  0.00  0.00     0.000 C
ATOM     81  C3  NAG B   6      22.430   7.483  19.2730  0.00  0.00     0.000 C
ATOM     82  C4  NAG B   6      22.994   6.078  19.0380  0.00  0.00     0.000 C
ATOM     83  C5  NAG B   6      24.064   6.136  17.9530  0.00  0.00     0.000 C
ATOM     84  O5  NAG B   6      23.446   6.627  16.7630  0.00  0.00     0.000 O
BRANCH 80 87
ATOM     85   N  NAG B   6      21.537   9.496  18.0230  0.00  0.00     0.000 N
ATOM     87  HD  NAG B   6      21.097  10.162  17.6870  0.00  0.00     0.000 HD
ATOM     87   C  NAG B   6      20.283   9.915  18.2340  0.00  0.00     0.000 C
ATOM     88   C  NAG B   6      20.095  11.398  18.2840  0.00  0.00     0.000 C
ATOM     89   O  NAG B   6      19.340   9.149  18.3930  0.00  0.00     0.000 OA
ENDBRANCH 80 87
ATOM     90   O  NAG B   6      26.079   4.807  18.0910  0.00  0.00     0.000 O
ATOM     92  HD  NAG B   6      25.725   5.543  17.8040  0.00  0.00     0.000 HD
ATOM     92   O  NAG B   6      26.079   4.807  18.0910  0.00  0.00     0.000 O
ATOM     94  HD  NAG B   6      25.725   5.543  17.8040  0.00  0.00     0.000 HD
ENDBRANCH 78 81
ENDBRANCH 65 78
ENDBRANCH 64 68
ENDBRANCH 48 64
ENDBRANCH 47 50
ENDBRANCH 34 47
ENDBRANCH 33 37
ENDBRANCH 17 33
ENDBRANCH 16 19
ENDBRANCH 1 16
TORSDOF 16
ENDMDL
MODEL 76
REMARK VINA RESULT:      -4.8     14.970     24.364
ROOT
ATOM      1  C1  BDP B   1      16.558   4.161  44.6240  0.00  0.00     0.000 C
ATOM      2  C2  BDP B   1      17.725   3.226  44.8890  0.00  0.00     0.000 C
ATOM      3  C3  BDP B   1      18.804   3.348  43.8350  0.00  0.00     0.000 C
ATOM      4  C4  BDP B   1      18.678   4.588  42.9570  0.00  0.00     0.000 C
ATOM      5  C5  BDP B   1      17.257   4.810  42.4500  0.00  0.00     0.000 C
ATOM      6  O5  BDP B   1      16.284   4.097  43.2320  0.00  0.00     0.000 O
ATOM      7   O  BDP B   1      18.281   3.497  46.1800  0.00  0.00     0.000 O
ATOM      9  HD  BDP B   1      18.194   3.667  47.0250  0.00  0.00     0.000 HD
ATOM      9   O  BDP B   1      18.778   2.199  42.9730  0.00  0.00     0.000 O
ATOM     11  HD  BDP B   1      18.690   2.369  43.8170  0.00  0.00     0.000 HD
ATOM     11   O  BDP B   1      19.125   5.749  43.6670  0.00  0.00     0.000 O
ATOM     13  HD  BDP B   1      19.038   5.919  44.5110  0.00  0.00     0.000 HD
ENDROOT
BRANCH 5 13
ATOM     13   C  BDP B   1      17.213   4.335  41.0390  0.00  0.00     0.000 C
ATOM     14   O  BDP B   1      17.502   5.146  40.1350  0.00  0.00     0.000 OA
ATOM     15   O  BDP B   1      16.916   3.143  40.8080  0.00  0.00     0.000 OA
ENDBRANCH 5 13
BRANCH 1 16
ATOM     16  O3  NAG B   2      16.002   5.201  45.4260  0.00  0.00     0.000 O
BRANCH 16 19
ATOM     17  C1  NAG B   2      12.556   5.569  46.5420  0.00  0.00     0.000 C
ATOM     18  C2  NAG B   2      13.867   4.781  46.5210  0.00  0.00     0.000 C
ATOM     19  C3  NAG B   2      15.053   5.720  46.3580  0.00  0.00     0.000 C
ATOM     20  C4  NAG B   2      14.612   7.120  45.9210  0.00  0.00     0.000 C
ATOM     21  C5  NAG B   2      13.410   7.157  44.9680  0.00  0.00     0.000 C
ATOM     22  O5  NAG B   2      12.440   6.137  45.2350  0.00  0.00     0.000 O
ATOM     23   O  NAG B   2      14.327   7.893  47.0920  0.00  0.00     0.000 O
ATOM     25  HD  NAG B   2      13.934   7.244  47.5100  0.00  0.00     0.000 HD
ATOM     25   C  NAG B   2      13.871   7.024  43.5100  0.00  0.00     0.000 C
ATOM     26   O  NAG B   2      14.249   8.291  42.9540  0.00  0.00     0.000 O
ATOM     28  HD  NAG B   2      13.856   7.643  43.3720  0.00  0.00     0.000 HD
BRANCH 18 30
ATOM     28   N  NAG B   2      13.991   5.164  47.9270  0.00  0.00     0.000 N
ATOM     30  HD  NAG B   2      14.569   5.437  48.5120  0.00  0.00     0.000 HD
ATOM     30   C  NAG B   2      13.881   4.323  48.9650  0.00  0.00     0.000 C
ATOM     31   C  NAG B   2      14.039   4.961  50.3150  0.00  0.00     0.000 C
ATOM     32   O  NAG B   2      13.678   3.137  48.8420  0.00  0.00     0.000 OA
ENDBRANCH 18 30
BRANCH 17 33
ATOM     33  O4  BDP B   3      11.126   5.672  46.3720  0.00  0.00     0.000 O
BRANCH 33 37
ATOM     34  C1  BDP B   3       7.926   6.601  49.0440  0.00  0.00     0.000 C
ATOM     35  C2  BDP B   3       8.125   5.135  48.6790  0.00  0.00     0.000 C
ATOM     36  C3  BDP B   3       9.498   4.834  48.0880  0.00  0.00     0.000 C
ATOM     37  C4  BDP B   3       9.843   5.892  47.0290  0.00  0.00     0.000 C
ATOM     38  C5  BDP B   3       9.756   7.270  47.7130  0.00  0.00     0.000 C
ATOM     39  O5  BDP B   3       8.371   7.472  47.9980  0.00  0.00     0.000 O
ATOM     40   O  BDP B   3       7.873   4.388  49.8710  0.00  0.00     0.000 O
ATOM     42  HD  BDP B   3       7.062   4.526  49.6000  0.00  0.00     0.000 HD
ATOM     42   O  BDP B   3       9.425   3.525  47.5270  0.00  0.00     0.000 O
ATOM     44  HD  BDP B   3       8.614   3.662  47.2560  0.00  0.00     0.000 HD
BRANCH 38 44
ATOM     44   C  BDP B   3      10.274   8.405  46.8860  0.00  0.00     0.000 C
ATOM     45   O  BDP B   3      11.381   8.898  47.1980  0.00  0.00     0.000 OA
ATOM     46   O  BDP B   3       9.599   8.826  45.9220  0.00  0.00     0.000 OA
ENDBRANCH 38 44
BRANCH 34 47
ATOM     47  O3  NAG B   4       6.599   7.045  48.7660  0.00  0.00     0.000 O
BRANCH 47 50
ATOM     48  C1  NAG B   4       4.951   8.927  51.5740  0.00  0.00     0.000 C
ATOM     49  C2  NAG B   4       5.612   7.752  50.8760  0.00  0.00     0.000 C
ATOM     50  C3  NAG B   4       6.029   8.167  49.4700  0.00  0.00     0.000 C
ATOM     51  C4  NAG B   4       4.854   8.719  48.6780  0.00  0.00     0.000 C
ATOM     52  C5  NAG B   4       4.186   9.850  49.4610  0.00  0.00     0.000 C
ATOM     53  O5  NAG B   4       3.848   9.411  50.7830  0.00  0.00     0.000 O
ATOM     54   O  NAG B   4       5.325   9.190  47.4130  0.00  0.00     0.000 O
ATOM     56  HD  NAG B   4       4.462   9.116  47.4420  0.00  0.00     0.000 HD
ATOM     56   C  NAG B   4       2.929  10.344  48.7550  0.00  0.00     0.000 C
ATOM     57   O  NAG B   4       2.002   9.257  48.6350  0.00  0.00     0.000 O
ATOM     59  HD  NAG B   4       1.140   9.183  48.6640  0.00  0.00     0.000 HD
BRANCH 49 61
ATOM     59   N  NAG B   4       4.616   6.717  51.1590  0.00  0.00     0.000 N
ATOM     61  HD  NAG B   4       5.393   6.786  50.7810  0.00  0.00     0.000 HD
ATOM     61   O  NAG B   4       6.069   5.107  51.7910  0.00  0.00     0.000 OA
ATOM     62   C  NAG B   4       4.924   5.515  51.6590  0.00  0.00     0.000 C
ATOM     63   C  NAG B   4       3.762   4.673  52.0830  0.00  0.00     0.000 C
ENDBRANCH 49 61
BRANCH 48 64
ATOM     64  O4  BDP B   5       4.858   9.316  52.9420  0.00  0.00     0.000 O
BRANCH 64 68
ATOM     65  C1  BDP B   5       2.513   7.379  55.7920  0.00  0.00     0.000 C
ATOM     66  C2  BDP B   5       2.100   8.802  55.4440  0.00  0.00     0.000 C
ATOM     67  C3  BDP B   5       2.743   9.216  54.1270  0.00  0.00     0.000 C
ATOM     68  C4  BDP B   5       4.257   9.054  54.2100  0.00  0.00     0.000 C
ATOM     69  C5  BDP B   5       4.662   7.657  54.6600  0.00  0.00     0.000 C
ATOM     70  O5  BDP B   5       3.945   7.281  55.8490  0.00  0.00     0.000 O
ATOM     71   O  BDP B   5       0.667   8.887  55.3840  0.00  0.00     0.000 O
ATOM     73  HD  BDP B   5      -0.198   8.879  55.3410  0.00  0.00     0.000 HD
ATOM     73   O  BDP B   5       2.430  10.579  53.8200  0.00  0.00     0.000 O
ATOM     75  HD  BDP B   5       1.565  10.571  53.7770  0.00  0.00     0.000 HD
BRANCH 69 75
ATOM     75   C  BDP B   5       6.143   7.662  54.9460  0.00  0.00     0.000 C
ATOM     76   O  BDP B   5       6.545   8.159  56.0180  0.00  0.00     0.000 OA
ATOM     77   O  BDP B   5       6.920   7.167  54.1100  0.00  0.00     0.000 OA
ENDBRANCH 69 75
BRANCH 65 78
ATOM     78  O3  NAG B   6       2.650   6.832  57.1060  0.00  0.00     0.000 O
BRANCH 78 81
ATOM     79  C1  NAG B   6       2.198   4.083  59.6700  0.00  0.00     0.000 C
ATOM     80  C2  NAG B   6       2.249   5.516  59.1180  0.00  0.00     0.000 C
ATOM     81  C3  NAG B   6       2.448   5.494  57.6110  0.00  0.00     0.000 C
ATOM     82  C4  NAG B   6       3.639   4.607  57.2320  0.00  0.00     0.000 C
ATOM     83  C5  NAG B   6       3.449   3.219  57.8330  0.00  0.00     0.000 C
ATOM     84  O5  NAG B   6       3.375   3.369  59.2520  0.00  0.00     0.000 O
BRANCH 80 87
ATOM     85   N  NAG B   6       1.434   6.718  58.9570  0.00  0.00     0.000 N
ATOM     87  HD  NAG B   6       0.682   7.133  59.0680  0.00  0.00     0.000 HD
ATOM     87   C  NAG B   6       0.984   7.459  59.9770  0.00  0.00     0.000 C
ATOM     88   C  NAG B   6       0.195   8.672  59.5980  0.00  0.00     0.000 C
ATOM     89   O  NAG B   6       1.206   7.187  61.1500  0.00  0.00     0.000 OA
ENDBRANCH 80 87
ATOM     90   O  NAG B   6       4.071   1.220  56.6230  0.00  0.00     0.000 O
ATOM     92  HD  NAG B   6       3.535   1.565  57.2090  0.00  0.00     0.000 HD
ATOM     92   O  NAG B   6       4.071   1.220  56.6230  0.00  0.00     0.000 O
ATOM     94  HD  NAG B   6       3.535   1.565  57.2090  0.00  0.00     0.000 HD
ENDBRANCH 78 81
ENDBRANCH 65 78
ENDBRANCH 64 68
ENDBRANCH 48 64
ENDBRANCH 47 50
ENDBRANCH 34 47
ENDBRANCH 33 37
ENDBRANCH 17 33
ENDBRANCH 16 19
ENDBRANCH 1 16
TORSDOF 16
ENDMDL
MODEL 77
REMARK VINA RESULT:      -4.8      8.351     14.795
ROOT
ATOM      1  C1  BDP B   1      31.812   8.794  30.2390  0.00  0.00     0.000 C
ATOM      2  C2  BDP B   1      33.097   8.939  31.0350  0.00  0.00     0.000 C
ATOM      3  C3  BDP B   1      34.273   9.310  30.1570  0.00  0.00     0.000 C
ATOM      4  C4  BDP B   1      33.880   9.801  28.7680  0.00  0.00     0.000 C
ATOM      5  C5  BDP B   1      32.836   8.911  28.1000  0.00  0.00     0.000 C
ATOM      6  O5  BDP B   1      32.137   8.089  29.0500  0.00  0.00     0.000 O
ATOM      7   O  BDP B   1      32.928   9.928  32.0560  0.00  0.00     0.000 O
ATOM      9  HD  BDP B   1      32.466  10.294  32.6900  0.00  0.00     0.000 HD
ATOM      9   O  BDP B   1      35.137   8.175  29.9900  0.00  0.00     0.000 O
ATOM     11  HD  BDP B   1      34.675   8.541  30.6240  0.00  0.00     0.000 HD
ATOM     11   O  BDP B   1      33.397  11.148  28.8320  0.00  0.00     0.000 O
ATOM     13  HD  BDP B   1      32.934  11.514  29.4660  0.00  0.00     0.000 HD
ENDROOT
BRANCH 5 13
ATOM     13   C  BDP B   1      33.554   8.048  27.1210  0.00  0.00     0.000 C
ATOM     14   O  BDP B   1      32.894   7.193  26.4950  0.00  0.00     0.000 OA
ATOM     15   O  BDP B   1      34.778   8.222  26.9400  0.00  0.00     0.000 OA
ENDBRANCH 5 13
BRANCH 1 16
ATOM     16  O3  NAG B   2      30.565   9.476  30.3600  0.00  0.00     0.000 O
BRANCH 16 19
ATOM     17  C1  NAG B   2      27.536   9.017  28.3920  0.00  0.00     0.000 C
ATOM     18  C2  NAG B   2      28.598   8.461  29.3420  0.00  0.00     0.000 C
ATOM     19  C3  NAG B   2      29.144   9.563  30.2380  0.00  0.00     0.000 C
ATOM     20  C4  NAG B   2      28.754  10.954  29.7290  0.00  0.00     0.000 C
ATOM     21  C5  NAG B   2      28.703  11.099  28.2020  0.00  0.00     0.000 C
ATOM     22  O5  NAG B   2      28.237   9.920  27.5340  0.00  0.00     0.000 O
ATOM     23   O  NAG B   2      27.485  11.303  30.2920  0.00  0.00     0.000 O
ATOM     25  HD  NAG B   2      27.145  10.513  30.1960  0.00  0.00     0.000 HD
ATOM     25   C  NAG B   2      30.087  11.463  27.6470  0.00  0.00     0.000 C
ATOM     26   O  NAG B   2      30.323  12.877  27.6940  0.00  0.00     0.000 O
ATOM     28  HD  NAG B   2      29.983  12.086  27.5970  0.00  0.00     0.000 HD
BRANCH 18 30
ATOM     28   N  NAG B   2      27.783   7.324  29.7670  0.00  0.00     0.000 N
ATOM     30  HD  NAG B   2      27.095   6.852  29.5350  0.00  0.00     0.000 HD
ATOM     30   C  NAG B   2      26.973   7.316  30.8350  0.00  0.00     0.000 C
ATOM     31   C  NAG B   2      26.249   6.021  31.0690  0.00  0.00     0.000 C
ATOM     32   O  NAG B   2      26.820   8.270  31.5610  0.00  0.00     0.000 OA
ENDBRANCH 18 30
BRANCH 17 33
ATOM     33  O4  BDP B   3      26.755   8.965  27.1790  0.00  0.00     0.000 O
BRANCH 33 37
ATOM     34  C1  BDP B   3      23.339   8.343  24.6910  0.00  0.00     0.000 C
ATOM     35  C2  BDP B   3      23.098   8.952  26.0670  0.00  0.00     0.000 C
ATOM     36  C3  BDP B   3      24.355   9.527  26.7100  0.00  0.00     0.000 C
ATOM     37  C4  BDP B   3      25.510   8.526  26.5600  0.00  0.00     0.000 C
ATOM     38  C5  BDP B   3      25.668   8.231  25.0560  0.00  0.00     0.000 C
ATOM     39  O5  BDP B   3      24.499   7.502  24.6810  0.00  0.00     0.000 O
ATOM     40   O  BDP B   3      22.078   9.938  25.8950  0.00  0.00     0.000 O
ATOM     42  HD  BDP B   3      21.594   9.221  25.9340  0.00  0.00     0.000 HD
ATOM     42   O  BDP B   3      24.039   9.772  28.0800  0.00  0.00     0.000 O
ATOM     44  HD  BDP B   3      23.555   9.054  28.1190  0.00  0.00     0.000 HD
BRANCH 38 44
ATOM     44   C  BDP B   3      26.891   7.443  24.7040  0.00  0.00     0.000 C
ATOM     45   O  BDP B   3      27.835   8.045  24.1480  0.00  0.00     0.000 OA
ATOM     46   O  BDP B   3      26.937   6.222  24.9700  0.00  0.00     0.000 OA
ENDBRANCH 38 44
BRANCH 34 47
ATOM     47  O3  NAG B   4      22.559   7.168  24.4820  0.00  0.00     0.000 O
BRANCH 47 50
ATOM     48  C1  NAG B   4      20.986   6.650  21.1050  0.00  0.00     0.000 C
ATOM     49  C2  NAG B   4      21.200   7.289  22.4660  0.00  0.00     0.000 C
ATOM     50  C3  NAG B   4      22.381   6.620  23.1600  0.00  0.00     0.000 C
ATOM     51  C4  NAG B   4      22.194   5.114  23.2550  0.00  0.00     0.000 C
ATOM     52  C5  NAG B   4      21.913   4.537  21.8670  0.00  0.00     0.000 C
ATOM     53  O5  NAG B   4      20.817   5.227  21.2520  0.00  0.00     0.000 O
ATOM     54   O  NAG B   4      23.374   4.532  23.8140  0.00  0.00     0.000 O
ATOM     56  HD  NAG B   4      22.704   3.985  23.8070  0.00  0.00     0.000 HD
ATOM     56   C  NAG B   4      21.596   3.048  21.9410  0.00  0.00     0.000 C
ATOM     57   O  NAG B   4      20.437   2.857  22.7640  0.00  0.00     0.000 O
ATOM     59  HD  NAG B   4      19.767   2.309  22.7570  0.00  0.00     0.000 HD
BRANCH 49 61
ATOM     59   N  NAG B   4      21.232   8.723  22.1720  0.00  0.00     0.000 N
ATOM     61  HD  NAG B   4      20.649   8.111  22.3650  0.00  0.00     0.000 HD
ATOM     61   O  NAG B   4      19.755   9.358  23.7590  0.00  0.00     0.000 OA
ATOM     62   C  NAG B   4      20.566   9.637  22.8880  0.00  0.00     0.000 C
ATOM     63   C  NAG B   4      20.888  11.064  22.5750  0.00  0.00     0.000 C
ENDBRANCH 49 61
BRANCH 48 64
ATOM     64  O4  BDP B   5      20.463   7.141  19.8740  0.00  0.00     0.000 O
BRANCH 64 68
ATOM     65  C1  BDP B   5      21.528  10.748  18.0780  0.00  0.00     0.000 C
ATOM     66  C2  BDP B   5      20.035  10.503  18.2490  0.00  0.00     0.000 C
ATOM     67  C3  BDP B   5      19.811   9.399  19.2730  0.00  0.00     0.000 C
ATOM     68  C4  BDP B   5      20.562   8.138  18.8590  0.00  0.00     0.000 C
ATOM     69  C5  BDP B   5      22.036   8.411  18.5870  0.00  0.00     0.000 C
ATOM     70  O5  BDP B   5      22.187   9.530  17.6970  0.00  0.00     0.000 O
ATOM     71   O  BDP B   5      19.388  11.725  18.6360  0.00  0.00     0.000 O
ATOM     73  HD  BDP B   5      19.051  12.483  18.8870  0.00  0.00     0.000 HD
ATOM     73   O  BDP B   5      18.415   9.099  19.3920  0.00  0.00     0.000 O
ATOM     75  HD  BDP B   5      18.078   9.856  19.6440  0.00  0.00     0.000 HD
BRANCH 69 75
ATOM     75   C  BDP B   5      22.637   7.181  17.9560  0.00  0.00     0.000 C
ATOM     76   O  BDP B   5      22.388   6.938  16.7580  0.00  0.00     0.000 OA
ATOM     77   O  BDP B   5      23.366   6.445  18.6460  0.00  0.00     0.000 OA
ENDBRANCH 69 75
BRANCH 65 78
ATOM     78  O3  NAG B   6      22.183  11.208  16.8930  0.00  0.00     0.000 O
BRANCH 78 81
ATOM     79  C1  NAG B   6      24.200  14.245  15.8740  0.00  0.00     0.000 C
ATOM     80  C2  NAG B   6      22.951  13.423  16.2280  0.00  0.00     0.000 C
ATOM     81  C3  NAG B   6      23.351  12.036  16.7050  0.00  0.00     0.000 C
ATOM     82  C4  NAG B   6      24.309  11.372  15.7100  0.00  0.00     0.000 C
ATOM     83  C5  NAG B   6      25.501  12.290  15.4650  0.00  0.00     0.000 C
ATOM     84  O5  NAG B   6      25.000  13.515  14.9280  0.00  0.00     0.000 O
BRANCH 80 87
ATOM     85   N  NAG B   6      22.188  14.239  17.1680  0.00  0.00     0.000 N
ATOM     87  HD  NAG B   6      21.651  14.902  17.3200  0.00  0.00     0.000 HD
ATOM     87   C  NAG B   6      20.850  14.297  17.1950  0.00  0.00     0.000 C
ATOM     88   C  NAG B   6      20.260  15.166  18.2600  0.00  0.00     0.000 C
ATOM     89   O  NAG B   6      20.138  13.674  16.4170  0.00  0.00     0.000 OA
ENDBRANCH 80 87
ATOM     90   O  NAG B   6      27.742  11.414  15.2190  0.00  0.00     0.000 O
ATOM     92  HD  NAG B   6      27.259  12.084  15.4800  0.00  0.00     0.000 HD
ATOM     92   O  NAG B   6      27.742  11.414  15.2190  0.00  0.00     0.000 O
ATOM     94  HD  NAG B   6      27.259  12.084  15.4800  0.00  0.00     0.000 HD
ENDBRANCH 78 81
ENDBRANCH 65 78
ENDBRANCH 64 68
ENDBRANCH 48 64
ENDBRANCH 47 50
ENDBRANCH 34 47
ENDBRANCH 33 37
ENDBRANCH 17 33
ENDBRANCH 16 19
ENDBRANCH 1 16
TORSDOF 16
ENDMDL
MODEL 78
REMARK VINA RESULT:      -4.7     17.296     21.286
ROOT
ATOM      1  C1  BDP B   1      26.714  21.553  14.2330  0.00  0.00     0.000 C
ATOM      2  C2  BDP B   1      26.892  22.805  13.3940  0.00  0.00     0.000 C
ATOM      3  C3  BDP B   1      26.960  22.495  11.9140  0.00  0.00     0.000 C
ATOM      4  C4  BDP B   1      26.491  21.091  11.5510  0.00  0.00     0.000 C
ATOM      5  C5  BDP B   1      27.083  20.018  12.4600  0.00  0.00     0.000 C
ATOM      6  O5  BDP B   1      27.579  20.565  13.6930  0.00  0.00     0.000 O
ATOM      7   O  BDP B   1      25.817  23.717  13.6460  0.00  0.00     0.000 O
ATOM      9  HD  BDP B   1      25.279  24.126  14.1870  0.00  0.00     0.000 HD
ATOM      9   O  BDP B   1      28.310  22.639  11.4450  0.00  0.00     0.000 O
ATOM     11  HD  BDP B   1      27.772  23.048  11.9860  0.00  0.00     0.000 HD
ATOM     11   O  BDP B   1      25.060  21.018  11.5850  0.00  0.00     0.000 O
ATOM     13  HD  BDP B   1      24.523  21.427  12.1270  0.00  0.00     0.000 HD
ENDROOT
BRANCH 5 13
ATOM     13   C  BDP B   1      28.197  19.373  11.7120  0.00  0.00     0.000 C
ATOM     14   O  BDP B   1      28.700  18.332  12.1850  0.00  0.00     0.000 OA
ATOM     15   O  BDP B   1      28.573  19.873  10.6310  0.00  0.00     0.000 OA
ENDBRANCH 5 13
BRANCH 1 16
ATOM     16  O3  NAG B   2      25.685  21.191  15.1530  0.00  0.00     0.000 O
BRANCH 16 19
ATOM     17  C1  NAG B   2      22.963  18.792  14.8570  0.00  0.00     0.000 C
ATOM     18  C2  NAG B   2      24.457  19.116  14.8090  0.00  0.00     0.000 C
ATOM     19  C3  NAG B   2      24.787  20.259  15.7570  0.00  0.00     0.000 C
ATOM     20  C4  NAG B   2      23.526  20.988  16.2280  0.00  0.00     0.000 C
ATOM     21  C5  NAG B   2      22.407  21.097  15.1830  0.00  0.00     0.000 C
ATOM     22  O5  NAG B   2      22.311  19.950  14.3300  0.00  0.00     0.000 O
ATOM     23   O  NAG B   2      23.032  20.331  17.4000  0.00  0.00     0.000 O
ATOM     25  HD  NAG B   2      23.187  19.532  17.1030  0.00  0.00     0.000 HD
ATOM     25   C  NAG B   2      22.604  22.343  14.3080  0.00  0.00     0.000 C
ATOM     26   O  NAG B   2      22.041  23.513  14.9160  0.00  0.00     0.000 O
ATOM     28  HD  NAG B   2      22.196  22.715  14.6190  0.00  0.00     0.000 HD
BRANCH 18 30
ATOM     28   N  NAG B   2      25.089  18.448  15.9450  0.00  0.00     0.000 N
ATOM     30  HD  NAG B   2      25.862  18.295  16.3050  0.00  0.00     0.000 HD
ATOM     30   C  NAG B   2      25.153  17.120  16.1170  0.00  0.00     0.000 C
ATOM     31   C  NAG B   2      25.847  16.678  17.3740  0.00  0.00     0.000 C
ATOM     32   O  NAG B   2      24.699  16.323  15.3280  0.00  0.00     0.000 OA
ENDBRANCH 18 30
BRANCH 17 33
ATOM     33  O4  BDP B   3      21.757  18.239  14.2860  0.00  0.00     0.000 O
BRANCH 33 37
ATOM     34  C1  BDP B   3      19.304  16.625  11.1850  0.00  0.00     0.000 C
ATOM     35  C2  BDP B   3      20.807  16.668  10.9330  0.00  0.00     0.000 C
ATOM     36  C3  BDP B   3      21.633  16.847  12.2020  0.00  0.00     0.000 C
ATOM     37  C4  BDP B   3      21.017  17.960  13.0620  0.00  0.00     0.000 C
ATOM     38  C5  BDP B   3      19.551  17.571  13.3320  0.00  0.00     0.000 C
ATOM     39  O5  BDP B   3      18.887  17.669  12.0720  0.00  0.00     0.000 O
ATOM     40   O  BDP B   3      21.131  15.460  10.2420  0.00  0.00     0.000 O
ATOM     42  HD  BDP B   3      20.831  15.938   9.5850  0.00  0.00     0.000 HD
ATOM     42   O  BDP B   3      22.959  17.171  11.7850  0.00  0.00     0.000 O
ATOM     44  HD  BDP B   3      22.659  17.649  11.1280  0.00  0.00     0.000 HD
BRANCH 38 44
ATOM     44   C  BDP B   3      18.856  18.434  14.3390  0.00  0.00     0.000 C
ATOM     45   O  BDP B   3      18.501  19.578  13.9830  0.00  0.00     0.000 OA
ATOM     46   O  BDP B   3      18.653  17.996  15.4930  0.00  0.00     0.000 OA
ENDBRANCH 38 44
BRANCH 34 47
ATOM     47  O3  NAG B   4      18.572  17.289  10.1570  0.00  0.00     0.000 O
BRANCH 47 50
ATOM     48  C1  NAG B   4      15.004  16.096  10.1090  0.00  0.00     0.000 C
ATOM     49  C2  NAG B   4      16.518  15.980  10.1260  0.00  0.00     0.000 C
ATOM     50  C3  NAG B   4      17.133  17.373  10.2070  0.00  0.00     0.000 C
ATOM     51  C4  NAG B   4      16.637  18.269   9.0830  0.00  0.00     0.000 C
ATOM     52  C5  NAG B   4      15.108  18.291   9.0720  0.00  0.00     0.000 C
ATOM     53  O5  NAG B   4      14.590  16.956   9.0290  0.00  0.00     0.000 O
ATOM     54   O  NAG B   4      17.160  19.587   9.2730  0.00  0.00     0.000 O
ATOM     56  HD  NAG B   4      16.827  19.471   8.4820  0.00  0.00     0.000 HD
ATOM     56   C  NAG B   4      14.575  19.079   7.8820  0.00  0.00     0.000 C
ATOM     57   O  NAG B   4      15.036  18.467   6.6700  0.00  0.00     0.000 O
ATOM     59  HD  NAG B   4      14.703  18.351   5.8790  0.00  0.00     0.000 HD
BRANCH 49 61
ATOM     59   N  NAG B   4      16.582  14.986   9.0530  0.00  0.00     0.000 N
ATOM     61  HD  NAG B   4      17.125  15.421   9.5690  0.00  0.00     0.000 HD
ATOM     61   O  NAG B   4      18.175  13.683   9.9850  0.00  0.00     0.000 OA
ATOM     62   C  NAG B   4      17.348  13.890   9.1090  0.00  0.00     0.000 C
ATOM     63   C  NAG B   4      17.121  12.887   8.0220  0.00  0.00     0.000 C
ENDBRANCH 49 61
BRANCH 48 64
ATOM     64  O4  BDP B   5      13.961  15.238  10.5590  0.00  0.00     0.000 O
BRANCH 64 68
ATOM     65  C1  BDP B   5      10.185  13.649  11.3250  0.00  0.00     0.000 C
ATOM     66  C2  BDP B   5      11.158  12.733  10.5950  0.00  0.00     0.000 C
ATOM     67  C3  BDP B   5      12.579  13.255  10.7650  0.00  0.00     0.000 C
ATOM     68  C4  BDP B   5      12.668  14.699  10.2850  0.00  0.00     0.000 C
ATOM     69  C5  BDP B   5      11.622  15.590  10.9420  0.00  0.00     0.000 C
ATOM     70  O5  BDP B   5      10.316  14.995  10.8410  0.00  0.00     0.000 O
ATOM     71   O  BDP B   5      11.022  11.392  11.0910  0.00  0.00     0.000 O
ATOM     73  HD  BDP B   5      10.914  10.607  11.4390  0.00  0.00     0.000 HD
ATOM     73   O  BDP B   5      13.502  12.452  10.0220  0.00  0.00     0.000 O
ATOM     75  HD  BDP B   5      13.394  11.666  10.3700  0.00  0.00     0.000 HD
BRANCH 69 75
ATOM     75   C  BDP B   5      11.623  16.922  10.2380  0.00  0.00     0.000 C
ATOM     76   O  BDP B   5      12.017  17.929  10.8600  0.00  0.00     0.000 OA
ATOM     77   O  BDP B   5      11.237  16.980   9.0560  0.00  0.00     0.000 OA
ENDBRANCH 69 75
BRANCH 65 78
ATOM     78  O3  NAG B   6       8.821  13.895  10.9700  0.00  0.00     0.000 O
BRANCH 78 81
ATOM     79  C1  NAG B   6       5.591  15.262  12.3930  0.00  0.00     0.000 C
ATOM     80  C2  NAG B   6       6.662  14.214  12.0530  0.00  0.00     0.000 C
ATOM     81  C3  NAG B   6       7.876  14.885  11.4310  0.00  0.00     0.000 C
ATOM     82  C4  NAG B   6       7.462  15.794  10.2690  0.00  0.00     0.000 C
ATOM     83  C5  NAG B   6       6.410  16.785  10.7520  0.00  0.00     0.000 C
ATOM     84  O5  NAG B   6       5.288  16.033  11.2170  0.00  0.00     0.000 O
BRANCH 80 87
ATOM     85   N  NAG B   6       6.770  12.765  12.1980  0.00  0.00     0.000 N
ATOM     87  HD  NAG B   6       7.256  12.060  12.3250  0.00  0.00     0.000 HD
ATOM     87   C  NAG B   6       7.144  12.150  13.3260  0.00  0.00     0.000 C
ATOM     88   C  NAG B   6       7.157  10.656  13.2780  0.00  0.00     0.000 C
ATOM     89   O  NAG B   6       7.446  12.755  14.3490  0.00  0.00     0.000 OA
ENDBRANCH 80 87
ATOM     90   O  NAG B   6       6.395  19.082   9.9960  0.00  0.00     0.000 O
ATOM     92  HD  NAG B   6       6.206  18.540  10.6440  0.00  0.00     0.000 HD
ATOM     92   O  NAG B   6       6.395  19.082   9.9960  0.00  0.00     0.000 O
ATOM     94  HD  NAG B   6       6.206  18.540  10.6440  0.00  0.00     0.000 HD
ENDBRANCH 78 81
ENDBRANCH 65 78
ENDBRANCH 64 68
ENDBRANCH 48 64
ENDBRANCH 47 50
ENDBRANCH 34 47
ENDBRANCH 33 37
ENDBRANCH 17 33
ENDBRANCH 16 19
ENDBRANCH 1 16
TORSDOF 16
ENDMDL
MODEL 79
REMARK VINA RESULT:      -4.7      8.299     14.910
ROOT
ATOM      1  C1  BDP B   1      14.970   9.750  30.8200  0.00  0.00     0.000 C
ATOM      2  C2  BDP B   1      13.560   9.213  30.9900  0.00  0.00     0.000 C
ATOM      3  C3  BDP B   1      13.302   8.723  32.3990  0.00  0.00     0.000 C
ATOM      4  C4  BDP B   1      14.342   9.181  33.4160  0.00  0.00     0.000 C
ATOM      5  C5  BDP B   1      15.773   8.994  32.9230  0.00  0.00     0.000 C
ATOM      6  O5  BDP B   1      15.840   8.852  31.4930  0.00  0.00     0.000 O
ATOM      7   O  BDP B   1      12.608  10.228  30.6530  0.00  0.00     0.000 O
ATOM      9  HD  BDP B   1      12.329  10.867  30.1390  0.00  0.00     0.000 HD
ATOM      9   O  BDP B   1      13.275   7.287  32.4210  0.00  0.00     0.000 O
ATOM     11  HD  BDP B   1      12.995   7.926  31.9080  0.00  0.00     0.000 HD
ATOM     11   O  BDP B   1      14.127  10.554  33.7650  0.00  0.00     0.000 O
ATOM     13  HD  BDP B   1      13.848  11.193  33.2520  0.00  0.00     0.000 HD
ENDROOT
BRANCH 5 13
ATOM     13   C  BDP B   1      16.306   7.766  33.5740  0.00  0.00     0.000 C
ATOM     14   O  BDP B   1      15.594   7.193  34.4250  0.00  0.00     0.000 OA
ATOM     15   O  BDP B   1      17.429   7.336  33.2340  0.00  0.00     0.000 OA
ENDBRANCH 5 13
BRANCH 1 16
ATOM     16  O3  NAG B   2      15.428  11.038  30.4150  0.00  0.00     0.000 O
BRANCH 16 19
ATOM     17  C1  NAG B   2      16.289  14.384  29.2650  0.00  0.00     0.000 C
ATOM     18  C2  NAG B   2      15.279  13.408  29.8710  0.00  0.00     0.000 C
ATOM     19  C3  NAG B   2      15.992  12.326  30.6680  0.00  0.00     0.000 C
ATOM     20  C4  NAG B   2      17.494  12.300  30.3720  0.00  0.00     0.000 C
ATOM     21  C5  NAG B   2      17.878  12.628  28.9230  0.00  0.00     0.000 C
ATOM     22  O5  NAG B   2      17.033  13.614  28.3190  0.00  0.00     0.000 O
ATOM     23   O  NAG B   2      18.149  13.207  31.2640  0.00  0.00     0.000 O
ATOM     25  HD  NAG B   2      17.537  13.818  31.2050  0.00  0.00     0.000 HD
ATOM     25   C  NAG B   2      17.850  11.361  28.0560  0.00  0.00     0.000 C
ATOM     26   O  NAG B   2      19.085  10.635  28.1360  0.00  0.00     0.000 O
ATOM     28  HD  NAG B   2      18.473  11.245  28.0770  0.00  0.00     0.000 HD
BRANCH 18 30
ATOM     28   N  NAG B   2      14.792  13.731  31.2120  0.00  0.00     0.000 N
ATOM     30  HD  NAG B   2      14.100  13.647  31.7260  0.00  0.00     0.000 HD
ATOM     30   C  NAG B   2      14.515  14.967  31.6510  0.00  0.00     0.000 C
ATOM     31   C  NAG B   2      14.038  15.039  33.0740  0.00  0.00     0.000 C
ATOM     32   O  NAG B   2      14.627  15.958  30.9680  0.00  0.00     0.000 OA
ENDBRANCH 18 30
BRANCH 17 33
ATOM     33  O4  BDP B   3      16.680  15.377  28.2930  0.00  0.00     0.000 O
BRANCH 33 37
ATOM     34  C1  BDP B   3      18.281  19.014  26.7270  0.00  0.00     0.000 C
ATOM     35  C2  BDP B   3      19.277  17.957  27.1910  0.00  0.00     0.000 C
ATOM     36  C3  BDP B   3      18.669  16.566  27.3300  0.00  0.00     0.000 C
ATOM     37  C4  BDP B   3      17.328  16.664  28.0720  0.00  0.00     0.000 C
ATOM     38  C5  BDP B   3      16.440  17.647  27.2850  0.00  0.00     0.000 C
ATOM     39  O5  BDP B   3      17.047  18.929  27.4480  0.00  0.00     0.000 O
ATOM     40   O  BDP B   3      20.356  17.985  26.2540  0.00  0.00     0.000 O
ATOM     42  HD  BDP B   3      20.569  18.658  26.7570  0.00  0.00     0.000 HD
ATOM     42   O  BDP B   3      19.616  15.775  28.0480  0.00  0.00     0.000 O
ATOM     44  HD  BDP B   3      19.829  16.448  28.5500  0.00  0.00     0.000 HD
BRANCH 38 44
ATOM     44   C  BDP B   3      15.016  17.698  27.7420  0.00  0.00     0.000 C
ATOM     45   O  BDP B   3      14.162  17.082  27.0660  0.00  0.00     0.000 OA
ATOM     46   O  BDP B   3      14.719  18.345  28.7700  0.00  0.00     0.000 OA
ENDBRANCH 38 44
BRANCH 34 47
ATOM     47  O3  NAG B   4      18.499  20.270  27.3670  0.00  0.00     0.000 O
BRANCH 47 50
ATOM     48  C1  NAG B   4      16.162  22.913  26.0640  0.00  0.00     0.000 C
ATOM     49  C2  NAG B   4      17.201  21.808  25.9970  0.00  0.00     0.000 C
ATOM     50  C3  NAG B   4      17.465  21.275  27.4000  0.00  0.00     0.000 C
ATOM     51  C4  NAG B   4      17.869  22.387  28.3550  0.00  0.00     0.000 C
ATOM     52  C5  NAG B   4      16.822  23.501  28.3270  0.00  0.00     0.000 C
ATOM     53  O5  NAG B   4      16.592  23.938  26.9810  0.00  0.00     0.000 O
ATOM     54   O  NAG B   4      17.997  21.847  29.6720  0.00  0.00     0.000 O
ATOM     56  HD  NAG B   4      18.347  22.636  29.6000  0.00  0.00     0.000 HD
ATOM     56   C  NAG B   4      17.256  24.690  29.1770  0.00  0.00     0.000 C
ATOM     57   O  NAG B   4      18.491  25.205  28.6640  0.00  0.00     0.000 O
ATOM     59  HD  NAG B   4      18.841  25.994  28.5920  0.00  0.00     0.000 HD
BRANCH 49 61
ATOM     59   N  NAG B   4      18.051  22.534  25.0530  0.00  0.00     0.000 N
ATOM     61  HD  NAG B   4      18.054  21.784  25.4850  0.00  0.00     0.000 HD
ATOM     61   O  NAG B   4      18.610  20.760  23.7710  0.00  0.00     0.000 OA
ATOM     62   C  NAG B   4      18.621  21.964  23.9840  0.00  0.00     0.000 C
ATOM     63   C  NAG B   4      19.274  22.903  23.0200  0.00  0.00     0.000 C
ENDBRANCH 49 61
BRANCH 48 64
ATOM     64  O4  BDP B   5      15.180  23.378  25.1420  0.00  0.00     0.000 O
BRANCH 64 68
ATOM     65  C1  BDP B   5      13.977  21.329  21.7180  0.00  0.00     0.000 C
ATOM     66  C2  BDP B   5      14.500  22.743  21.5010  0.00  0.00     0.000 C
ATOM     67  C3  BDP B   5      15.284  23.194  22.7260  0.00  0.00     0.000 C
ATOM     68  C4  BDP B   5      14.416  23.081  23.9750  0.00  0.00     0.000 C
ATOM     69  C5  BDP B   5      13.811  21.692  24.1310  0.00  0.00     0.000 C
ATOM     70  O5  BDP B   5      13.175  21.277  22.9090  0.00  0.00     0.000 O
ATOM     71   O  BDP B   5      15.305  22.781  20.3120  0.00  0.00     0.000 O
ATOM     73  HD  BDP B   5      15.796  22.744  19.6000  0.00  0.00     0.000 HD
ATOM     73   O  BDP B   5      15.719  24.550  22.5740  0.00  0.00     0.000 O
ATOM     75  HD  BDP B   5      16.210  24.513  21.8620  0.00  0.00     0.000 HD
BRANCH 69 75
ATOM     75   C  BDP B   5      12.789  21.743  25.2380  0.00  0.00     0.000 C
ATOM     76   O  BDP B   5      11.807  22.502  25.1140  0.00  0.00     0.000 OA
ATOM     77   O  BDP B   5      12.950  21.023  26.2410  0.00  0.00     0.000 OA
ENDBRANCH 69 75
BRANCH 65 78
ATOM     78  O3  NAG B   6      12.784  20.770  21.1630  0.00  0.00     0.000 O
BRANCH 78 81
ATOM     79  C1  NAG B   6      11.985  17.516  19.4000  0.00  0.00     0.000 C
ATOM     80  C2  NAG B   6      12.597  18.912  19.5980  0.00  0.00     0.000 C
ATOM     81  C3  NAG B   6      12.348  19.401  21.0150  0.00  0.00     0.000 C
ATOM     82  C4  NAG B   6      10.864  19.283  21.3800  0.00  0.00     0.000 C
ATOM     83  C5  NAG B   6      10.398  17.850  21.1490  0.00  0.00     0.000 C
ATOM     84  O5  NAG B   6      10.594  17.549  19.7660  0.00  0.00     0.000 O
BRANCH 80 87
ATOM     85   N  NAG B   6      13.998  18.803  19.1980  0.00  0.00     0.000 N
ATOM     87  HD  NAG B   6      14.597  18.753  18.5750  0.00  0.00     0.000 HD
ATOM     87   C  NAG B   6      14.667  19.762  18.5460  0.00  0.00     0.000 C
ATOM     88   C  NAG B   6      16.105  19.469  18.2600  0.00  0.00     0.000 C
ATOM     89   O  NAG B   6      14.156  20.823  18.2090  0.00  0.00     0.000 OA
ENDBRANCH 80 87
ATOM     90   O  NAG B   6       8.853  16.764  22.6580  0.00  0.00     0.000 O
ATOM     92  HD  NAG B   6       9.513  16.655  22.1080  0.00  0.00     0.000 HD
ATOM     92   O  NAG B   6       8.853  16.764  22.6580  0.00  0.00     0.000 O
ATOM     94  HD  NAG B   6       9.513  16.655  22.1080  0.00  0.00     0.000 HD
ENDBRANCH 78 81
ENDBRANCH 65 78
ENDBRANCH 64 68
ENDBRANCH 48 64
ENDBRANCH 47 50
ENDBRANCH 34 47
ENDBRANCH 33 37
ENDBRANCH 17 33
ENDBRANCH 16 19
ENDBRANCH 1 16
TORSDOF 16
ENDMDL
MODEL 80
REMARK VINA RESULT:      -4.7     14.646     21.992
ROOT
ATOM      1  C1  BDP B   1      10.418  28.580  31.1950  0.00  0.00     0.000 C
ATOM      2  C2  BDP B   1      10.519  30.012  31.6890  0.00  0.00     0.000 C
ATOM      3  C3  BDP B   1      11.844  30.648  31.3260  0.00  0.00     0.000 C
ATOM      4  C4  BDP B   1      12.632  29.882  30.2690  0.00  0.00     0.000 C
ATOM      5  C5  BDP B   1      12.695  28.384  30.5500  0.00  0.00     0.000 C
ATOM      6  O5  BDP B   1      11.668  27.960  31.4620  0.00  0.00     0.000 O
ATOM      7   O  BDP B   1       9.448  30.791  31.1460  0.00  0.00     0.000 O
ATOM      9  HD  BDP B   1       8.613  30.895  30.9400  0.00  0.00     0.000 HD
ATOM      9   O  BDP B   1      12.673  30.756  32.4940  0.00  0.00     0.000 O
ATOM     11  HD  BDP B   1      11.838  30.860  32.2880  0.00  0.00     0.000 HD
ATOM     11   O  BDP B   1      12.074  30.107  28.9690  0.00  0.00     0.000 O
ATOM     13  HD  BDP B   1      11.239  30.211  28.7630  0.00  0.00     0.000 HD
ENDROOT
BRANCH 5 13
ATOM     13   C  BDP B   1      14.034  28.101  31.1350  0.00  0.00     0.000 C
ATOM     14   O  BDP B   1      14.184  28.252  32.3650  0.00  0.00     0.000 OA
ATOM     15   O  BDP B   1      14.951  27.698  30.3870  0.00  0.00     0.000 OA
ENDBRANCH 5 13
BRANCH 1 16
ATOM     16  O3  NAG B   2       9.477  27.966  30.3180  0.00  0.00     0.000 O
BRANCH 16 19
ATOM     17  C1  NAG B   2       7.223  26.157  28.1030  0.00  0.00     0.000 C
ATOM     18  C2  NAG B   2       8.068  26.215  29.3760  0.00  0.00     0.000 C
ATOM     19  C3  NAG B   2       8.150  27.641  29.9000  0.00  0.00     0.000 C
ATOM     20  C4  NAG B   2       7.674  28.656  28.8570  0.00  0.00     0.000 C
ATOM     21  C5  NAG B   2       8.014  28.304  27.4020  0.00  0.00     0.000 C
ATOM     22  O5  NAG B   2       7.961  26.899  27.1290  0.00  0.00     0.000 O
ATOM     23   O  NAG B   2       6.259  28.823  28.9970  0.00  0.00     0.000 O
ATOM     25  HD  NAG B   2       6.103  27.982  29.1300  0.00  0.00     0.000 HD
ATOM     25   C  NAG B   2       9.411  28.823  27.0320  0.00  0.00     0.000 C
ATOM     26   O  NAG B   2       9.373  30.193  26.6080  0.00  0.00     0.000 O
ATOM     28  HD  NAG B   2       9.216  29.351  26.7400  0.00  0.00     0.000 HD
BRANCH 18 30
ATOM     28   N  NAG B   2       6.763  25.610  29.6350  0.00  0.00     0.000 N
ATOM     30  HD  NAG B   2       5.916  25.792  29.6500  0.00  0.00     0.000 HD
ATOM     30   C  NAG B   2       6.327  25.209  30.8380  0.00  0.00     0.000 C
ATOM     31   C  NAG B   2       4.950  24.607  30.8430  0.00  0.00     0.000 C
ATOM     32   O  NAG B   2       6.975  25.322  31.8530  0.00  0.00     0.000 OA
ENDBRANCH 18 30
BRANCH 17 33
ATOM     33  O4  BDP B   3       6.821  25.532  26.8650  0.00  0.00     0.000 O
BRANCH 33 37
ATOM     34  C1  BDP B   3       5.415  22.224  24.5570  0.00  0.00     0.000 C
ATOM     35  C2  BDP B   3       4.795  23.587  24.2720  0.00  0.00     0.000 C
ATOM     36  C3  BDP B   3       5.616  24.756  24.8050  0.00  0.00     0.000 C
ATOM     37  C4  BDP B   3       6.059  24.455  26.2450  0.00  0.00     0.000 C
ATOM     38  C5  BDP B   3       6.830  23.122  26.2180  0.00  0.00     0.000 C
ATOM     39  O5  BDP B   3       5.859  22.120  25.9150  0.00  0.00     0.000 O
ATOM     40   O  BDP B   3       4.614  23.655  22.8560  0.00  0.00     0.000 O
ATOM     42  HD  BDP B   3       3.918  23.191  23.0780  0.00  0.00     0.000 HD
ATOM     42   O  BDP B   3       4.780  25.909  24.7360  0.00  0.00     0.000 O
ATOM     44  HD  BDP B   3       4.084  25.445  24.9590  0.00  0.00     0.000 HD
BRANCH 38 44
ATOM     44   C  BDP B   3       7.525  22.783  27.5000  0.00  0.00     0.000 C
ATOM     45   O  BDP B   3       6.820  22.600  28.5170  0.00  0.00     0.000 OA
ATOM     46   O  BDP B   3       8.772  22.693  27.5230  0.00  0.00     0.000 OA
ENDBRANCH 38 44
BRANCH 34 47
ATOM     47  O3  NAG B   4       4.427  21.244  24.8690  0.00  0.00     0.000 O
BRANCH 47 50
ATOM     48  C1  NAG B   4       5.524  17.883  23.5830  0.00  0.00     0.000 C
ATOM     49  C2  NAG B   4       5.247  19.376  23.5390  0.00  0.00     0.000 C
ATOM     50  C3  NAG B   4       4.761  19.841  24.9070  0.00  0.00     0.000 C
ATOM     51  C4  NAG B   4       3.552  19.044  25.3720  0.00  0.00     0.000 C
ATOM     52  C5  NAG B   4       3.867  17.549  25.3280  0.00  0.00     0.000 C
ATOM     53  O5  NAG B   4       4.350  17.178  24.0300  0.00  0.00     0.000 O
ATOM     54   O  NAG B   4       3.210  19.449  26.7000  0.00  0.00     0.000 O
ATOM     56  HD  NAG B   4       2.585  18.985  26.3220  0.00  0.00     0.000 HD
ATOM     56   C  NAG B   4       2.638  16.714  25.6670  0.00  0.00     0.000 C
ATOM     57   O  NAG B   4       1.604  16.996  24.7150  0.00  0.00     0.000 O
ATOM     59  HD  NAG B   4       0.978  16.531  24.3370  0.00  0.00     0.000 HD
BRANCH 49 61
ATOM     59   N  NAG B   4       4.508  19.366  22.2760  0.00  0.00     0.000 N
ATOM     61  HD  NAG B   4       4.771  19.938  22.8710  0.00  0.00     0.000 HD
ATOM     61   O  NAG B   4       5.462  21.211  21.3880  0.00  0.00     0.000 OA
ATOM     62   C  NAG B   4       4.731  20.237  21.2840  0.00  0.00     0.000 C
ATOM     63   C  NAG B   4       4.035  19.939  19.9940  0.00  0.00     0.000 C
ENDBRANCH 49 61
BRANCH 48 64
ATOM     64  O4  BDP B   5       6.432  17.045  22.8740  0.00  0.00     0.000 O
BRANCH 64 68
ATOM     65  C1  BDP B   5      10.116  18.286  21.3710  0.00  0.00     0.000 C
ATOM     66  C2  BDP B   5       9.056  17.937  20.3350  0.00  0.00     0.000 C
ATOM     67  C3  BDP B   5       7.682  17.926  20.9910  0.00  0.00     0.000 C
ATOM     68  C4  BDP B   5       7.674  16.966  22.1760  0.00  0.00     0.000 C
ATOM     69  C5  BDP B   5       8.802  17.255  23.1570  0.00  0.00     0.000 C
ATOM     70  O5  BDP B   5      10.060  17.358  22.4660  0.00  0.00     0.000 O
ATOM     71   O  BDP B   5       9.117  18.874  19.2480  0.00  0.00     0.000 O
ATOM     73  HD  BDP B   5       9.184  19.476  18.6300  0.00  0.00     0.000 HD
ATOM     73   O  BDP B   5       6.678  17.524  20.0510  0.00  0.00     0.000 O
ATOM     75  HD  BDP B   5       6.745  18.126  19.4330  0.00  0.00     0.000 HD
BRANCH 69 75
ATOM     75   C  BDP B   5       8.866  16.125  24.1520  0.00  0.00     0.000 C
ATOM     76   O  BDP B   5       8.521  14.983  23.7860  0.00  0.00     0.000 OA
ATOM     77   O  BDP B   5       9.264  16.360  25.3080  0.00  0.00     0.000 OA
ENDBRANCH 69 75
BRANCH 65 78
ATOM     78  O3  NAG B   6      11.479  17.853  21.3700  0.00  0.00     0.000 O
BRANCH 78 81
ATOM     79  C1  NAG B   6      14.801  19.647  21.6520  0.00  0.00     0.000 C
ATOM     80  C2  NAG B   6      13.472  19.209  21.0160  0.00  0.00     0.000 C
ATOM     81  C3  NAG B   6      12.656  18.396  22.0070  0.00  0.00     0.000 C
ATOM     82  C4  NAG B   6      13.496  17.264  22.6080  0.00  0.00     0.000 C
ATOM     83  C5  NAG B   6      14.770  17.843  23.2110  0.00  0.00     0.000 C
ATOM     84  O5  NAG B   6      15.490  18.491  22.1610  0.00  0.00     0.000 O
BRANCH 80 87
ATOM     85   N  NAG B   6      12.817  20.419  20.5270  0.00  0.00     0.000 N
ATOM     87  HD  NAG B   6      12.761  21.056  19.9430  0.00  0.00     0.000 HD
ATOM     87   C  NAG B   6      12.146  20.492  19.3710  0.00  0.00     0.000 C
ATOM     88   C  NAG B   6      11.517  21.815  19.0680  0.00  0.00     0.000 C
ATOM     89   O  NAG B   6      12.031  19.544  18.6030  0.00  0.00     0.000 OA
ENDBRANCH 80 87
ATOM     90   O  NAG B   6      15.687  16.997  25.2820  0.00  0.00     0.000 O
ATOM     92  HD  NAG B   6      15.596  17.688  24.7680  0.00  0.00     0.000 HD
ATOM     92   O  NAG B   6      15.687  16.997  25.2820  0.00  0.00     0.000 O
ATOM     94  HD  NAG B   6      15.596  17.688  24.7680  0.00  0.00     0.000 HD
ENDBRANCH 78 81
ENDBRANCH 65 78
ENDBRANCH 64 68
ENDBRANCH 48 64
ENDBRANCH 47 50
ENDBRANCH 34 47
ENDBRANCH 33 37
ENDBRANCH 17 33
ENDBRANCH 16 19
ENDBRANCH 1 16
TORSDOF 16
ENDMDL
MODEL 81
REMARK VINA RESULT:      -4.7      6.433     15.384
ROOT
ATOM      1  C1  BDP B   1      24.575  15.516  38.8670  0.00  0.00     0.000 C
ATOM      2  C2  BDP B   1      23.356  16.417  38.9550  0.00  0.00     0.000 C
ATOM      3  C3  BDP B   1      23.730  17.856  39.2360  0.00  0.00     0.000 C
ATOM      4  C4  BDP B   1      25.207  18.168  39.0230  0.00  0.00     0.000 C
ATOM      5  C5  BDP B   1      26.127  17.130  39.6580  0.00  0.00     0.000 C
ATOM      6  O5  BDP B   1      25.446  15.892  39.9240  0.00  0.00     0.000 O
ATOM      7   O  BDP B   1      22.609  16.343  37.7360  0.00  0.00     0.000 O
ATOM      9  HD  BDP B   1      22.258  15.891  37.0860  0.00  0.00     0.000 HD
ATOM      9   O  BDP B   1      23.406  18.190  40.5950  0.00  0.00     0.000 O
ATOM     11  HD  BDP B   1      23.056  17.738  39.9450  0.00  0.00     0.000 HD
ATOM     11   O  BDP B   1      25.497  18.279  37.6240  0.00  0.00     0.000 O
ATOM     13  HD  BDP B   1      25.147  17.827  36.9740  0.00  0.00     0.000 HD
ENDROOT
BRANCH 5 13
ATOM     13   C  BDP B   1      26.632  17.710  40.9330  0.00  0.00     0.000 C
ATOM     14   O  BDP B   1      27.702  18.353  40.9040  0.00  0.00     0.000 OA
ATOM     15   O  BDP B   1      25.963  17.558  41.9770  0.00  0.00     0.000 OA
ENDBRANCH 5 13
BRANCH 1 16
ATOM     16  O3  NAG B   2      25.041  14.686  37.8050  0.00  0.00     0.000 O
BRANCH 16 19
ATOM     17  C1  NAG B   2      24.881  13.186  34.4910  0.00  0.00     0.000 C
ATOM     18  C2  NAG B   2      24.541  14.330  35.4470  0.00  0.00     0.000 C
ATOM     19  C3  NAG B   2      25.615  14.473  36.5140  0.00  0.00     0.000 C
ATOM     20  C4  NAG B   2      26.540  13.253  36.5560  0.00  0.00     0.000 C
ATOM     21  C5  NAG B   2      25.858  11.909  36.2640  0.00  0.00     0.000 C
ATOM     22  O5  NAG B   2      24.814  12.000  35.2870  0.00  0.00     0.000 O
ATOM     23   O  NAG B   2      27.612  13.464  35.6320  0.00  0.00     0.000 O
ATOM     25  HD  NAG B   2      27.110  13.814  35.0200  0.00  0.00     0.000 HD
ATOM     25   C  NAG B   2      25.275  11.308  37.5500  0.00  0.00     0.000 C
ATOM     26   O  NAG B   2      26.258  10.560  38.2810  0.00  0.00     0.000 O
ATOM     28  HD  NAG B   2      25.755  10.911  37.6690  0.00  0.00     0.000 HD
BRANCH 18 30
ATOM     28   N  NAG B   2      25.458  15.291  34.8350  0.00  0.00     0.000 N
ATOM     30  HD  NAG B   2      25.891  16.022  35.0010  0.00  0.00     0.000 HD
ATOM     30   C  NAG B   2      25.137  16.134  33.8440  0.00  0.00     0.000 C
ATOM     31   C  NAG B   2      26.260  17.018  33.3780  0.00  0.00     0.000 C
ATOM     32   O  NAG B   2      24.034  16.198  33.3540  0.00  0.00     0.000 OA
ENDBRANCH 18 30
BRANCH 17 33
ATOM     33  O4  BDP B   3      24.514  12.179  33.5230  0.00  0.00     0.000 O
BRANCH 33 37
ATOM     34  C1  BDP B   3      23.176  10.492  29.8340  0.00  0.00     0.000 C
ATOM     35  C2  BDP B   3      24.415  11.378  29.7860  0.00  0.00     0.000 C
ATOM     36  C3  BDP B   3      25.068  11.589  31.1470  0.00  0.00     0.000 C
ATOM     37  C4  BDP B   3      23.988  11.920  32.1880  0.00  0.00     0.000 C
ATOM     38  C5  BDP B   3      22.965  10.768  32.1680  0.00  0.00     0.000 C
ATOM     39  O5  BDP B   3      22.302  10.863  30.9070  0.00  0.00     0.000 O
ATOM     40   O  BDP B   3      25.304  10.771  28.8470  0.00  0.00     0.000 O
ATOM     42  HD  BDP B   3      24.771  11.188  28.3070  0.00  0.00     0.000 HD
ATOM     42   O  BDP B   3      26.001  12.657  30.9930  0.00  0.00     0.000 O
ATOM     44  HD  BDP B   3      25.468  13.074  30.4530  0.00  0.00     0.000 HD
BRANCH 38 44
ATOM     44   C  BDP B   3      21.958  10.815  33.2750  0.00  0.00     0.000 C
ATOM     45   O  BDP B   3      20.934  11.513  33.1040  0.00  0.00     0.000 OA
ATOM     46   O  BDP B   3      22.162  10.168  34.3240  0.00  0.00     0.000 OA
ENDBRANCH 38 44
BRANCH 34 47
ATOM     47  O3  NAG B   4      22.163  10.941  28.9350  0.00  0.00     0.000 O
BRANCH 47 50
ATOM     48  C1  NAG B   4      20.200   8.829  26.5200  0.00  0.00     0.000 C
ATOM     49  C2  NAG B   4      21.336   9.714  27.0020  0.00  0.00     0.000 C
ATOM     50  C3  NAG B   4      21.130  10.046  28.4750  0.00  0.00     0.000 C
ATOM     51  C4  NAG B   4      19.768  10.674  28.7220  0.00  0.00     0.000 C
ATOM     52  C5  NAG B   4      18.670   9.774  28.1540  0.00  0.00     0.000 C
ATOM     53  O5  NAG B   4      18.935   9.469  26.7790  0.00  0.00     0.000 O
ATOM     54   O  NAG B   4      19.589  10.862  30.1280  0.00  0.00     0.000 O
ATOM     56  HD  NAG B   4      19.007  11.297  29.6570  0.00  0.00     0.000 HD
ATOM     56   C  NAG B   4      17.299  10.430  28.2710  0.00  0.00     0.000 C
ATOM     57   O  NAG B   4      17.308  11.664  27.5410  0.00  0.00     0.000 O
ATOM     59  HD  NAG B   4      16.726  12.099  27.0690  0.00  0.00     0.000 HD
BRANCH 49 61
ATOM     59   N  NAG B   4      22.531   8.997  26.5550  0.00  0.00     0.000 N
ATOM     61  HD  NAG B   4      21.981   9.594  26.2540  0.00  0.00     0.000 HD
ATOM     61   O  NAG B   4      23.560  10.760  25.5880  0.00  0.00     0.000 OA
ATOM     62   C  NAG B   4      23.568   9.594  25.9550  0.00  0.00     0.000 C
ATOM     63   C  NAG B   4      24.783   8.743  25.7650  0.00  0.00     0.000 C
ENDBRANCH 49 61
BRANCH 48 64
ATOM     64  O4  BDP B   5      20.112   7.827  25.5120  0.00  0.00     0.000 O
BRANCH 64 68
ATOM     65  C1  BDP B   5      21.141   8.169  21.4870  0.00  0.00     0.000 C
ATOM     66  C2  BDP B   5      19.699   8.510  21.8380  0.00  0.00     0.000 C
ATOM     67  C3  BDP B   5      19.581   8.760  23.3360  0.00  0.00     0.000 C
ATOM     68  C4  BDP B   5      20.098   7.552  24.1110  0.00  0.00     0.000 C
ATOM     69  C5  BDP B   5      21.502   7.151  23.6810  0.00  0.00     0.000 C
ATOM     70  O5  BDP B   5      21.578   7.033  22.2490  0.00  0.00     0.000 O
ATOM     71   O  BDP B   5      19.274   9.650  21.0760  0.00  0.00     0.000 O
ATOM     73  HD  BDP B   5      19.076  10.351  20.6070  0.00  0.00     0.000 HD
ATOM     73   O  BDP B   5      18.218   9.007  23.7000  0.00  0.00     0.000 O
ATOM     75  HD  BDP B   5      18.020   9.707  23.2310  0.00  0.00     0.000 HD
BRANCH 69 75
ATOM     75   C  BDP B   5      21.831   5.823  24.3140  0.00  0.00     0.000 C
ATOM     76   O  BDP B   5      23.016   5.579  24.6160  0.00  0.00     0.000 OA
ATOM     77   O  BDP B   5      20.911   5.010  24.5200  0.00  0.00     0.000 OA
ENDBRANCH 69 75
BRANCH 65 78
ATOM     78  O3  NAG B   6      21.577   7.331  20.4130  0.00  0.00     0.000 O
BRANCH 78 81
ATOM     79  C1  NAG B   6      23.702   7.835  17.3210  0.00  0.00     0.000 C
ATOM     80  C2  NAG B   6      22.472   7.955  18.2340  0.00  0.00     0.000 C
ATOM     81  C3  NAG B   6      22.772   7.362  19.6010  0.00  0.00     0.000 C
ATOM     82  C4  NAG B   6      23.349   5.949  19.4680  0.00  0.00     0.000 C
ATOM     83  C5  NAG B   6      24.565   5.983  18.5490  0.00  0.00     0.000 C
ATOM     84  O5  NAG B   6      24.131   6.463  17.2760  0.00  0.00     0.000 O
BRANCH 80 87
ATOM     85   N  NAG B   6      22.089   9.364  18.1930  0.00  0.00     0.000 N
ATOM     87  HD  NAG B   6      21.702  10.023  17.7850  0.00  0.00     0.000 HD
ATOM     87   C  NAG B   6      20.823   9.797  18.2310  0.00  0.00     0.000 C
ATOM     88   C  NAG B   6      20.644  11.282  18.2140  0.00  0.00     0.000 C
ATOM     89   O  NAG B   6      19.860   9.042  18.2910  0.00  0.00     0.000 OA
ENDBRANCH 80 87
ATOM     90   O  NAG B   6      26.525   4.639  18.9950  0.00  0.00     0.000 O
ATOM     92  HD  NAG B   6      26.224   5.374  18.6510  0.00  0.00     0.000 HD
ATOM     92   O  NAG B   6      26.525   4.639  18.9950  0.00  0.00     0.000 O
ATOM     94  HD  NAG B   6      26.224   5.374  18.6510  0.00  0.00     0.000 HD
ENDBRANCH 78 81
ENDBRANCH 65 78
ENDBRANCH 64 68
ENDBRANCH 48 64
ENDBRANCH 47 50
ENDBRANCH 34 47
ENDBRANCH 33 37
ENDBRANCH 17 33
ENDBRANCH 16 19
ENDBRANCH 1 16
TORSDOF 16
ENDMDL
MODEL 82
REMARK VINA RESULT:      -4.7      6.667     10.084
ROOT
ATOM      1  C1  BDP B   1      30.040   6.923  32.6010  0.00  0.00     0.000 C
ATOM      2  C2  BDP B   1      30.504   7.795  31.4480  0.00  0.00     0.000 C
ATOM      3  C3  BDP B   1      31.962   8.183  31.5770  0.00  0.00     0.000 C
ATOM      4  C4  BDP B   1      32.736   7.359  32.6000  0.00  0.00     0.000 C
ATOM      5  C5  BDP B   1      31.991   7.211  33.9230  0.00  0.00     0.000 C
ATOM      6  O5  BDP B   1      30.586   7.481  33.7880  0.00  0.00     0.000 O
ATOM      7   O  BDP B   1      30.296   7.111  30.2070  0.00  0.00     0.000 O
ATOM      9  HD  BDP B   1      29.810   6.627  29.6780  0.00  0.00     0.000 HD
ATOM      9   O  BDP B   1      32.069   9.563  31.9570  0.00  0.00     0.000 O
ATOM     11  HD  BDP B   1      31.583   9.080  31.4280  0.00  0.00     0.000 HD
ATOM     11   O  BDP B   1      33.042   6.064  32.0700  0.00  0.00     0.000 O
ATOM     13  HD  BDP B   1      32.555   5.580  31.5410  0.00  0.00     0.000 HD
ENDROOT
BRANCH 5 13
ATOM     13   C  BDP B   1      32.598   8.176  34.8800  0.00  0.00     0.000 C
ATOM     14   O  BDP B   1      33.802   8.474  34.7340  0.00  0.00     0.000 OA
ATOM     15   O  BDP B   1      31.884   8.675  35.7760  0.00  0.00     0.000 OA
ENDBRANCH 5 13
BRANCH 1 16
ATOM     16  O3  NAG B   2      29.484   5.610  32.6060  0.00  0.00     0.000 O
BRANCH 16 19
ATOM     17  C1  NAG B   2      26.039   4.832  31.7210  0.00  0.00     0.000 C
ATOM     18  C2  NAG B   2      27.455   5.238  31.3100  0.00  0.00     0.000 C
ATOM     19  C3  NAG B   2      28.480   4.652  32.2700  0.00  0.00     0.000 C
ATOM     20  C4  NAG B   2      27.822   4.122  33.5470  0.00  0.00     0.000 C
ATOM     21  C5  NAG B   2      26.615   4.931  34.0420  0.00  0.00     0.000 C
ATOM     22  O5  NAG B   2      25.818   5.470  32.9810  0.00  0.00     0.000 O
ATOM     23   O  NAG B   2      27.439   2.761  33.3310  0.00  0.00     0.000 O
ATOM     25  HD  NAG B   2      27.156   2.895  32.5230  0.00  0.00     0.000 HD
ATOM     25   C  NAG B   2      27.070   6.084  34.9480  0.00  0.00     0.000 C
ATOM     26   O  NAG B   2      27.240   5.656  36.3070  0.00  0.00     0.000 O
ATOM     28  HD  NAG B   2      26.958   5.791  35.4990  0.00  0.00     0.000 HD
BRANCH 18 30
ATOM     28   N  NAG B   2      27.683   3.932  30.6920  0.00  0.00     0.000 N
ATOM     30  HD  NAG B   2      28.309   3.361  30.5140  0.00  0.00     0.000 HD
ATOM     30   C  NAG B   2      27.576   3.674  29.3810  0.00  0.00     0.000 C
ATOM     31   C  NAG B   2      27.851   2.249  28.9930  0.00  0.00     0.000 C
ATOM     32   O  NAG B   2      27.287   4.512  28.5580  0.00  0.00     0.000 OA
ENDBRANCH 18 30
BRANCH 17 33
ATOM     33  O4  BDP B   3      24.608   5.022  31.7280  0.00  0.00     0.000 O
BRANCH 33 37
ATOM     34  C1  BDP B   3      20.640   4.820  33.2960  0.00  0.00     0.000 C
ATOM     35  C2  BDP B   3      21.247   6.205  33.1130  0.00  0.00     0.000 C
ATOM     36  C3  BDP B   3      22.453   6.226  32.1800  0.00  0.00     0.000 C
ATOM     37  C4  BDP B   3      23.398   5.069  32.5400  0.00  0.00     0.000 C
ATOM     38  C5  BDP B   3      22.579   3.767  32.4590  0.00  0.00     0.000 C
ATOM     39  O5  BDP B   3      21.647   3.830  33.5380  0.00  0.00     0.000 O
ATOM     40   O  BDP B   3      20.189   7.047  32.6480  0.00  0.00     0.000 O
ATOM     42  HD  BDP B   3      20.021   7.042  33.4980  0.00  0.00     0.000 HD
ATOM     42   O  BDP B   3      23.080   7.496  32.3480  0.00  0.00     0.000 O
ATOM     44  HD  BDP B   3      22.912   7.491  33.1980  0.00  0.00     0.000 HD
BRANCH 38 44
ATOM     44   C  BDP B   3      23.393   2.515  32.5650  0.00  0.00     0.000 C
ATOM     45   O  BDP B   3      23.228   1.634  31.6940  0.00  0.00     0.000 OA
ATOM     46   O  BDP B   3      24.205   2.384  33.5070  0.00  0.00     0.000 OA
ENDBRANCH 38 44
BRANCH 34 47
ATOM     47  O3  NAG B   4      20.193   4.605  34.6340  0.00  0.00     0.000 O
BRANCH 47 50
ATOM     48  C1  NAG B   4      16.620   3.516  35.0710  0.00  0.00     0.000 C
ATOM     49  C2  NAG B   4      17.765   4.443  34.7030  0.00  0.00     0.000 C
ATOM     50  C3  NAG B   4      19.090   3.720  34.9150  0.00  0.00     0.000 C
ATOM     51  C4  NAG B   4      19.216   3.187  36.3330  0.00  0.00     0.000 C
ATOM     52  C5  NAG B   4      18.002   2.320  36.6710  0.00  0.00     0.000 C
ATOM     53  O5  NAG B   4      16.789   3.039  36.4210  0.00  0.00     0.000 O
ATOM     54   O  NAG B   4      20.423   2.429  36.4400  0.00  0.00     0.000 O
ATOM     56  HD  NAG B   4      20.079   2.618  37.2120  0.00  0.00     0.000 HD
ATOM     56   C  NAG B   4      18.032   1.870  38.1270  0.00  0.00     0.000 C
ATOM     57   O  NAG B   4      18.023   3.027  38.9740  0.00  0.00     0.000 O
ATOM     59  HD  NAG B   4      17.679   3.216  39.7460  0.00  0.00     0.000 HD
BRANCH 49 61
ATOM     59   N  NAG B   4      17.322   5.628  35.4380  0.00  0.00     0.000 N
ATOM     61  HD  NAG B   4      17.965   5.395  34.9070  0.00  0.00     0.000 HD
ATOM     61   O  NAG B   4      17.720   7.130  33.7980  0.00  0.00     0.000 OA
ATOM     62   C  NAG B   4      17.269   6.852  34.9000  0.00  0.00     0.000 C
ATOM     63   C  NAG B   4      16.591   7.895  35.7300  0.00  0.00     0.000 C
ENDBRANCH 49 61
BRANCH 48 64
ATOM     64  O4  BDP B   5      15.275   3.407  34.6150  0.00  0.00     0.000 O
BRANCH 64 68
ATOM     65  C1  BDP B   5      12.332   6.293  35.2340  0.00  0.00     0.000 C
ATOM     66  C2  BDP B   5      12.105   4.952  35.9190  0.00  0.00     0.000 C
ATOM     67  C3  BDP B   5      13.414   4.175  35.9700  0.00  0.00     0.000 C
ATOM     68  C4  BDP B   5      13.987   4.020  34.5650  0.00  0.00     0.000 C
ATOM     69  C5  BDP B   5      14.113   5.357  33.8450  0.00  0.00     0.000 C
ATOM     70  O5  BDP B   5      12.878   6.090  33.9220  0.00  0.00     0.000 O
ATOM     71   O  BDP B   5      11.565   5.166  37.2320  0.00  0.00     0.000 O
ATOM     73  HD  BDP B   5      11.260   5.352  38.0210  0.00  0.00     0.000 HD
ATOM     73   O  BDP B   5      13.208   2.877  36.5410  0.00  0.00     0.000 O
ATOM     75  HD  BDP B   5      12.903   3.063  37.3300  0.00  0.00     0.000 HD
BRANCH 69 75
ATOM     75   C  BDP B   5      14.450   5.087  32.4010  0.00  0.00     0.000 C
ATOM     76   O  BDP B   5      15.633   5.217  32.0270  0.00  0.00     0.000 OA
ATOM     77   O  BDP B   5      13.541   4.739  31.6240  0.00  0.00     0.000 OA
ENDBRANCH 69 75
BRANCH 65 78
ATOM     78  O3  NAG B   6      11.371   7.030  34.4740  0.00  0.00     0.000 O
BRANCH 78 81
ATOM     79  C1  NAG B   6       9.942  10.445  33.6800  0.00  0.00     0.000 C
ATOM     80  C2  NAG B   6      10.008   9.043  34.3060  0.00  0.00     0.000 C
ATOM     81  C3  NAG B   6      11.357   8.402  34.0230  0.00  0.00     0.000 C
ATOM     82  C4  NAG B   6      11.689   8.465  32.5290  0.00  0.00     0.000 C
ATOM     83  C5  NAG B   6      11.598   9.909  32.0500  0.00  0.00     0.000 C
ATOM     84  O5  NAG B   6      10.262  10.358  32.2790  0.00  0.00     0.000 O
BRANCH 80 87
ATOM     85   N  NAG B   6      10.021   8.467  35.6470  0.00  0.00     0.000 N
ATOM     87  HD  NAG B   6       9.915   8.557  36.5020  0.00  0.00     0.000 HD
ATOM     87   C  NAG B   6       8.932   8.332  36.4150  0.00  0.00     0.000 C
ATOM     88   C  NAG B   6       9.153   7.684  37.7450  0.00  0.00     0.000 C
ATOM     89   O  NAG B   6       7.817   8.697  36.0630  0.00  0.00     0.000 OA
ENDBRANCH 80 87
ATOM     90   O  NAG B   6      13.169  10.812  30.4480  0.00  0.00     0.000 O
ATOM     92  HD  NAG B   6      12.653  10.985  31.1210  0.00  0.00     0.000 HD
ATOM     92   O  NAG B   6      13.169  10.812  30.4480  0.00  0.00     0.000 O
ATOM     94  HD  NAG B   6      12.653  10.985  31.1210  0.00  0.00     0.000 HD
ENDBRANCH 78 81
ENDBRANCH 65 78
ENDBRANCH 64 68
ENDBRANCH 48 64
ENDBRANCH 47 50
ENDBRANCH 34 47
ENDBRANCH 33 37
ENDBRANCH 17 33
ENDBRANCH 16 19
ENDBRANCH 1 16
TORSDOF 16
ENDMDL
MODEL 83
REMARK VINA RESULT:      -4.7     13.139     21.216
ROOT
ATOM      1  C1  BDP B   1       6.532  17.086  28.0820  0.00  0.00     0.000 C
ATOM      2  C2  BDP B   1       6.567  15.594  28.3610  0.00  0.00     0.000 C
ATOM      3  C3  BDP B   1       6.496  14.775  27.0900  0.00  0.00     0.000 C
ATOM      4  C4  BDP B   1       6.761  15.575  25.8200  0.00  0.00     0.000 C
ATOM      5  C5  BDP B   1       5.989  16.890  25.7790  0.00  0.00     0.000 C
ATOM      6  O5  BDP B   1       5.545  17.298  27.0840  0.00  0.00     0.000 O
ATOM      7   O  BDP B   1       7.759  15.261  29.0820  0.00  0.00     0.000 O
ATOM      9  HD  BDP B   1       8.336  15.417  29.7090  0.00  0.00     0.000 HD
ATOM      9   O  BDP B   1       5.197  14.175  26.9660  0.00  0.00     0.000 O
ATOM     11  HD  BDP B   1       5.774  14.331  27.5930  0.00  0.00     0.000 HD
ATOM     11   O  BDP B   1       8.163  15.832  25.6740  0.00  0.00     0.000 O
ATOM     13  HD  BDP B   1       8.740  15.987  26.3010  0.00  0.00     0.000 HD
ENDROOT
BRANCH 5 13
ATOM     13   C  BDP B   1       4.813  16.684  24.8900  0.00  0.00     0.000 C
ATOM     14   O  BDP B   1       4.982  16.785  23.6570  0.00  0.00     0.000 OA
ATOM     15   O  BDP B   1       3.710  16.393  25.3990  0.00  0.00     0.000 OA
ENDBRANCH 5 13
BRANCH 1 16
ATOM     16  O3  NAG B   2       7.469  18.112  28.4070  0.00  0.00     0.000 O
BRANCH 16 19
ATOM     17  C1  NAG B   2      10.283  19.557  26.6050  0.00  0.00     0.000 C
ATOM     18  C2  NAG B   2       8.809  19.155  26.6590  0.00  0.00     0.000 C
ATOM     19  C3  NAG B   2       8.283  19.240  28.0850  0.00  0.00     0.000 C
ATOM     20  C4  NAG B   2       9.420  19.364  29.1020  0.00  0.00     0.000 C
ATOM     21  C5  NAG B   2      10.696  18.584  28.7520  0.00  0.00     0.000 C
ATOM     22  O5  NAG B   2      10.974  18.550  27.3470  0.00  0.00     0.000 O
ATOM     23   O  NAG B   2       9.731  20.751  29.2710  0.00  0.00     0.000 O
ATOM     25  HD  NAG B   2       9.656  20.942  28.4300  0.00  0.00     0.000 HD
ATOM     25   C  NAG B   2      10.607  17.142  29.2690  0.00  0.00     0.000 C
ATOM     26   O  NAG B   2      11.018  17.043  30.6400  0.00  0.00     0.000 O
ATOM     28  HD  NAG B   2      10.944  17.234  29.7990  0.00  0.00     0.000 HD
BRANCH 18 30
ATOM     28   N  NAG B   2       8.946  20.542  26.2180  0.00  0.00     0.000 N
ATOM     30  HD  NAG B   2       9.050  21.347  26.5180  0.00  0.00     0.000 HD
ATOM     30   C  NAG B   2       7.970  21.268  25.6540  0.00  0.00     0.000 C
ATOM     31   C  NAG B   2       8.362  22.668  25.2760  0.00  0.00     0.000 C
ATOM     32   O  NAG B   2       6.853  20.848  25.4610  0.00  0.00     0.000 OA
ENDBRANCH 18 30
BRANCH 17 33
ATOM     33  O4  BDP B   3      11.586  19.550  25.9830  0.00  0.00     0.000 O
BRANCH 33 37
ATOM     34  C1  BDP B   3      13.520  19.295  22.1830  0.00  0.00     0.000 C
ATOM     35  C2  BDP B   3      12.421  18.280  22.4750  0.00  0.00     0.000 C
ATOM     36  C3  BDP B   3      11.510  18.682  23.6300  0.00  0.00     0.000 C
ATOM     37  C4  BDP B   3      12.363  19.176  24.8080  0.00  0.00     0.000 C
ATOM     38  C5  BDP B   3      13.240  20.330  24.2850  0.00  0.00     0.000 C
ATOM     39  O5  BDP B   3      14.170  19.730  23.3830  0.00  0.00     0.000 O
ATOM     40   O  BDP B   3      11.701  18.108  21.2530  0.00  0.00     0.000 O
ATOM     42  HD  BDP B   3      12.381  17.591  21.1070  0.00  0.00     0.000 HD
ATOM     42   O  BDP B   3      10.749  17.525  23.9730  0.00  0.00     0.000 O
ATOM     44  HD  BDP B   3      11.429  17.008  23.8270  0.00  0.00     0.000 HD
BRANCH 38 44
ATOM     44   C  BDP B   3      13.979  21.078  25.3510  0.00  0.00     0.000 C
ATOM     45   O  BDP B   3      14.939  20.504  25.9100  0.00  0.00     0.000 OA
ATOM     46   O  BDP B   3      13.622  22.238  25.6520  0.00  0.00     0.000 OA
ENDBRANCH 38 44
BRANCH 34 47
ATOM     47  O3  NAG B   4      14.746  18.664  21.8200  0.00  0.00     0.000 O
BRANCH 47 50
ATOM     48  C1  NAG B   4      16.584  19.968  18.8080  0.00  0.00     0.000 C
ATOM     49  C2  NAG B   4      15.475  19.273  19.5770  0.00  0.00     0.000 C
ATOM     50  C3  NAG B   4      15.754  19.376  21.0730  0.00  0.00     0.000 C
ATOM     51  C4  NAG B   4      17.128  18.828  21.4240  0.00  0.00     0.000 C
ATOM     52  C5  NAG B   4      18.195  19.513  20.5690  0.00  0.00     0.000 C
ATOM     53  O5  NAG B   4      17.861  19.413  19.1790  0.00  0.00     0.000 O
ATOM     54   O  NAG B   4      17.376  19.049  22.8150  0.00  0.00     0.000 O
ATOM     56  HD  NAG B   4      17.935  18.490  22.4610  0.00  0.00     0.000 HD
ATOM     56   C  NAG B   4      19.570  18.901  20.8050  0.00  0.00     0.000 C
ATOM     57   O  NAG B   4      19.528  17.509  20.4610  0.00  0.00     0.000 O
ATOM     59  HD  NAG B   4      20.087  16.950  20.1080  0.00  0.00     0.000 HD
BRANCH 49 61
ATOM     59   N  NAG B   4      14.320  19.831  18.8720  0.00  0.00     0.000 N
ATOM     61  HD  NAG B   4      14.833  19.134  18.8300  0.00  0.00     0.000 HD
ATOM     61   O  NAG B   4      13.185  17.893  18.6330  0.00  0.00     0.000 OA
ATOM     62   C  NAG B   4      13.247  19.109  18.5280  0.00  0.00     0.000 C
ATOM     63   C  NAG B   4      12.082  19.890  18.0090  0.00  0.00     0.000 C
ENDBRANCH 49 61
BRANCH 48 64
ATOM     64  O4  BDP B   5      16.621  20.636  17.5510  0.00  0.00     0.000 O
BRANCH 64 68
ATOM     65  C1  BDP B   5      16.967  23.332  14.3900  0.00  0.00     0.000 C
ATOM     66  C2  BDP B   5      18.250  22.625  14.8070  0.00  0.00     0.000 C
ATOM     67  C3  BDP B   5      17.910  21.396  15.6410  0.00  0.00     0.000 C
ATOM     68  C4  BDP B   5      17.051  21.795  16.8360  0.00  0.00     0.000 C
ATOM     69  C5  BDP B   5      15.822  22.593  16.4210  0.00  0.00     0.000 C
ATOM     70  O5  BDP B   5      16.194  23.677  15.5510  0.00  0.00     0.000 O
ATOM     71   O  BDP B   5      19.011  22.279  13.6400  0.00  0.00     0.000 O
ATOM     73  HD  BDP B   5      19.419  22.077  12.9040  0.00  0.00     0.000 HD
ATOM     73   O  BDP B   5      19.104  20.759  16.1090  0.00  0.00     0.000 O
ATOM     75  HD  BDP B   5      19.513  20.557  15.3730  0.00  0.00     0.000 HD
BRANCH 69 75
ATOM     75   C  BDP B   5      15.174  23.146  17.6640  0.00  0.00     0.000 C
ATOM     76   O  BDP B   5      15.832  23.916  18.3920  0.00  0.00     0.000 OA
ATOM     77   O  BDP B   5      14.001  22.823  17.9270  0.00  0.00     0.000 OA
ENDBRANCH 69 75
BRANCH 65 78
ATOM     78  O3  NAG B   6      16.810  24.732  14.1490  0.00  0.00     0.000 O
BRANCH 78 81
ATOM     79  C1  NAG B   6      15.279  26.733  11.3230  0.00  0.00     0.000 C
ATOM     80  C2  NAG B   6      16.286  25.810  12.0270  0.00  0.00     0.000 C
ATOM     81  C3  NAG B   6      15.800  25.471  13.4270  0.00  0.00     0.000 C
ATOM     82  C4  NAG B   6      15.431  26.743  14.1990  0.00  0.00     0.000 C
ATOM     83  C5  NAG B   6      14.420  27.550  13.3920  0.00  0.00     0.000 C
ATOM     84  O5  NAG B   6      15.032  27.887  12.1460  0.00  0.00     0.000 O
BRANCH 80 87
ATOM     85   N  NAG B   6      16.492  24.669  11.1400  0.00  0.00     0.000 N
ATOM     87  HD  NAG B   6      16.849  24.329  10.4270  0.00  0.00     0.000 HD
ATOM     87   C  NAG B   6      17.675  24.071  10.9510  0.00  0.00     0.000 C
ATOM     88   C  NAG B   6      17.667  22.894  10.0270  0.00  0.00     0.000 C
ATOM     89   O  NAG B   6      18.705  24.439  11.5020  0.00  0.00     0.000 OA
ENDBRANCH 80 87
ATOM     90   O  NAG B   6      12.584  28.706  14.4590  0.00  0.00     0.000 O
ATOM     92  HD  NAG B   6      12.858  28.302  13.7430  0.00  0.00     0.000 HD
ATOM     92   O  NAG B   6      12.584  28.706  14.4590  0.00  0.00     0.000 O
ATOM     94  HD  NAG B   6      12.858  28.302  13.7430  0.00  0.00     0.000 HD
ENDBRANCH 78 81
ENDBRANCH 65 78
ENDBRANCH 64 68
ENDBRANCH 48 64
ENDBRANCH 47 50
ENDBRANCH 34 47
ENDBRANCH 33 37
ENDBRANCH 17 33
ENDBRANCH 16 19
ENDBRANCH 1 16
TORSDOF 16
ENDMDL
MODEL 84
REMARK VINA RESULT:      -4.6      7.106     13.137
ROOT
ATOM      1  C1  BDP B   1      18.924  24.612  32.5430  0.00  0.00     0.000 C
ATOM      2  C2  BDP B   1      19.113  26.081  32.8740  0.00  0.00     0.000 C
ATOM      3  C3  BDP B   1      20.101  26.752  31.9430  0.00  0.00     0.000 C
ATOM      4  C4  BDP B   1      20.418  25.946  30.6880  0.00  0.00     0.000 C
ATOM      5  C5  BDP B   1      20.712  24.479  30.9880  0.00  0.00     0.000 C
ATOM      6  O5  BDP B   1      20.211  24.078  32.2740  0.00  0.00     0.000 O
ATOM      7   O  BDP B   1      17.855  26.761  32.8100  0.00  0.00     0.000 O
ATOM      9  HD  BDP B   1      17.007  26.807  32.9800  0.00  0.00     0.000 HD
ATOM      9   O  BDP B   1      21.338  26.992  32.6320  0.00  0.00     0.000 O
ATOM     11  HD  BDP B   1      20.491  27.038  32.8020  0.00  0.00     0.000 HD
ATOM     11   O  BDP B   1      19.341  26.041  29.7480  0.00  0.00     0.000 O
ATOM     13  HD  BDP B   1      18.493  26.087  29.9180  0.00  0.00     0.000 HD
ENDROOT
BRANCH 5 13
ATOM     13   C  BDP B   1      22.191  24.310  30.9490  0.00  0.00     0.000 C
ATOM     14   O  BDP B   1      22.650  23.149  30.9110  0.00  0.00     0.000 OA
ATOM     15   O  BDP B   1      22.919  25.325  30.9290  0.00  0.00     0.000 OA
ENDBRANCH 5 13
BRANCH 1 16
ATOM     16  O3  NAG B   2      17.748  23.885  32.1900  0.00  0.00     0.000 O
BRANCH 16 19
ATOM     17  C1  NAG B   2      17.454  20.314  31.5450  0.00  0.00     0.000 C
ATOM     18  C2  NAG B   2      17.769  21.468  32.4970  0.00  0.00     0.000 C
ATOM     19  C3  NAG B   2      16.953  22.700  32.1340  0.00  0.00     0.000 C
ATOM     20  C4  NAG B   2      16.316  22.570  30.7480  0.00  0.00     0.000 C
ATOM     21  C5  NAG B   2      17.163  21.822  29.7090  0.00  0.00     0.000 C
ATOM     22  O5  NAG B   2      17.925  20.744  30.2660  0.00  0.00     0.000 O
ATOM     23   O  NAG B   2      15.045  21.929  30.8900  0.00  0.00     0.000 O
ATOM     25  HD  NAG B   2      15.320  21.357  31.4780  0.00  0.00     0.000 HD
ATOM     25   C  NAG B   2      18.124  22.786  28.9990  0.00  0.00     0.000 C
ATOM     26   O  NAG B   2      17.493  23.445  27.8920  0.00  0.00     0.000 O
ATOM     28  HD  NAG B   2      17.769  22.873  28.4810  0.00  0.00     0.000 HD
BRANCH 18 30
ATOM     28   N  NAG B   2      16.952  20.449  33.1530  0.00  0.00     0.000 N
ATOM     30  HD  NAG B   2      16.164  20.090  33.1360  0.00  0.00     0.000 HD
ATOM     30   C  NAG B   2      16.492  20.526  34.4100  0.00  0.00     0.000 C
ATOM     31   C  NAG B   2      15.681  19.343  34.8600  0.00  0.00     0.000 C
ATOM     32   O  NAG B   2      16.697  21.469  35.1380  0.00  0.00     0.000 OA
ENDBRANCH 18 30
BRANCH 17 33
ATOM     33  O4  BDP B   3      17.783  19.066  30.8980  0.00  0.00     0.000 O
BRANCH 33 37
ATOM     34  C1  BDP B   3      16.924  14.915  31.4230  0.00  0.00     0.000 C
ATOM     35  C2  BDP B   3      17.798  15.585  32.4770  0.00  0.00     0.000 C
ATOM     36  C3  BDP B   3      17.712  17.107  32.4640  0.00  0.00     0.000 C
ATOM     37  C4  BDP B   3      17.816  17.614  31.0180  0.00  0.00     0.000 C
ATOM     38  C5  BDP B   3      16.696  16.927  30.2110  0.00  0.00     0.000 C
ATOM     39  O5  BDP B   3      17.059  15.548  30.1450  0.00  0.00     0.000 O
ATOM     40   O  BDP B   3      17.403  15.031  33.7340  0.00  0.00     0.000 O
ATOM     42  HD  BDP B   3      17.926  14.404  33.4460  0.00  0.00     0.000 HD
ATOM     42   O  BDP B   3      18.786  17.584  33.2720  0.00  0.00     0.000 O
ATOM     44  HD  BDP B   3      19.310  16.957  32.9850  0.00  0.00     0.000 HD
BRANCH 38 44
ATOM     44   C  BDP B   3      16.509  17.469  28.8280  0.00  0.00     0.000 C
ATOM     45   O  BDP B   3      17.191  16.970  27.9070  0.00  0.00     0.000 OA
ATOM     46   O  BDP B   3      15.689  18.392  28.6320  0.00  0.00     0.000 OA
ENDBRANCH 38 44
BRANCH 34 47
ATOM     47  O3  NAG B   4      17.555  13.770  30.8540  0.00  0.00     0.000 O
BRANCH 47 50
ATOM     48  C1  NAG B   4      15.685  10.527  30.4870  0.00  0.00     0.000 C
ATOM     49  C2  NAG B   4      16.439  11.634  31.2030  0.00  0.00     0.000 C
ATOM     50  C3  NAG B   4      16.781  12.738  30.2090  0.00  0.00     0.000 C
ATOM     51  C4  NAG B   4      17.551  12.198  29.0150  0.00  0.00     0.000 C
ATOM     52  C5  NAG B   4      16.778  11.042  28.3790  0.00  0.00     0.000 C
ATOM     53  O5  NAG B   4      16.456  10.053  29.3660  0.00  0.00     0.000 O
ATOM     54   O  NAG B   4      17.747  13.253  28.0700  0.00  0.00     0.000 O
ATOM     56  HD  NAG B   4      18.245  12.564  27.9080  0.00  0.00     0.000 HD
ATOM     56   C  NAG B   4      17.577  10.393  27.2550  0.00  0.00     0.000 C
ATOM     57   O  NAG B   4      18.808   9.887  27.7890  0.00  0.00     0.000 O
ATOM     59  HD  NAG B   4      19.307   9.197  27.6270  0.00  0.00     0.000 HD
BRANCH 49 61
ATOM     59   N  NAG B   4      15.595  11.868  32.3750  0.00  0.00     0.000 N
ATOM     61  HD  NAG B   4      16.267  11.372  32.1470  0.00  0.00     0.000 HD
ATOM     61   O  NAG B   4      17.249  11.835  33.9120  0.00  0.00     0.000 OA
ATOM     62   C  NAG B   4      16.079  12.021  33.6140  0.00  0.00     0.000 C
ATOM     63   C  NAG B   4      15.090  12.463  34.6450  0.00  0.00     0.000 C
ENDBRANCH 49 61
BRANCH 48 64
ATOM     64  O4  BDP B   5      14.706   9.586  30.9170  0.00  0.00     0.000 O
BRANCH 64 68
ATOM     65  C1  BDP B   5      11.810   7.338  32.9000  0.00  0.00     0.000 C
ATOM     66  C2  BDP B   5      11.432   8.778  32.5790  0.00  0.00     0.000 C
ATOM     67  C3  BDP B   5      12.368   9.327  31.5100  0.00  0.00     0.000 C
ATOM     68  C4  BDP B   5      13.818   9.194  31.9630  0.00  0.00     0.000 C
ATOM     69  C5  BDP B   5      14.160   7.770  32.3820  0.00  0.00     0.000 C
ATOM     70  O5  BDP B   5      13.184   7.268  33.3120  0.00  0.00     0.000 O
ATOM     71   O  BDP B   5      10.059   8.835  32.1630  0.00  0.00     0.000 O
ATOM     73  HD  BDP B   5       9.234   8.810  31.8990  0.00  0.00     0.000 HD
ATOM     73   O  BDP B   5      12.079  10.706  31.2480  0.00  0.00     0.000 O
ATOM     75  HD  BDP B   5      11.254  10.681  30.9850  0.00  0.00     0.000 HD
BRANCH 69 75
ATOM     75   C  BDP B   5      15.518   7.783  33.0370  0.00  0.00     0.000 C
ATOM     76   O  BDP B   5      16.270   6.800  32.8780  0.00  0.00     0.000 OA
ATOM     77   O  BDP B   5      15.853   8.774  33.7120  0.00  0.00     0.000 OA
ENDBRANCH 69 75
BRANCH 65 78
ATOM     78  O3  NAG B   6      11.636   6.674  34.1550  0.00  0.00     0.000 O
BRANCH 78 81
ATOM     79  C1  NAG B   6      10.047   3.427  35.2800  0.00  0.00     0.000 C
ATOM     80  C2  NAG B   6      10.111   4.874  34.7650  0.00  0.00     0.000 C
ATOM     81  C3  NAG B   6      11.553   5.272  34.4920  0.00  0.00     0.000 C
ATOM     82  C4  NAG B   6      12.441   4.972  35.7040  0.00  0.00     0.000 C
ATOM     83  C5  NAG B   6      12.287   3.507  36.0940  0.00  0.00     0.000 C
ATOM     84  O5  NAG B   6      10.914   3.289  36.4210  0.00  0.00     0.000 O
BRANCH 80 87
ATOM     85   N  NAG B   6       9.198   4.937  33.6270  0.00  0.00     0.000 N
ATOM     87  HD  NAG B   6       8.391   4.985  33.3170  0.00  0.00     0.000 HD
ATOM     87   C  NAG B   6       8.428   5.995  33.3430  0.00  0.00     0.000 C
ATOM     88   C  NAG B   6       7.587   5.874  32.1120  0.00  0.00     0.000 C
ATOM     89   O  NAG B   6       8.410   7.012  34.0270  0.00  0.00     0.000 OA
ENDBRANCH 80 87
ATOM     90   O  NAG B   6      14.175   2.191  36.8380  0.00  0.00     0.000 O
ATOM     92  HD  NAG B   6      13.409   2.181  36.4330  0.00  0.00     0.000 HD
ATOM     92   O  NAG B   6      14.175   2.191  36.8380  0.00  0.00     0.000 O
ATOM     94  HD  NAG B   6      13.409   2.181  36.4330  0.00  0.00     0.000 HD
ENDBRANCH 78 81
ENDBRANCH 65 78
ENDBRANCH 64 68
ENDBRANCH 48 64
ENDBRANCH 47 50
ENDBRANCH 34 47
ENDBRANCH 33 37
ENDBRANCH 17 33
ENDBRANCH 16 19
ENDBRANCH 1 16
TORSDOF 16
ENDMDL
MODEL 85
REMARK VINA RESULT:      -4.6     20.140     25.177
ROOT
ATOM      1  C1  BDP B   1      19.435  26.829  12.8580  0.00  0.00     0.000 C
ATOM      2  C2  BDP B   1      19.649  28.174  13.5290  0.00  0.00     0.000 C
ATOM      3  C3  BDP B   1      20.128  29.228  12.5530  0.00  0.00     0.000 C
ATOM      4  C4  BDP B   1      19.957  28.841  11.0880  0.00  0.00     0.000 C
ATOM      5  C5  BDP B   1      20.440  27.425  10.7910  0.00  0.00     0.000 C
ATOM      6  O5  BDP B   1      20.532  26.623  11.9800  0.00  0.00     0.000 O
ATOM      7   O  BDP B   1      18.434  28.609  14.1480  0.00  0.00     0.000 O
ATOM      9  HD  BDP B   1      17.727  28.456  14.6250  0.00  0.00     0.000 HD
ATOM      9   O  BDP B   1      21.521  29.502  12.7720  0.00  0.00     0.000 O
ATOM     11  HD  BDP B   1      20.814  29.349  13.2490  0.00  0.00     0.000 HD
ATOM     11   O  BDP B   1      18.587  28.978  10.6920  0.00  0.00     0.000 O
ATOM     13  HD  BDP B   1      17.881  28.826  11.1690  0.00  0.00     0.000 HD
ENDROOT
BRANCH 5 13
ATOM     13   C  BDP B   1      21.782  27.541  10.1570  0.00  0.00     0.000 C
ATOM     14   O  BDP B   1      22.789  27.383  10.8780  0.00  0.00     0.000 OA
ATOM     15   O  BDP B   1      21.857  27.763   8.9300  0.00  0.00     0.000 OA
ENDBRANCH 5 13
BRANCH 1 16
ATOM     16  O3  NAG B   2      18.266  26.017  12.7600  0.00  0.00     0.000 O
BRANCH 16 19
ATOM     17  C1  NAG B   2      15.735  24.125  10.9520  0.00  0.00     0.000 C
ATOM     18  C2  NAG B   2      17.156  24.682  11.0520  0.00  0.00     0.000 C
ATOM     19  C3  NAG B   2      17.589  24.785  12.5070  0.00  0.00     0.000 C
ATOM     20  C4  NAG B   2      16.403  24.641  13.4640  0.00  0.00     0.000 C
ATOM     21  C5  NAG B   2      15.084  25.248  12.9630  0.00  0.00     0.000 C
ATOM     22  O5  NAG B   2      14.900  25.120  11.5490  0.00  0.00     0.000 O
ATOM     23   O  NAG B   2      16.218  23.251  13.7530  0.00  0.00     0.000 O
ATOM     25  HD  NAG B   2      16.368  22.991  12.9410  0.00  0.00     0.000 HD
ATOM     25   C  NAG B   2      14.996  26.734  13.3370  0.00  0.00     0.000 C
ATOM     26   O  NAG B   2      14.486  26.919  14.6650  0.00  0.00     0.000 O
ATOM     28  HD  NAG B   2      14.635  26.658  13.8530  0.00  0.00     0.000 HD
BRANCH 18 30
ATOM     28   N  NAG B   2      17.163  23.285  10.6190  0.00  0.00     0.000 N
ATOM     30  HD  NAG B   2      17.013  22.481  10.9040  0.00  0.00     0.000 HD
ATOM     30   C  NAG B   2      18.262  22.581  10.3140  0.00  0.00     0.000 C
ATOM     31   C  NAG B   2      18.007  21.164   9.8850  0.00  0.00     0.000 C
ATOM     32   O  NAG B   2      19.382  23.033  10.3790  0.00  0.00     0.000 OA
ENDBRANCH 18 30
BRANCH 17 33
ATOM     33  O4  BDP B   3      14.482  23.939  10.2580  0.00  0.00     0.000 O
BRANCH 33 37
ATOM     34  C1  BDP B   3      11.146  21.464   9.2640  0.00  0.00     0.000 C
ATOM     35  C2  BDP B   3      12.377  20.776   9.8430  0.00  0.00     0.000 C
ATOM     36  C3  BDP B   3      13.332  21.728  10.5530  0.00  0.00     0.000 C
ATOM     37  C4  BDP B   3      13.549  22.977   9.6850  0.00  0.00     0.000 C
ATOM     38  C5  BDP B   3      12.163  23.589   9.4080  0.00  0.00     0.000 C
ATOM     39  O5  BDP B   3      11.494  22.659   8.5550  0.00  0.00     0.000 O
ATOM     40   O  BDP B   3      11.889  19.751  10.7110  0.00  0.00     0.000 O
ATOM     42  HD  BDP B   3      11.812  19.354   9.9460  0.00  0.00     0.000 HD
ATOM     42   O  BDP B   3      14.546  21.009  10.7620  0.00  0.00     0.000 O
ATOM     44  HD  BDP B   3      14.469  20.613   9.9970  0.00  0.00     0.000 HD
BRANCH 38 44
ATOM     44   C  BDP B   3      12.199  24.937   8.7590  0.00  0.00     0.000 C
ATOM     45   O  BDP B   3      11.902  25.931   9.4570  0.00  0.00     0.000 OA
ATOM     46   O  BDP B   3      12.520  25.034   7.5540  0.00  0.00     0.000 OA
ENDBRANCH 38 44
BRANCH 34 47
ATOM     47  O3  NAG B   4      10.762  20.904   8.0090  0.00  0.00     0.000 O
BRANCH 47 50
ATOM     48  C1  NAG B   4       7.601  18.961   7.3940  0.00  0.00     0.000 C
ATOM     49  C2  NAG B   4       9.047  19.189   7.7990  0.00  0.00     0.000 C
ATOM     50  C3  NAG B   4       9.374  20.674   7.6930  0.00  0.00     0.000 C
ATOM     51  C4  NAG B   4       9.073  21.216   6.3040  0.00  0.00     0.000 C
ATOM     52  C5  NAG B   4       7.628  20.895   5.9240  0.00  0.00     0.000 C
ATOM     53  O5  NAG B   4       7.371  19.493   6.0750  0.00  0.00     0.000 O
ATOM     54   O  NAG B   4       9.295  22.628   6.2970  0.00  0.00     0.000 O
ATOM     56  HD  NAG B   4       9.223  22.298   5.5000  0.00  0.00     0.000 HD
ATOM     56   C  NAG B   4       7.327  21.312   4.4890  0.00  0.00     0.000 C
ATOM     57   O  NAG B   4       8.205  20.605   3.6030  0.00  0.00     0.000 O
ATOM     59  HD  NAG B   4       8.133  20.275   2.8060  0.00  0.00     0.000 HD
BRANCH 49 61
ATOM     59   N  NAG B   4       9.069  18.371   9.0120  0.00  0.00     0.000 N
ATOM     61  HD  NAG B   4       9.246  18.287   8.1690  0.00  0.00     0.000 HD
ATOM     61   O  NAG B   4      11.033  17.333   8.6040  0.00  0.00     0.000 OA
ATOM     62   C  NAG B   4      10.090  17.572   9.3450  0.00  0.00     0.000 C
ATOM     63   C  NAG B   4      10.030  16.983  10.7180  0.00  0.00     0.000 C
ENDBRANCH 49 61
BRANCH 48 64
ATOM     64  O4  BDP B   5       6.631  17.989   7.7720  0.00  0.00     0.000 O
BRANCH 64 68
ATOM     65  C1  BDP B   5       7.314  14.233   9.4450  0.00  0.00     0.000 C
ATOM     66  C2  BDP B   5       7.247  14.284   7.9250  0.00  0.00     0.000 C
ATOM     67  C3  BDP B   5       7.428  15.720   7.4520  0.00  0.00     0.000 C
ATOM     68  C4  BDP B   5       6.389  16.623   8.1080  0.00  0.00     0.000 C
ATOM     69  C5  BDP B   5       6.389  16.490   9.6260  0.00  0.00     0.000 C
ATOM     70  O5  BDP B   5       6.323  15.106  10.0120  0.00  0.00     0.000 O
ATOM     71   O  BDP B   5       8.245  13.413   7.3700  0.00  0.00     0.000 O
ATOM     73  HD  BDP B   5       8.876  12.891   7.0880  0.00  0.00     0.000 HD
ATOM     73   O  BDP B   5       7.291  15.802   6.0280  0.00  0.00     0.000 O
ATOM     75  HD  BDP B   5       7.922  15.279   5.7460  0.00  0.00     0.000 HD
BRANCH 69 75
ATOM     75   C  BDP B   5       5.187  17.221  10.1650  0.00  0.00     0.000 C
ATOM     76   O  BDP B   5       5.364  18.140  10.9910  0.00  0.00     0.000 OA
ATOM     77   O  BDP B   5       4.053  16.891   9.7710  0.00  0.00     0.000 OA
ENDBRANCH 69 75
BRANCH 65 78
ATOM     78  O3  NAG B   6       6.645  13.296  10.2940  0.00  0.00     0.000 O
BRANCH 78 81
ATOM     79  C1  NAG B   6       7.172  12.436  13.9430  0.00  0.00     0.000 C
ATOM     80  C2  NAG B   6       7.516  12.573  12.4510  0.00  0.00     0.000 C
ATOM     81  C3  NAG B   6       6.401  13.299  11.7170  0.00  0.00     0.000 C
ATOM     82  C4  NAG B   6       5.042  12.655  12.0160  0.00  0.00     0.000 C
ATOM     83  C5  NAG B   6       4.830  12.597  13.5240  0.00  0.00     0.000 C
ATOM     84  O5  NAG B   6       5.884  11.809  14.0790  0.00  0.00     0.000 O
BRANCH 80 87
ATOM     85   N  NAG B   6       8.591  12.263  11.5120  0.00  0.00     0.000 N
ATOM     87  HD  NAG B   6       9.099  12.498  10.8520  0.00  0.00     0.000 HD
ATOM     87   C  NAG B   6       9.775  12.886  11.4960  0.00  0.00     0.000 C
ATOM     88   C  NAG B   6      10.753  12.395  10.4760  0.00  0.00     0.000 C
ATOM     89   O  NAG B   6      10.064  13.793  12.2680  0.00  0.00     0.000 OA
ENDBRANCH 80 87
ATOM     90   O  NAG B   6       2.662  13.012  14.5130  0.00  0.00     0.000 O
ATOM     92  HD  NAG B   6       3.520  13.064  14.6190  0.00  0.00     0.000 HD
ATOM     92   O  NAG B   6       2.662  13.012  14.5130  0.00  0.00     0.000 O
ATOM     94  HD  NAG B   6       3.520  13.064  14.6190  0.00  0.00     0.000 HD
ENDBRANCH 78 81
ENDBRANCH 65 78
ENDBRANCH 64 68
ENDBRANCH 48 64
ENDBRANCH 47 50
ENDBRANCH 34 47
ENDBRANCH 33 37
ENDBRANCH 17 33
ENDBRANCH 16 19
ENDBRANCH 1 16
TORSDOF 16
ENDMDL
MODEL 86
REMARK VINA RESULT:      -4.6      7.190     11.032
ROOT
ATOM      1  C1  BDP B   1      15.718  18.458  27.3920  0.00  0.00     0.000 C
ATOM      2  C2  BDP B   1      14.860  17.764  26.3500  0.00  0.00     0.000 C
ATOM      3  C3  BDP B   1      15.683  17.236  25.1940  0.00  0.00     0.000 C
ATOM      4  C4  BDP B   1      17.181  17.187  25.4700  0.00  0.00     0.000 C
ATOM      5  C5  BDP B   1      17.708  18.473  26.0980  0.00  0.00     0.000 C
ATOM      6  O5  BDP B   1      16.658  19.257  26.6900  0.00  0.00     0.000 O
ATOM      7   O  BDP B   1      14.135  16.688  26.9550  0.00  0.00     0.000 O
ATOM      9  HD  BDP B   1      13.659  16.360  27.6000  0.00  0.00     0.000 HD
ATOM      9   O  BDP B   1      15.480  18.057  24.0330  0.00  0.00     0.000 O
ATOM     11  HD  BDP B   1      15.004  17.730  24.6780  0.00  0.00     0.000 HD
ATOM     11   O  BDP B   1      17.498  16.072  26.3120  0.00  0.00     0.000 O
ATOM     13  HD  BDP B   1      17.022  15.745  26.9570  0.00  0.00     0.000 HD
ENDROOT
BRANCH 5 13
ATOM     13   C  BDP B   1      18.369  19.254  25.0170  0.00  0.00     0.000 C
ATOM     14   O  BDP B   1      18.320  20.500  25.0750  0.00  0.00     0.000 OA
ATOM     15   O  BDP B   1      18.970  18.644  24.1070  0.00  0.00     0.000 OA
ENDBRANCH 5 13
BRANCH 1 16
ATOM     16  O3  NAG B   2      15.891  18.186  28.7820  0.00  0.00     0.000 O
BRANCH 16 19
ATOM     17  C1  NAG B   2      15.643  14.980  30.4890  0.00  0.00     0.000 C
ATOM     18  C2  NAG B   2      16.313  15.881  29.4510  0.00  0.00     0.000 C
ATOM     19  C3  NAG B   2      16.235  17.339  29.8800  0.00  0.00     0.000 C
ATOM     20  C4  NAG B   2      15.236  17.543  31.0220  0.00  0.00     0.000 C
ATOM     21  C5  NAG B   2      13.992  16.645  30.9670  0.00  0.00     0.000 C
ATOM     22  O5  NAG B   2      14.259  15.333  30.4560  0.00  0.00     0.000 O
ATOM     23   O  NAG B   2      15.919  17.349  32.2640  0.00  0.00     0.000 O
ATOM     25  HD  NAG B   2      16.380  16.671  31.9850  0.00  0.00     0.000 HD
ATOM     25   C  NAG B   2      12.895  17.291  30.1090  0.00  0.00     0.000 C
ATOM     26   O  NAG B   2      12.100  18.212  30.8690  0.00  0.00     0.000 O
ATOM     28  HD  NAG B   2      12.561  17.534  30.5900  0.00  0.00     0.000 HD
BRANCH 18 30
ATOM     28   N  NAG B   2      17.523  15.991  30.2640  0.00  0.00     0.000 N
ATOM     30  HD  NAG B   2      18.183  16.523  30.4390  0.00  0.00     0.000 HD
ATOM     30   C  NAG B   2      18.634  15.260  30.0900  0.00  0.00     0.000 C
ATOM     31   C  NAG B   2      19.741  15.552  31.0630  0.00  0.00     0.000 C
ATOM     32   O  NAG B   2      18.756  14.432  29.2180  0.00  0.00     0.000 OA
ENDBRANCH 18 30
BRANCH 17 33
ATOM     33  O4  BDP B   3      14.997  13.750  30.8860  0.00  0.00     0.000 O
BRANCH 33 37
ATOM     34  C1  BDP B   3      15.815   9.703  31.9760  0.00  0.00     0.000 C
ATOM     35  C2  BDP B   3      16.505  10.241  30.7290  0.00  0.00     0.000 C
ATOM     36  C3  BDP B   3      16.510  11.763  30.6430  0.00  0.00     0.000 C
ATOM     37  C4  BDP B   3      15.110  12.300  30.9770  0.00  0.00     0.000 C
ATOM     38  C5  BDP B   3      14.736  11.764  32.3720  0.00  0.00     0.000 C
ATOM     39  O5  BDP B   3      14.562  10.356  32.2100  0.00  0.00     0.000 O
ATOM     40   O  BDP B   3      17.826   9.695  30.7350  0.00  0.00     0.000 O
ATOM     42  HD  BDP B   3      17.382   9.024  30.4130  0.00  0.00     0.000 HD
ATOM     42   O  BDP B   3      16.903  12.097  29.3120  0.00  0.00     0.000 O
ATOM     44  HD  BDP B   3      16.460  11.426  28.9900  0.00  0.00     0.000 HD
BRANCH 38 44
ATOM     44   C  BDP B   3      13.495  12.365  32.9540  0.00  0.00     0.000 C
ATOM     45   O  BDP B   3      13.587  13.488  33.4950  0.00  0.00     0.000 OA
ATOM     46   O  BDP B   3      12.415  11.738  32.8870  0.00  0.00     0.000 OA
ENDBRANCH 38 44
BRANCH 34 47
ATOM     47  O3  NAG B   4      15.075   8.513  31.7060  0.00  0.00     0.000 O
BRANCH 47 50
ATOM     48  C1  NAG B   4      13.842   6.723  34.7750  0.00  0.00     0.000 C
ATOM     49  C2  NAG B   4      14.857   7.323  33.8180  0.00  0.00     0.000 C
ATOM     50  C3  NAG B   4      14.127   7.995  32.6610  0.00  0.00     0.000 C
ATOM     51  C4  NAG B   4      13.177   7.034  31.9650  0.00  0.00     0.000 C
ATOM     52  C5  NAG B   4      12.228   6.410  32.9870  0.00  0.00     0.000 C
ATOM     53  O5  NAG B   4      12.969   5.824  34.0650  0.00  0.00     0.000 O
ATOM     54   O  NAG B   4      12.445   7.746  30.9640  0.00  0.00     0.000 O
ATOM     56  HD  NAG B   4      12.376   6.887  30.8790  0.00  0.00     0.000 HD
ATOM     56   C  NAG B   4      11.343   5.347  32.3450  0.00  0.00     0.000 C
ATOM     57   O  NAG B   4      12.175   4.315  31.7980  0.00  0.00     0.000 O
ATOM     59  HD  NAG B   4      12.106   3.456  31.7130  0.00  0.00     0.000 HD
BRANCH 49 61
ATOM     59   N  NAG B   4      15.734   6.166  34.0050  0.00  0.00     0.000 N
ATOM     61  HD  NAG B   4      15.697   6.881  33.5180  0.00  0.00     0.000 HD
ATOM     61   O  NAG B   4      17.691   7.290  33.9060  0.00  0.00     0.000 OA
ATOM     62   C  NAG B   4      17.066   6.259  34.1060  0.00  0.00     0.000 C
ATOM     63   C  NAG B   4      17.773   5.003  34.5080  0.00  0.00     0.000 C
ENDBRANCH 49 61
BRANCH 48 64
ATOM     64  O4  BDP B   5      13.860   6.478  36.1790  0.00  0.00     0.000 O
BRANCH 64 68
ATOM     65  C1  BDP B   5      12.756   9.262  39.0770  0.00  0.00     0.000 C
ATOM     66  C2  BDP B   5      14.228   8.873  39.0520  0.00  0.00     0.000 C
ATOM     67  C3  BDP B   5      14.562   8.214  37.7200  0.00  0.00     0.000 C
ATOM     68  C4  BDP B   5      13.642   7.022  37.4790  0.00  0.00     0.000 C
ATOM     69  C5  BDP B   5      12.171   7.396  37.6100  0.00  0.00     0.000 C
ATOM     70  O5  BDP B   5      11.937   8.107  38.8380  0.00  0.00     0.000 O
ATOM     71   O  BDP B   5      15.038  10.035  39.2870  0.00  0.00     0.000 O
ATOM     73  HD  BDP B   5      15.479  10.770  39.4120  0.00  0.00     0.000 HD
ATOM     73   O  BDP B   5      15.924   7.770  37.7050  0.00  0.00     0.000 O
ATOM     75  HD  BDP B   5      16.365   8.505  37.8310  0.00  0.00     0.000 HD
BRANCH 69 75
ATOM     75   C  BDP B   5      11.357   6.127  37.5990  0.00  0.00     0.000 C
ATOM     76   O  BDP B   5      10.610   5.902  36.6260  0.00  0.00     0.000 OA
ATOM     77   O  BDP B   5      11.456   5.340  38.5580  0.00  0.00     0.000 OA
ENDBRANCH 69 75
BRANCH 65 78
ATOM     78  O3  NAG B   6      11.918   9.337  40.2330  0.00  0.00     0.000 O
BRANCH 78 81
ATOM     79  C1  NAG B   6       9.882  12.014  41.9720  0.00  0.00     0.000 C
ATOM     80  C2  NAG B   6      11.138  11.243  41.5360  0.00  0.00     0.000 C
ATOM     81  C3  NAG B   6      10.771  10.163  40.5310  0.00  0.00     0.000 C
ATOM     82  C4  NAG B   6       9.624   9.295  41.0580  0.00  0.00     0.000 C
ATOM     83  C5  NAG B   6       8.447  10.187  41.4380  0.00  0.00     0.000 C
ATOM     84  O5  NAG B   6       8.895  11.084  42.4540  0.00  0.00     0.000 O
BRANCH 80 87
ATOM     85   N  NAG B   6      12.471  11.585  42.0260  0.00  0.00     0.000 N
ATOM     87  HD  NAG B   6      13.329  11.471  42.0020  0.00  0.00     0.000 HD
ATOM     87   C  NAG B   6      13.413  12.178  41.2830  0.00  0.00     0.000 C
ATOM     88   C  NAG B   6      14.700  12.474  41.9840  0.00  0.00     0.000 C
ATOM     89   O  NAG B   6      13.245  12.480  40.1080  0.00  0.00     0.000 OA
ENDBRANCH 80 87
ATOM     90   O  NAG B   6       6.163   9.519  41.0060  0.00  0.00     0.000 O
ATOM     92  HD  NAG B   6       6.713  10.184  41.0830  0.00  0.00     0.000 HD
ATOM     92   O  NAG B   6       6.163   9.519  41.0060  0.00  0.00     0.000 O
ATOM     94  HD  NAG B   6       6.713  10.184  41.0830  0.00  0.00     0.000 HD
ENDBRANCH 78 81
ENDBRANCH 65 78
ENDBRANCH 64 68
ENDBRANCH 48 64
ENDBRANCH 47 50
ENDBRANCH 34 47
ENDBRANCH 33 37
ENDBRANCH 17 33
ENDBRANCH 16 19
ENDBRANCH 1 16
TORSDOF 16
ENDMDL
MODEL 87
REMARK VINA RESULT:      -4.6      6.518     13.763
ROOT
ATOM      1  C1  BDP B   1       8.439  19.158  27.0590  0.00  0.00     0.000 C
ATOM      2  C2  BDP B   1       6.962  19.296  26.7380  0.00  0.00     0.000 C
ATOM      3  C3  BDP B   1       6.433  18.106  25.9660  0.00  0.00     0.000 C
ATOM      4  C4  BDP B   1       7.359  16.895  25.9800  0.00  0.00     0.000 C
ATOM      5  C5  BDP B   1       8.811  17.258  25.6850  0.00  0.00     0.000 C
ATOM      6  O5  BDP B   1       9.072  18.656  25.8910  0.00  0.00     0.000 O
ATOM      7   O  BDP B   1       6.213  19.454  27.9480  0.00  0.00     0.000 O
ATOM      9  HD  BDP B   1       6.101  19.807  28.7310  0.00  0.00     0.000 HD
ATOM      9   O  BDP B   1       6.214  18.471  24.5940  0.00  0.00     0.000 O
ATOM     11  HD  BDP B   1       6.102  18.823  25.3770  0.00  0.00     0.000 HD
ATOM     11   O  BDP B   1       7.276  16.218  27.2410  0.00  0.00     0.000 O
ATOM     13  HD  BDP B   1       7.164  16.571  28.0240  0.00  0.00     0.000 HD
ENDROOT
BRANCH 5 13
ATOM     13   C  BDP B   1       9.074  16.902  24.2640  0.00  0.00     0.000 C
ATOM     14   O  BDP B   1       9.261  15.700  23.9820  0.00  0.00     0.000 OA
ATOM     15   O  BDP B   1       9.073  17.805  23.4010  0.00  0.00     0.000 OA
ENDBRANCH 5 13
BRANCH 1 16
ATOM     16  O3  NAG B   2       9.119  19.151  28.3130  0.00  0.00     0.000 O
BRANCH 16 19
ATOM     17  C1  NAG B   2      12.324  18.068  29.6570  0.00  0.00     0.000 C
ATOM     18  C2  NAG B   2      11.511  18.759  28.5630  0.00  0.00     0.000 C
ATOM     19  C3  NAG B   2      10.254  19.388  29.1470  0.00  0.00     0.000 C
ATOM     20  C4  NAG B   2       9.970  18.879  30.5630  0.00  0.00     0.000 C
ATOM     21  C5  NAG B   2      10.334  17.408  30.8110  0.00  0.00     0.000 C
ATOM     22  O5  NAG B   2      11.506  16.985  30.1050  0.00  0.00     0.000 O
ATOM     23   O  NAG B   2      10.665  19.715  31.4940  0.00  0.00     0.000 O
ATOM     25  HD  NAG B   2      11.382  19.776  31.0120  0.00  0.00     0.000 HD
ATOM     25   C  NAG B   2       9.167  16.489  30.4220  0.00  0.00     0.000 C
ATOM     26   O  NAG B   2       8.219  16.353  31.4890  0.00  0.00     0.000 O
ATOM     28  HD  NAG B   2       8.936  16.414  31.0070  0.00  0.00     0.000 HD
BRANCH 18 30
ATOM     28   N  NAG B   2      11.995  20.090  28.9280  0.00  0.00     0.000 N
ATOM     30  HD  NAG B   2      11.779  20.928  28.8950  0.00  0.00     0.000 HD
ATOM     30   C  NAG B   2      13.038  20.710  28.3590  0.00  0.00     0.000 C
ATOM     31   C  NAG B   2      13.346  22.071  28.9170  0.00  0.00     0.000 C
ATOM     32   O  NAG B   2      13.689  20.231  27.4600  0.00  0.00     0.000 OA
ENDBRANCH 18 30
BRANCH 17 33
ATOM     33  O4  BDP B   3      13.301  17.103  30.1050  0.00  0.00     0.000 O
BRANCH 33 37
ATOM     34  C1  BDP B   3      15.397  13.386  30.2790  0.00  0.00     0.000 C
ATOM     35  C2  BDP B   3      14.906  13.846  28.9120  0.00  0.00     0.000 C
ATOM     36  C3  BDP B   3      14.560  15.329  28.8540  0.00  0.00     0.000 C
ATOM     37  C4  BDP B   3      13.719  15.707  30.0830  0.00  0.00     0.000 C
ATOM     38  C5  BDP B   3      14.532  15.312  31.3320  0.00  0.00     0.000 C
ATOM     39  O5  BDP B   3      14.566  13.885  31.3340  0.00  0.00     0.000 O
ATOM     40   O  BDP B   3      15.931  13.493  27.9800  0.00  0.00     0.000 O
ATOM     42  HD  BDP B   3      15.527  12.731  28.0620  0.00  0.00     0.000 HD
ATOM     42   O  BDP B   3      13.844  15.536  27.6380  0.00  0.00     0.000 O
ATOM     44  HD  BDP B   3      13.441  14.774  27.7200  0.00  0.00     0.000 HD
BRANCH 38 44
ATOM     44   C  BDP B   3      13.960  15.807  32.6240  0.00  0.00     0.000 C
ATOM     45   O  BDP B   3      14.663  16.574  33.3190  0.00  0.00     0.000 OA
ATOM     46   O  BDP B   3      12.815  15.447  32.9710  0.00  0.00     0.000 OA
ENDBRANCH 38 44
BRANCH 34 47
ATOM     47  O3  NAG B   4      14.923  12.081  30.6050  0.00  0.00     0.000 O
BRANCH 47 50
ATOM     48  C1  NAG B   4      17.249   9.375  31.7950  0.00  0.00     0.000 C
ATOM     49  C2  NAG B   4      16.564  10.292  30.7980  0.00  0.00     0.000 C
ATOM     50  C3  NAG B   4      15.634  11.245  31.5410  0.00  0.00     0.000 C
ATOM     51  C4  NAG B   4      14.638  10.491  32.4080  0.00  0.00     0.000 C
ATOM     52  C5  NAG B   4      15.381   9.534  33.3400  0.00  0.00     0.000 C
ATOM     53  O5  NAG B   4      16.262   8.689  32.5900  0.00  0.00     0.000 O
ATOM     54   O  NAG B   4      13.869  11.433  33.1600  0.00  0.00     0.000 O
ATOM     56  HD  NAG B   4      13.526  10.639  33.1700  0.00  0.00     0.000 HD
ATOM     56   C  NAG B   4      14.410   8.671  34.1370  0.00  0.00     0.000 C
ATOM     57   O  NAG B   4      13.612   7.902  33.2260  0.00  0.00     0.000 O
ATOM     59  HD  NAG B   4      13.269   7.107  33.2360  0.00  0.00     0.000 HD
BRANCH 49 61
ATOM     59   N  NAG B   4      17.710  10.719  29.9940  0.00  0.00     0.000 N
ATOM     61  HD  NAG B   4      17.112  10.092  29.9920  0.00  0.00     0.000 HD
ATOM     61   O  NAG B   4      16.762  10.389  27.9710  0.00  0.00     0.000 OA
ATOM     62   C  NAG B   4      17.685  10.799  28.6580  0.00  0.00     0.000 C
ATOM     63   C  NAG B   4      18.872  11.457  28.0280  0.00  0.00     0.000 C
ENDBRANCH 49 61
BRANCH 48 64
ATOM     64  O4  BDP B   5      18.512   8.715  31.7970  0.00  0.00     0.000 O
BRANCH 64 68
ATOM     65  C1  BDP B   5      22.186  10.493  32.6410  0.00  0.00     0.000 C
ATOM     66  C2  BDP B   5      22.138   9.619  31.3950  0.00  0.00     0.000 C
ATOM     67  C3  BDP B   5      20.690   9.399  30.9780  0.00  0.00     0.000 C
ATOM     68  C4  BDP B   5      19.895   8.804  32.1350  0.00  0.00     0.000 C
ATOM     69  C5  BDP B   5      20.032   9.627  33.4090  0.00  0.00     0.000 C
ATOM     70  O5  BDP B   5      21.416   9.891  33.6950  0.00  0.00     0.000 O
ATOM     71   O  BDP B   5      22.905  10.232  30.3470  0.00  0.00     0.000 O
ATOM     73  HD  BDP B   5      23.362  10.654  29.7450  0.00  0.00     0.000 HD
ATOM     73   O  BDP B   5      20.619   8.516  29.8520  0.00  0.00     0.000 O
ATOM     75  HD  BDP B   5      21.076   8.938  29.2500  0.00  0.00     0.000 HD
BRANCH 69 75
ATOM     75   C  BDP B   5      19.424   8.845  34.5460  0.00  0.00     0.000 C
ATOM     76   O  BDP B   5      19.903   7.729  34.8300  0.00  0.00     0.000 OA
ATOM     77   O  BDP B   5      18.465   9.335  35.1700  0.00  0.00     0.000 OA
ENDBRANCH 69 75
BRANCH 65 78
ATOM     78  O3  NAG B   6      23.187  10.461  33.6620  0.00  0.00     0.000 O
BRANCH 78 81
ATOM     79  C1  NAG B   6      25.384  13.087  35.2800  0.00  0.00     0.000 C
ATOM     80  C2  NAG B   6      24.863  12.154  34.1750  0.00  0.00     0.000 C
ATOM     81  C3  NAG B   6      23.595  11.451  34.6320  0.00  0.00     0.000 C
ATOM     82  C4  NAG B   6      23.800  10.790  35.9990  0.00  0.00     0.000 C
ATOM     83  C5  NAG B   6      24.302  11.831  36.9940  0.00  0.00     0.000 C
ATOM     84  O5  NAG B   6      25.542  12.339  36.4990  0.00  0.00     0.000 O
BRANCH 80 87
ATOM     85   N  NAG B   6      24.744  12.976  32.9730  0.00  0.00     0.000 N
ATOM     87  HD  NAG B   6      25.115  13.377  32.3020  0.00  0.00     0.000 HD
ATOM     87   C  NAG B   6      25.024  12.542  31.7380  0.00  0.00     0.000 C
ATOM     88   C  NAG B   6      24.803  13.531  30.6380  0.00  0.00     0.000 C
ATOM     89   O  NAG B   6      25.423  11.408  31.5020  0.00  0.00     0.000 OA
ENDBRANCH 80 87
ATOM     90   O  NAG B   6      23.547  11.851  39.2910  0.00  0.00     0.000 O
ATOM     92  HD  NAG B   6      23.830  12.328  38.6250  0.00  0.00     0.000 HD
ATOM     92   O  NAG B   6      23.547  11.851  39.2910  0.00  0.00     0.000 O
ATOM     94  HD  NAG B   6      23.830  12.328  38.6250  0.00  0.00     0.000 HD
ENDBRANCH 78 81
ENDBRANCH 65 78
ENDBRANCH 64 68
ENDBRANCH 48 64
ENDBRANCH 47 50
ENDBRANCH 34 47
ENDBRANCH 33 37
ENDBRANCH 17 33
ENDBRANCH 16 19
ENDBRANCH 1 16
TORSDOF 16
ENDMDL
MODEL 88
REMARK VINA RESULT:      -4.5     13.362     19.325
ROOT
ATOM      1  C1  BDP B   1      22.676  29.635  27.8650  0.00  0.00     0.000 C
ATOM      2  C2  BDP B   1      24.088  30.172  27.7120  0.00  0.00     0.000 C
ATOM      3  C3  BDP B   1      25.062  29.488  28.6470  0.00  0.00     0.000 C
ATOM      4  C4  BDP B   1      24.528  28.203  29.2690  0.00  0.00     0.000 C
ATOM      5  C5  BDP B   1      23.112  28.355  29.8160  0.00  0.00     0.000 C
ATOM      6  O5  BDP B   1      22.435  29.493  29.2570  0.00  0.00     0.000 O
ATOM      7   O  BDP B   1      24.526  30.010  26.3580  0.00  0.00     0.000 O
ATOM      9  HD  BDP B   1      24.389  30.058  25.5050  0.00  0.00     0.000 HD
ATOM      9   O  BDP B   1      25.417  30.376  29.7190  0.00  0.00     0.000 O
ATOM     11  HD  BDP B   1      25.280  30.424  28.8650  0.00  0.00     0.000 HD
ATOM     11   O  BDP B   1      24.566  27.134  28.3150  0.00  0.00     0.000 O
ATOM     13  HD  BDP B   1      24.429  27.182  27.4620  0.00  0.00     0.000 HD
ENDROOT
BRANCH 5 13
ATOM     13   C  BDP B   1      23.225  28.513  31.2920  0.00  0.00     0.000 C
ATOM     14   O  BDP B   1      23.332  27.482  31.9890  0.00  0.00     0.000 OA
ATOM     15   O  BDP B   1      23.236  29.663  31.7810  0.00  0.00     0.000 OA
ENDBRANCH 5 13
BRANCH 1 16
ATOM     16  O3  NAG B   2      21.808  29.024  26.9120  0.00  0.00     0.000 O
BRANCH 16 19
ATOM     17  C1  NAG B   2      21.142  25.742  25.4850  0.00  0.00     0.000 C
ATOM     18  C2  NAG B   2      21.446  26.625  26.6960  0.00  0.00     0.000 C
ATOM     19  C3  NAG B   2      20.879  28.023  26.4940  0.00  0.00     0.000 C
ATOM     20  C4  NAG B   2      20.476  28.267  25.0370  0.00  0.00     0.000 C
ATOM     21  C5  NAG B   2      21.377  27.596  23.9910  0.00  0.00     0.000 C
ATOM     22  O5  NAG B   2      21.878  26.320  24.4050  0.00  0.00     0.000 O
ATOM     23   O  NAG B   2      19.124  27.834  24.8610  0.00  0.00     0.000 O
ATOM     25  HD  NAG B   2      19.214  27.123  25.3470  0.00  0.00     0.000 HD
ATOM     25   C  NAG B   2      22.568  28.500  23.6430  0.00  0.00     0.000 C
ATOM     26   O  NAG B   2      22.232  29.454  22.6260  0.00  0.00     0.000 O
ATOM     28  HD  NAG B   2      22.322  28.743  23.1110  0.00  0.00     0.000 HD
BRANCH 18 30
ATOM     28   N  NAG B   2      20.368  25.680  26.9860  0.00  0.00     0.000 N
ATOM     30  HD  NAG B   2      19.540  25.509  26.7980  0.00  0.00     0.000 HD
ATOM     30   C  NAG B   2      19.744  25.567  28.1670  0.00  0.00     0.000 C
ATOM     31   C  NAG B   2      18.674  24.513  28.2190  0.00  0.00     0.000 C
ATOM     32   O  NAG B   2      20.002  26.256  29.1260  0.00  0.00     0.000 OA
ENDBRANCH 18 30
BRANCH 17 33
ATOM     33  O4  BDP B   3      21.403  24.601  24.6390  0.00  0.00     0.000 O
BRANCH 33 37
ATOM     34  C1  BDP B   3      19.060  21.207  23.5260  0.00  0.00     0.000 C
ATOM     35  C2  BDP B   3      20.255  20.960  24.4380  0.00  0.00     0.000 C
ATOM     36  C3  BDP B   3      20.773  22.220  25.1220  0.00  0.00     0.000 C
ATOM     37  C4  BDP B   3      20.878  23.356  24.0930  0.00  0.00     0.000 C
ATOM     38  C5  BDP B   3      19.484  23.528  23.4580  0.00  0.00     0.000 C
ATOM     39  O5  BDP B   3      19.265  22.348  22.6840  0.00  0.00     0.000 O
ATOM     40   O  BDP B   3      19.843  19.965  25.3770  0.00  0.00     0.000 O
ATOM     42  HD  BDP B   3      20.036  19.465  24.6970  0.00  0.00     0.000 HD
ATOM     42   O  BDP B   3      22.044  21.891  25.6800  0.00  0.00     0.000 O
ATOM     44  HD  BDP B   3      22.237  21.391  25.0000  0.00  0.00     0.000 HD
BRANCH 38 44
ATOM     44   C  BDP B   3      19.346  24.738  22.5880  0.00  0.00     0.000 C
ATOM     45   O  BDP B   3      18.565  25.641  22.9620  0.00  0.00     0.000 OA
ATOM     46   O  BDP B   3      20.001  24.814  21.5260  0.00  0.00     0.000 OA
ENDBRANCH 38 44
BRANCH 34 47
ATOM     47  O3  NAG B   4      19.111  20.405  22.3480  0.00  0.00     0.000 O
BRANCH 47 50
ATOM     48  C1  NAG B   4      15.662  19.416  21.2220  0.00  0.00     0.000 C
ATOM     49  C2  NAG B   4      16.826  19.581  22.1820  0.00  0.00     0.000 C
ATOM     50  C3  NAG B   4      17.970  20.297  21.4730  0.00  0.00     0.000 C
ATOM     51  C4  NAG B   4      18.375  19.576  20.1970  0.00  0.00     0.000 C
ATOM     52  C5  NAG B   4      17.151  19.376  19.3030  0.00  0.00     0.000 C
ATOM     53  O5  NAG B   4      16.100  18.730  20.0320  0.00  0.00     0.000 O
ATOM     54   O  NAG B   4      19.372  20.348  19.5230  0.00  0.00     0.000 O
ATOM     56  HD  NAG B   4      19.310  19.541  19.2140  0.00  0.00     0.000 HD
ATOM     56   C  NAG B   4      17.495  18.546  18.0710  0.00  0.00     0.000 C
ATOM     57   O  NAG B   4      17.975  17.262  18.4920  0.00  0.00     0.000 O
ATOM     59  HD  NAG B   4      17.912  16.455  18.1830  0.00  0.00     0.000 HD
BRANCH 49 61
ATOM     59   N  NAG B   4      16.776  18.215  22.7050  0.00  0.00     0.000 N
ATOM     61  HD  NAG B   4      17.240  18.938  22.8180  0.00  0.00     0.000 HD
ATOM     61   O  NAG B   4      17.104  18.743  24.8760  0.00  0.00     0.000 OA
ATOM     62   C  NAG B   4      16.845  17.922  24.0090  0.00  0.00     0.000 C
ATOM     63   C  NAG B   4      16.562  16.497  24.3670  0.00  0.00     0.000 C
ENDBRANCH 49 61
BRANCH 48 64
ATOM     64  O4  BDP B   5      14.252  19.341  21.4110  0.00  0.00     0.000 O
BRANCH 64 68
ATOM     65  C1  BDP B   5      10.186  18.422  21.4260  0.00  0.00     0.000 C
ATOM     66  C2  BDP B   5      11.105  17.396  22.0770  0.00  0.00     0.000 C
ATOM     67  C3  BDP B   5      12.453  18.036  22.3830  0.00  0.00     0.000 C
ATOM     68  C4  BDP B   5      13.052  18.628  21.1120  0.00  0.00     0.000 C
ATOM     69  C5  BDP B   5      12.088  19.574  20.4080  0.00  0.00     0.000 C
ATOM     70  O5  BDP B   5      10.801  18.952  20.2410  0.00  0.00     0.000 O
ATOM     71   O  BDP B   5      10.483  16.877  23.2630  0.00  0.00     0.000 O
ATOM     73  HD  BDP B   5      10.072  16.613  23.9780  0.00  0.00     0.000 HD
ATOM     73   O  BDP B   5      13.358  17.067  22.9250  0.00  0.00     0.000 O
ATOM     75  HD  BDP B   5      12.947  16.803  23.6410  0.00  0.00     0.000 HD
BRANCH 69 75
ATOM     75   C  BDP B   5      12.661  19.915  19.0560  0.00  0.00     0.000 C
ATOM     76   O  BDP B   5      12.773  21.116  18.7380  0.00  0.00     0.000 OA
ATOM     77   O  BDP B   5      13.009  18.991  18.2980  0.00  0.00     0.000 OA
ENDBRANCH 69 75
BRANCH 65 78
ATOM     78  O3  NAG B   6       9.141  18.151  20.4880  0.00  0.00     0.000 O
BRANCH 78 81
ATOM     79  C1  NAG B   6       5.393  18.660  20.3330  0.00  0.00     0.000 C
ATOM     80  C2  NAG B   6       6.723  18.018  20.7580  0.00  0.00     0.000 C
ATOM     81  C3  NAG B   6       7.893  18.829  20.2250  0.00  0.00     0.000 C
ATOM     82  C4  NAG B   6       7.742  19.080  18.7210  0.00  0.00     0.000 C
ATOM     83  C5  NAG B   6       6.389  19.728  18.4490  0.00  0.00     0.000 C
ATOM     84  O5  NAG B   6       5.379  18.827  18.9040  0.00  0.00     0.000 O
BRANCH 80 87
ATOM     85   N  NAG B   6       6.608  17.840  22.2030  0.00  0.00     0.000 N
ATOM     87  HD  NAG B   6       6.317  17.385  22.8800  0.00  0.00     0.000 HD
ATOM     87   C  NAG B   6       7.158  16.823  22.8780  0.00  0.00     0.000 C
ATOM     88   C  NAG B   6       6.952  16.841  24.3600  0.00  0.00     0.000 C
ATOM     89   O  NAG B   6       7.803  15.933  22.3380  0.00  0.00     0.000 OA
ENDBRANCH 80 87
ATOM     90   O  NAG B   6       6.132  21.468  16.7890  0.00  0.00     0.000 O
ATOM     92  HD  NAG B   6       5.845  21.146  17.5400  0.00  0.00     0.000 HD
ATOM     92   O  NAG B   6       6.132  21.468  16.7890  0.00  0.00     0.000 O
ATOM     94  HD  NAG B   6       5.845  21.146  17.5400  0.00  0.00     0.000 HD
ENDBRANCH 78 81
ENDBRANCH 65 78
ENDBRANCH 64 68
ENDBRANCH 48 64
ENDBRANCH 47 50
ENDBRANCH 34 47
ENDBRANCH 33 37
ENDBRANCH 17 33
ENDBRANCH 16 19
ENDBRANCH 1 16
TORSDOF 16
ENDMDL
MODEL 89
REMARK VINA RESULT:      -4.5      7.500     10.035
ROOT
ATOM      1  C1  BDP B   1      22.426  17.170  26.1760  0.00  0.00     0.000 C
ATOM      2  C2  BDP B   1      23.742  16.480  26.4930  0.00  0.00     0.000 C
ATOM      3  C3  BDP B   1      24.847  17.470  26.7910  0.00  0.00     0.000 C
ATOM      4  C4  BDP B   1      24.355  18.888  27.0610  0.00  0.00     0.000 C
ATOM      5  C5  BDP B   1      23.329  19.362  26.0370  0.00  0.00     0.000 C
ATOM      6  O5  BDP B   1      22.728  18.266  25.3260  0.00  0.00     0.000 O
ATOM      7   O  BDP B   1      23.572  15.598  27.6070  0.00  0.00     0.000 O
ATOM      9  HD  BDP B   1      23.124  14.994  28.0370  0.00  0.00     0.000 HD
ATOM      9   O  BDP B   1      25.763  17.530  25.6870  0.00  0.00     0.000 O
ATOM     11  HD  BDP B   1      25.315  16.926  26.1160  0.00  0.00     0.000 HD
ATOM     11   O  BDP B   1      23.802  18.982  28.3790  0.00  0.00     0.000 O
ATOM     13  HD  BDP B   1      23.354  18.378  28.8090  0.00  0.00     0.000 HD
ENDROOT
BRANCH 5 13
ATOM     13   C  BDP B   1      24.040  20.252  25.0790  0.00  0.00     0.000 C
ATOM     14   O  BDP B   1      23.397  20.712  24.1130  0.00  0.00     0.000 OA
ATOM     15   O  BDP B   1      25.241  20.531  25.2850  0.00  0.00     0.000 OA
ENDBRANCH 5 13
BRANCH 1 16
ATOM     16  O3  NAG B   2      21.152  17.070  26.8080  0.00  0.00     0.000 O
BRANCH 16 19
ATOM     17  C1  NAG B   2      18.674  15.557  29.0040  0.00  0.00     0.000 C
ATOM     18  C2  NAG B   2      20.134  15.814  28.6300  0.00  0.00     0.000 C
ATOM     19  C3  NAG B   2      20.279  17.159  27.9350  0.00  0.00     0.000 C
ATOM     20  C4  NAG B   2      18.924  17.721  27.4960  0.00  0.00     0.000 C
ATOM     21  C5  NAG B   2      17.904  16.672  27.0310  0.00  0.00     0.000 C
ATOM     22  O5  NAG B   2      17.983  15.440  27.7580  0.00  0.00     0.000 O
ATOM     23   O  NAG B   2      18.377  18.484  28.5760  0.00  0.00     0.000 O
ATOM     25  HD  NAG B   2      18.623  17.924  29.1890  0.00  0.00     0.000 HD
ATOM     25   C  NAG B   2      18.081  16.371  25.5360  0.00  0.00     0.000 C
ATOM     26   O  NAG B   2      17.369  17.310  24.7180  0.00  0.00     0.000 O
ATOM     28  HD  NAG B   2      17.616  16.750  25.3310  0.00  0.00     0.000 HD
BRANCH 18 30
ATOM     28   N  NAG B   2      20.281  16.685  29.7960  0.00  0.00     0.000 N
ATOM     30  HD  NAG B   2      20.700  17.390  30.0730  0.00  0.00     0.000 HD
ATOM     30   C  NAG B   2      20.863  16.330  30.9500  0.00  0.00     0.000 C
ATOM     31   C  NAG B   2      20.881  17.402  32.0030  0.00  0.00     0.000 C
ATOM     32   O  NAG B   2      21.347  15.240  31.1460  0.00  0.00     0.000 OA
ENDBRANCH 18 30
BRANCH 17 33
ATOM     33  O4  BDP B   3      17.576  14.679  29.3370  0.00  0.00     0.000 O
BRANCH 33 37
ATOM     34  C1  BDP B   3      15.548  12.122  32.0920  0.00  0.00     0.000 C
ATOM     35  C2  BDP B   3      16.962  12.558  32.4570  0.00  0.00     0.000 C
ATOM     36  C3  BDP B   3      17.449  13.771  31.6730  0.00  0.00     0.000 C
ATOM     37  C4  BDP B   3      17.116  13.586  30.1840  0.00  0.00     0.000 C
ATOM     38  C5  BDP B   3      15.596  13.355  30.0810  0.00  0.00     0.000 C
ATOM     39  O5  BDP B   3      15.358  12.078  30.6730  0.00  0.00     0.000 O
ATOM     40   O  BDP B   3      16.956  12.792  33.8670  0.00  0.00     0.000 O
ATOM     42  HD  BDP B   3      17.038  11.930  33.8530  0.00  0.00     0.000 HD
ATOM     42   O  BDP B   3      18.855  13.865  31.8940  0.00  0.00     0.000 O
ATOM     44  HD  BDP B   3      18.937  13.003  31.8810  0.00  0.00     0.000 HD
BRANCH 38 44
ATOM     44   C  BDP B   3      15.061  13.373  28.6830  0.00  0.00     0.000 C
ATOM     45   O  BDP B   3      14.314  14.321  28.3540  0.00  0.00     0.000 OA
ATOM     46   O  BDP B   3      15.368  12.455  27.8920  0.00  0.00     0.000 OA
ENDBRANCH 38 44
BRANCH 34 47
ATOM     47  O3  NAG B   4      15.410  10.702  32.0930  0.00  0.00     0.000 O
BRANCH 47 50
ATOM     48  C1  NAG B   4      12.567   9.214  34.0550  0.00  0.00     0.000 C
ATOM     49  C2  NAG B   4      13.885   9.933  33.8290  0.00  0.00     0.000 C
ATOM     50  C3  NAG B   4      14.130  10.081  32.3310  0.00  0.00     0.000 C
ATOM     51  C4  NAG B   4      14.077   8.739  31.6200  0.00  0.00     0.000 C
ATOM     52  C5  NAG B   4      12.760   8.032  31.9410  0.00  0.00     0.000 C
ATOM     53  O5  NAG B   4      12.569   7.952  33.3600  0.00  0.00     0.000 O
ATOM     54   O  NAG B   4      14.205   8.952  30.2120  0.00  0.00     0.000 O
ATOM     56  HD  NAG B   4      14.314   8.123  30.4340  0.00  0.00     0.000 HD
ATOM     56   C  NAG B   4      12.725   6.629  31.3470  0.00  0.00     0.000 C
ATOM     57   O  NAG B   4      13.805   5.862  31.8940  0.00  0.00     0.000 O
ATOM     59  HD  NAG B   4      13.914   5.032  32.1170  0.00  0.00     0.000 HD
BRANCH 49 61
ATOM     59   N  NAG B   4      13.712  11.001  34.8140  0.00  0.00     0.000 N
ATOM     61  HD  NAG B   4      14.066  10.212  34.7660  0.00  0.00     0.000 HD
ATOM     61   O  NAG B   4      15.786  10.893  35.7000  0.00  0.00     0.000 OA
ATOM     62   C  NAG B   4      14.695  11.436  35.6100  0.00  0.00     0.000 C
ATOM     63   C  NAG B   4      14.392  12.672  36.3960  0.00  0.00     0.000 C
ENDBRANCH 49 61
BRANCH 48 64
ATOM     64  O4  BDP B   5      11.605   9.261  35.1050  0.00  0.00     0.000 O
BRANCH 64 68
ATOM     65  C1  BDP B   5       9.177   8.644  38.4370  0.00  0.00     0.000 C
ATOM     66  C2  BDP B   5      10.663   8.823  38.7180  0.00  0.00     0.000 C
ATOM     67  C3  BDP B   5      11.342   9.454  37.5090  0.00  0.00     0.000 C
ATOM     68  C4  BDP B   5      11.083   8.612  36.2640  0.00  0.00     0.000 C
ATOM     69  C5  BDP B   5       9.599   8.348  36.0470  0.00  0.00     0.000 C
ATOM     70  O5  BDP B   5       8.991   7.853  37.2530  0.00  0.00     0.000 O
ATOM     71   O  BDP B   5      10.838   9.620  39.9000  0.00  0.00     0.000 O
ATOM     73  HD  BDP B   5      10.886  10.121  40.6050  0.00  0.00     0.000 HD
ATOM     73   O  BDP B   5      12.754   9.560  37.7230  0.00  0.00     0.000 O
ATOM     75  HD  BDP B   5      12.803  10.061  38.4280  0.00  0.00     0.000 HD
BRANCH 69 75
ATOM     75   C  BDP B   5       9.456   7.320  34.9530  0.00  0.00     0.000 C
ATOM     76   O  BDP B   5       9.934   6.182  35.1320  0.00  0.00     0.000 OA
ATOM     77   O  BDP B   5       8.862   7.634  33.9040  0.00  0.00     0.000 OA
ENDBRANCH 69 75
BRANCH 65 78
ATOM     78  O3  NAG B   6       8.328   7.628  38.9760  0.00  0.00     0.000 O
BRANCH 78 81
ATOM     79  C1  NAG B   6       4.580   7.108  38.8400  0.00  0.00     0.000 C
ATOM     80  C2  NAG B   6       5.908   7.790  39.2080  0.00  0.00     0.000 C
ATOM     81  C3  NAG B   6       7.068   7.092  38.5170  0.00  0.00     0.000 C
ATOM     82  C4  NAG B   6       7.021   5.580  38.7650  0.00  0.00     0.000 C
ATOM     83  C5  NAG B   6       5.659   5.040  38.3440  0.00  0.00     0.000 C
ATOM     84  O5  NAG B   6       4.669   5.702  39.1330  0.00  0.00     0.000 O
BRANCH 80 87
ATOM     85   N  NAG B   6       5.745   9.206  38.8920  0.00  0.00     0.000 N
ATOM     87  HD  NAG B   6       5.420   9.984  39.0890  0.00  0.00     0.000 HD
ATOM     87   C  NAG B   6       6.242  10.201  39.6360  0.00  0.00     0.000 C
ATOM     88   C  NAG B   6       5.994  11.583  39.1210  0.00  0.00     0.000 C
ATOM     89   O  NAG B   6       6.875  10.013  40.6680  0.00  0.00     0.000 OA
ENDBRANCH 80 87
ATOM     90   O  NAG B   6       5.433   2.899  37.2420  0.00  0.00     0.000 O
ATOM     92  HD  NAG B   6       5.107   3.697  37.3330  0.00  0.00     0.000 HD
ATOM     92   O  NAG B   6       5.433   2.899  37.2420  0.00  0.00     0.000 O
ATOM     94  HD  NAG B   6       5.107   3.697  37.3330  0.00  0.00     0.000 HD
ENDBRANCH 78 81
ENDBRANCH 65 78
ENDBRANCH 64 68
ENDBRANCH 48 64
ENDBRANCH 47 50
ENDBRANCH 34 47
ENDBRANCH 33 37
ENDBRANCH 17 33
ENDBRANCH 16 19
ENDBRANCH 1 16
TORSDOF 16
ENDMDL
MODEL 90
REMARK VINA RESULT:      -4.4      8.406     14.322
ROOT
ATOM      1  C1  BDP B   1      34.941   7.765  18.6960  0.00  0.00     0.000 C
ATOM      2  C2  BDP B   1      35.161   9.179  18.1870  0.00  0.00     0.000 C
ATOM      3  C3  BDP B   1      34.677   9.353  16.7630  0.00  0.00     0.000 C
ATOM      4  C4  BDP B   1      33.774   8.228  16.2710  0.00  0.00     0.000 C
ATOM      5  C5  BDP B   1      34.327   6.843  16.5960  0.00  0.00     0.000 C
ATOM      6  O5  BDP B   1      35.309   6.884  17.6450  0.00  0.00     0.000 O
ATOM      7   O  BDP B   1      34.491  10.113  19.0410  0.00  0.00     0.000 O
ATOM      9  HD  BDP B   1      34.276  10.404  19.8270  0.00  0.00     0.000 HD
ATOM      9   O  BDP B   1      35.800   9.433  15.8710  0.00  0.00     0.000 O
ATOM     11  HD  BDP B   1      35.584   9.724  16.6580  0.00  0.00     0.000 HD
ATOM     11   O  BDP B   1      32.459   8.365  16.8230  0.00  0.00     0.000 O
ATOM     13  HD  BDP B   1      32.243   8.656  17.6090  0.00  0.00     0.000 HD
ENDROOT
BRANCH 5 13
ATOM     13   C  BDP B   1      34.944   6.311  15.3500  0.00  0.00     0.000 C
ATOM     14   O  BDP B   1      34.816   6.974  14.3000  0.00  0.00     0.000 OA
ATOM     15   O  BDP B   1      35.587   5.241  15.4000  0.00  0.00     0.000 OA
ENDBRANCH 5 13
BRANCH 1 16
ATOM     16  O3  NAG B   2      34.199   7.288  19.8170  0.00  0.00     0.000 O
BRANCH 16 19
ATOM     17  C1  NAG B   2      30.878   5.844  20.1950  0.00  0.00     0.000 C
ATOM     18  C2  NAG B   2      32.242   5.870  19.5050  0.00  0.00     0.000 C
ATOM     19  C3  NAG B   2      33.316   6.368  20.4610  0.00  0.00     0.000 C
ATOM     20  C4  NAG B   2      32.710   7.020  21.7060  0.00  0.00     0.000 C
ATOM     21  C5  NAG B   2      31.411   7.801  21.4660  0.00  0.00     0.000 C
ATOM     22  O5  NAG B   2      30.569   7.213  20.4670  0.00  0.00     0.000 O
ATOM     23   O  NAG B   2      32.489   6.003  22.6890  0.00  0.00     0.000 O
ATOM     25  HD  NAG B   2      32.203   5.416  22.1200  0.00  0.00     0.000 HD
ATOM     25   C  NAG B   2      31.718   9.249  21.0570  0.00  0.00     0.000 C
ATOM     26   O  NAG B   2      31.920  10.092  22.2000  0.00  0.00     0.000 O
ATOM     28  HD  NAG B   2      31.634   9.505  21.6310  0.00  0.00     0.000 HD
BRANCH 18 30
ATOM     28   N  NAG B   2      33.053   4.653  19.4980  0.00  0.00     0.000 N
ATOM     30  HD  NAG B   2      33.559   4.173  18.9850  0.00  0.00     0.000 HD
ATOM     30   C  NAG B   2      32.567   3.406  19.5740  0.00  0.00     0.000 C
ATOM     31   C  NAG B   2      33.606   2.321  19.5590  0.00  0.00     0.000 C
ATOM     32   O  NAG B   2      31.386   3.155  19.6440  0.00  0.00     0.000 OA
ENDBRANCH 18 30
BRANCH 17 33
ATOM     33  O4  BDP B   3      29.434   5.849  20.1710  0.00  0.00     0.000 O
BRANCH 33 37
ATOM     34  C1  BDP B   3      25.585   5.535  21.9950  0.00  0.00     0.000 C
ATOM     35  C2  BDP B   3      26.800   5.403  22.9050  0.00  0.00     0.000 C
ATOM     36  C3  BDP B   3      28.088   5.937  22.2870  0.00  0.00     0.000 C
ATOM     37  C4  BDP B   3      28.212   5.426  20.8430  0.00  0.00     0.000 C
ATOM     38  C5  BDP B   3      26.940   5.863  20.0920  0.00  0.00     0.000 C
ATOM     39  O5  BDP B   3      25.875   5.102  20.6610  0.00  0.00     0.000 O
ATOM     40   O  BDP B   3      26.465   6.077  24.1200  0.00  0.00     0.000 O
ATOM     42  HD  BDP B   3      26.068   5.318  24.2490  0.00  0.00     0.000 HD
ATOM     42   O  BDP B   3      29.159   5.475  23.1080  0.00  0.00     0.000 O
ATOM     44  HD  BDP B   3      28.762   4.716  23.2360  0.00  0.00     0.000 HD
BRANCH 38 44
ATOM     44   C  BDP B   3      26.988   5.640  18.6120  0.00  0.00     0.000 C
ATOM     45   O  BDP B   3      27.282   4.495  18.2020  0.00  0.00     0.000 OA
ATOM     46   O  BDP B   3      26.739   6.588  17.8360  0.00  0.00     0.000 OA
ENDBRANCH 38 44
BRANCH 34 47
ATOM     47  O3  NAG B   4      24.712   4.413  22.1050  0.00  0.00     0.000 O
BRANCH 47 50
ATOM     48  C1  NAG B   4      21.171   5.637  21.7650  0.00  0.00     0.000 C
ATOM     49  C2  NAG B   4      22.611   5.634  22.2500  0.00  0.00     0.000 C
ATOM     50  C3  NAG B   4      23.360   4.473  21.6060  0.00  0.00     0.000 C
ATOM     51  C4  NAG B   4      22.664   3.146  21.8650  0.00  0.00     0.000 C
ATOM     52  C5  NAG B   4      21.203   3.232  21.4230  0.00  0.00     0.000 C
ATOM     53  O5  NAG B   4      20.561   4.359  22.0330  0.00  0.00     0.000 O
ATOM     54   O  NAG B   4      23.348   2.114  21.1500  0.00  0.00     0.000 O
ATOM     56  HD  NAG B   4      22.799   1.802  21.7420  0.00  0.00     0.000 HD
ATOM     56   C  NAG B   4      20.440   1.961  21.7820  0.00  0.00     0.000 C
ATOM     57   O  NAG B   4      20.483   1.777  23.2030  0.00  0.00     0.000 O
ATOM     59  HD  NAG B   4      19.933   1.464  23.7950  0.00  0.00     0.000 HD
BRANCH 49 61
ATOM     59   N  NAG B   4      22.222   5.939  23.6270  0.00  0.00     0.000 N
ATOM     61  HD  NAG B   4      22.942   5.768  23.1780  0.00  0.00     0.000 HD
ATOM     61   O  NAG B   4      23.923   7.354  24.0820  0.00  0.00     0.000 OA
ATOM     62   C  NAG B   4      22.867   6.825  24.3960  0.00  0.00     0.000 C
ATOM     63   C  NAG B   4      22.201   7.162  25.6930  0.00  0.00     0.000 C
ENDBRANCH 49 61
BRANCH 48 64
ATOM     64  O4  BDP B   5      20.213   6.674  21.5760  0.00  0.00     0.000 O
BRANCH 64 68
ATOM     65  C1  BDP B   5      21.113  10.744  21.5540  0.00  0.00     0.000 C
ATOM     66  C2  BDP B   5      20.253  10.257  22.7130  0.00  0.00     0.000 C
ATOM     67  C3  BDP B   5      20.366   8.743  22.8340  0.00  0.00     0.000 C
ATOM     68  C4  BDP B   5      19.988   8.082  21.5130  0.00  0.00     0.000 C
ATOM     69  C5  BDP B   5      20.778   8.648  20.3400  0.00  0.00     0.000 C
ATOM     70  O5  BDP B   5      20.721  10.085  20.3390  0.00  0.00     0.000 O
ATOM     71   O  BDP B   5      20.657  10.917  23.9220  0.00  0.00     0.000 O
ATOM     73  HD  BDP B   5      20.953  11.328  24.6250  0.00  0.00     0.000 HD
ATOM     73   O  BDP B   5      19.505   8.255  23.8690  0.00  0.00     0.000 O
ATOM     75  HD  BDP B   5      19.801   8.666  24.5720  0.00  0.00     0.000 HD
BRANCH 69 75
ATOM     75   C  BDP B   5      20.175   8.119  19.0630  0.00  0.00     0.000 C
ATOM     76   O  BDP B   5      20.930   7.861  18.1050  0.00  0.00     0.000 OA
ATOM     77   O  BDP B   5      18.942   7.952  19.0020  0.00  0.00     0.000 OA
ENDBRANCH 69 75
BRANCH 65 78
ATOM     78  O3  NAG B   6      20.869  11.895  20.7410  0.00  0.00     0.000 O
BRANCH 78 81
ATOM     79  C1  NAG B   6      22.625  13.963  18.1000  0.00  0.00     0.000 C
ATOM     80  C2  NAG B   6      22.249  13.482  19.5110  0.00  0.00     0.000 C
ATOM     81  C3  NAG B   6      21.350  12.259  19.4290  0.00  0.00     0.000 C
ATOM     82  C4  NAG B   6      20.166  12.514  18.4900  0.00  0.00     0.000 C
ATOM     83  C5  NAG B   6      20.686  12.969  17.1310  0.00  0.00     0.000 C
ATOM     84  O5  NAG B   6      21.426  14.174  17.3330  0.00  0.00     0.000 O
BRANCH 80 87
ATOM     85   N  NAG B   6      23.537  13.559  20.1940  0.00  0.00     0.000 N
ATOM     87  HD  NAG B   6      24.095  13.995  20.6930  0.00  0.00     0.000 HD
ATOM     87   C  NAG B   6      23.679  13.597  21.5240  0.00  0.00     0.000 C
ATOM     88   C  NAG B   6      25.088  13.640  22.0260  0.00  0.00     0.000 C
ATOM     89   O  NAG B   6      22.729  13.584  22.2980  0.00  0.00     0.000 OA
ENDBRANCH 80 87
ATOM     90   O  NAG B   6      19.652  12.237  15.0710  0.00  0.00     0.000 O
ATOM     92  HD  NAG B   6      20.388  12.487  15.4550  0.00  0.00     0.000 HD
ATOM     92   O  NAG B   6      19.652  12.237  15.0710  0.00  0.00     0.000 O
ATOM     94  HD  NAG B   6      20.388  12.487  15.4550  0.00  0.00     0.000 HD
ENDBRANCH 78 81
ENDBRANCH 65 78
ENDBRANCH 64 68
ENDBRANCH 48 64
ENDBRANCH 47 50
ENDBRANCH 34 47
ENDBRANCH 33 37
ENDBRANCH 17 33
ENDBRANCH 16 19
ENDBRANCH 1 16
TORSDOF 16
ENDMDL
MODEL 91
REMARK VINA RESULT:      -4.4      7.914     15.187
ROOT
ATOM      1  C1  BDP B   1      18.095  21.916  40.4480  0.00  0.00     0.000 C
ATOM      2  C2  BDP B   1      18.287  22.901  41.5880  0.00  0.00     0.000 C
ATOM      3  C3  BDP B   1      18.844  22.236  42.8280  0.00  0.00     0.000 C
ATOM      4  C4  BDP B   1      19.419  20.846  42.5830  0.00  0.00     0.000 C
ATOM      5  C5  BDP B   1      18.499  19.966  41.7420  0.00  0.00     0.000 C
ATOM      6  O5  BDP B   1      17.533  20.739  41.0090  0.00  0.00     0.000 O
ATOM      7   O  BDP B   1      19.160  23.958  41.1760  0.00  0.00     0.000 O
ATOM      9  HD  BDP B   1      19.422  24.543  40.5930  0.00  0.00     0.000 HD
ATOM      9   O  BDP B   1      17.815  22.113  43.8230  0.00  0.00     0.000 O
ATOM     11  HD  BDP B   1      18.078  22.698  43.2400  0.00  0.00     0.000 HD
ATOM     11   O  BDP B   1      20.704  20.940  41.9560  0.00  0.00     0.000 O
ATOM     13  HD  BDP B   1      20.967  21.525  41.3730  0.00  0.00     0.000 HD
ENDROOT
BRANCH 5 13
ATOM     13   C  BDP B   1      17.799  19.042  42.6750  0.00  0.00     0.000 C
ATOM     14   O  BDP B   1      18.339  17.947  42.9360  0.00  0.00     0.000 OA
ATOM     15   O  BDP B   1      16.715  19.398  43.1840  0.00  0.00     0.000 OA
ENDBRANCH 5 13
BRANCH 1 16
ATOM     16  O3  NAG B   2      18.643  21.904  39.1320  0.00  0.00     0.000 O
BRANCH 16 19
ATOM     17  C1  NAG B   2      17.988  19.527  36.4530  0.00  0.00     0.000 C
ATOM     18  C2  NAG B   2      17.493  20.596  37.4280  0.00  0.00     0.000 C
ATOM     19  C3  NAG B   2      18.602  21.591  37.7390  0.00  0.00     0.000 C
ATOM     20  C4  NAG B   2      19.970  21.075  37.2840  0.00  0.00     0.000 C
ATOM     21  C5  NAG B   2      20.175  19.560  37.4230  0.00  0.00     0.000 C
ATOM     22  O5  NAG B   2      18.989  18.800  37.1700  0.00  0.00     0.000 O
ATOM     23   O  NAG B   2      20.176  21.470  35.9240  0.00  0.00     0.000 O
ATOM     25  HD  NAG B   2      19.362  21.304  35.6790  0.00  0.00     0.000 HD
ATOM     25   C  NAG B   2      20.691  19.211  38.8270  0.00  0.00     0.000 C
ATOM     26   O  NAG B   2      22.118  19.332  38.9140  0.00  0.00     0.000 O
ATOM     28  HD  NAG B   2      21.304  19.166  38.6700  0.00  0.00     0.000 HD
BRANCH 18 30
ATOM     28   N  NAG B   2      17.180  21.746  36.5800  0.00  0.00     0.000 N
ATOM     30  HD  NAG B   2      16.906  22.566  36.6170  0.00  0.00     0.000 HD
ATOM     30   C  NAG B   2      16.139  21.818  35.7390  0.00  0.00     0.000 C
ATOM     31   C  NAG B   2      16.037  23.104  34.9690  0.00  0.00     0.000 C
ATOM     32   O  NAG B   2      15.330  20.930  35.6020  0.00  0.00     0.000 OA
ENDBRANCH 18 30
BRANCH 17 33
ATOM     33  O4  BDP B   3      17.915  18.217  35.8490  0.00  0.00     0.000 O
BRANCH 33 37
ATOM     34  C1  BDP B   3      16.429  14.994  33.4730  0.00  0.00     0.000 C
ATOM     35  C2  BDP B   3      16.890  16.247  32.7380  0.00  0.00     0.000 C
ATOM     36  C3  BDP B   3      17.778  17.157  33.5790  0.00  0.00     0.000 C
ATOM     37  C4  BDP B   3      17.159  17.329  34.9740  0.00  0.00     0.000 C
ATOM     38  C5  BDP B   3      16.978  15.921  35.5720  0.00  0.00     0.000 C
ATOM     39  O5  BDP B   3      15.958  15.298  34.7910  0.00  0.00     0.000 O
ATOM     40   O  BDP B   3      17.547  15.796  31.5510  0.00  0.00     0.000 O
ATOM     42  HD  BDP B   3      16.720  15.741  31.3000  0.00  0.00     0.000 HD
ATOM     42   O  BDP B   3      17.871  18.398  32.8820  0.00  0.00     0.000 O
ATOM     44  HD  BDP B   3      17.044  18.343  32.6310  0.00  0.00     0.000 HD
BRANCH 38 44
ATOM     44   C  BDP B   3      16.589  15.907  37.0170  0.00  0.00     0.000 C
ATOM     45   O  BDP B   3      15.450  16.325  37.3210  0.00  0.00     0.000 OA
ATOM     46   O  BDP B   3      17.400  15.486  37.8720  0.00  0.00     0.000 OA
ENDBRANCH 38 44
BRANCH 34 47
ATOM     47  O3  NAG B   4      15.087  14.644  33.1400  0.00  0.00     0.000 O
BRANCH 47 50
ATOM     48  C1  NAG B   4      14.407  11.068  32.1910  0.00  0.00     0.000 C
ATOM     49  C2  NAG B   4      14.972  12.471  32.0490  0.00  0.00     0.000 C
ATOM     50  C3  NAG B   4      14.616  13.288  33.2850  0.00  0.00     0.000 C
ATOM     51  C4  NAG B   4      13.117  13.296  33.5370  0.00  0.00     0.000 C
ATOM     52  C5  NAG B   4      12.594  11.860  33.6000  0.00  0.00     0.000 C
ATOM     53  O5  NAG B   4      12.987  11.133  32.4300  0.00  0.00     0.000 O
ATOM     54   O  NAG B   4      12.854  13.983  34.7630  0.00  0.00     0.000 O
ATOM     56  HD  NAG B   4      12.140  13.864  34.2880  0.00  0.00     0.000 HD
ATOM     56   C  NAG B   4      11.075  11.830  33.7270  0.00  0.00     0.000 C
ATOM     57   O  NAG B   4      10.497  12.482  32.5890  0.00  0.00     0.000 O
ATOM     59  HD  NAG B   4       9.783  12.363  32.1140  0.00  0.00     0.000 HD
BRANCH 49 61
ATOM     59   N  NAG B   4      14.485  12.823  30.7140  0.00  0.00     0.000 N
ATOM     61  HD  NAG B   4      14.994  13.158  31.3300  0.00  0.00     0.000 HD
ATOM     61   O  NAG B   4      16.434  13.642  29.9210  0.00  0.00     0.000 OA
ATOM     62   C  NAG B   4      15.272  13.308  29.7460  0.00  0.00     0.000 C
ATOM     63   C  NAG B   4      14.645  13.405  28.3910  0.00  0.00     0.000 C
ENDBRANCH 49 61
BRANCH 48 64
ATOM     64  O4  BDP B   5      14.822   9.800  31.6930  0.00  0.00     0.000 O
BRANCH 64 68
ATOM     65  C1  BDP B   5      14.211   6.146  33.6020  0.00  0.00     0.000 C
ATOM     66  C2  BDP B   5      15.619   6.718  33.6930  0.00  0.00     0.000 C
ATOM     67  C3  BDP B   5      15.593   8.202  33.3470  0.00  0.00     0.000 C
ATOM     68  C4  BDP B   5      14.969   8.408  31.9710  0.00  0.00     0.000 C
ATOM     69  C5  BDP B   5      13.604   7.742  31.8530  0.00  0.00     0.000 C
ATOM     70  O5  BDP B   5      13.669   6.374  32.2920  0.00  0.00     0.000 O
ATOM     71   O  BDP B   5      16.148   6.490  35.0080  0.00  0.00     0.000 O
ATOM     73  HD  BDP B   5      16.411   6.344  35.8210  0.00  0.00     0.000 HD
ATOM     73   O  BDP B   5      16.919   8.743  33.3510  0.00  0.00     0.000 O
ATOM     75  HD  BDP B   5      17.181   8.597  34.1630  0.00  0.00     0.000 HD
BRANCH 69 75
ATOM     75   C  BDP B   5      13.179   7.787  30.4070  0.00  0.00     0.000 C
ATOM     76   O  BDP B   5      13.388   6.789  29.6890  0.00  0.00     0.000 OA
ATOM     77   O  BDP B   5      12.629   8.816  29.9720  0.00  0.00     0.000 OA
ENDBRANCH 69 75
BRANCH 65 78
ATOM     78  O3  NAG B   6      13.862   4.801  33.2650  0.00  0.00     0.000 O
BRANCH 78 81
ATOM     79  C1  NAG B   6      11.120   2.535  34.5630  0.00  0.00     0.000 C
ATOM     80  C2  NAG B   6      12.390   3.401  34.6100  0.00  0.00     0.000 C
ATOM     81  C3  NAG B   6      12.594   4.109  33.2810  0.00  0.00     0.000 C
ATOM     82  C4  NAG B   6      12.526   3.115  32.1170  0.00  0.00     0.000 C
ATOM     83  C5  NAG B   6      11.216   2.339  32.1890  0.00  0.00     0.000 C
ATOM     84  O5  NAG B   6      11.193   1.644  33.4360  0.00  0.00     0.000 O
BRANCH 80 87
ATOM     85   N  NAG B   6      13.317   3.581  35.7240  0.00  0.00     0.000 N
ATOM     87  HD  NAG B   6      13.948   4.033  36.1060  0.00  0.00     0.000 HD
ATOM     87   C  NAG B   6      13.265   4.605  36.5840  0.00  0.00     0.000 C
ATOM     88   C  NAG B   6      14.285   4.588  37.6770  0.00  0.00     0.000 C
ATOM     89   O  NAG B   6      12.433   5.502  36.5060  0.00  0.00     0.000 OA
ENDBRANCH 80 87
ATOM     90   O  NAG B   6       9.972   1.770  30.1940  0.00  0.00     0.000 O
ATOM     92  HD  NAG B   6       9.926   1.959  31.0380  0.00  0.00     0.000 HD
ATOM     92   O  NAG B   6       9.972   1.770  30.1940  0.00  0.00     0.000 O
ATOM     94  HD  NAG B   6       9.926   1.959  31.0380  0.00  0.00     0.000 HD
ENDBRANCH 78 81
ENDBRANCH 65 78
ENDBRANCH 64 68
ENDBRANCH 48 64
ENDBRANCH 47 50
ENDBRANCH 34 47
ENDBRANCH 33 37
ENDBRANCH 17 33
ENDBRANCH 16 19
ENDBRANCH 1 16
TORSDOF 16
ENDMDL
MODEL 92
REMARK VINA RESULT:      -4.4     14.120     20.391
ROOT
ATOM      1  C1  BDP B   1      21.708  13.922  17.6670  0.00  0.00     0.000 C
ATOM      2  C2  BDP B   1      21.190  13.689  16.2590  0.00  0.00     0.000 C
ATOM      3  C3  BDP B   1      20.760  12.254  16.0400  0.00  0.00     0.000 C
ATOM      4  C4  BDP B   1      20.598  11.451  17.3250  0.00  0.00     0.000 C
ATOM      5  C5  BDP B   1      21.769  11.630  18.2860  0.00  0.00     0.000 C
ATOM      6  O5  BDP B   1      22.533  12.813  17.9940  0.00  0.00     0.000 O
ATOM      7   O  BDP B   1      20.091  14.566  15.9930  0.00  0.00     0.000 O
ATOM      9  HD  BDP B   1      19.715  15.346  16.0290  0.00  0.00     0.000 HD
ATOM      9   O  BDP B   1      21.724  11.573  15.2200  0.00  0.00     0.000 O
ATOM     11  HD  BDP B   1      21.348  12.353  15.2550  0.00  0.00     0.000 HD
ATOM     11   O  BDP B   1      19.375  11.803  17.9830  0.00  0.00     0.000 O
ATOM     13  HD  BDP B   1      18.999  12.583  18.0190  0.00  0.00     0.000 HD
ENDROOT
BRANCH 5 13
ATOM     13   C  BDP B   1      22.636  10.427  18.1530  0.00  0.00     0.000 C
ATOM     14   O  BDP B   1      23.699  10.391  18.8080  0.00  0.00     0.000 OA
ATOM     15   O  BDP B   1      22.264   9.488  17.4180  0.00  0.00     0.000 OA
ENDBRANCH 5 13
BRANCH 1 16
ATOM     16  O3  NAG B   2      21.263  14.819  18.6820  0.00  0.00     0.000 O
BRANCH 16 19
ATOM     17  C1  NAG B   2      20.779  18.384  18.1180  0.00  0.00     0.000 C
ATOM     18  C2  NAG B   2      20.228  16.958  18.1410  0.00  0.00     0.000 C
ATOM     19  C3  NAG B   2      20.953  16.120  19.1840  0.00  0.00     0.000 C
ATOM     20  C4  NAG B   2      22.233  16.805  19.6710  0.00  0.00     0.000 C
ATOM     21  C5  NAG B   2      22.990  17.607  18.6030  0.00  0.00     0.000 C
ATOM     22  O5  NAG B   2      22.128  18.257  17.6620  0.00  0.00     0.000 O
ATOM     23   O  NAG B   2      21.902  17.656  20.7730  0.00  0.00     0.000 O
ATOM     25  HD  NAG B   2      21.166  17.944  20.4200  0.00  0.00     0.000 HD
ATOM     25   C  NAG B   2      23.961  16.700  17.8330  0.00  0.00     0.000 C
ATOM     26   O  NAG B   2      25.218  16.570  18.5130  0.00  0.00     0.000 O
ATOM     28  HD  NAG B   2      24.481  16.858  18.1600  0.00  0.00     0.000 HD
BRANCH 18 30
ATOM     28   N  NAG B   2      18.775  17.096  18.2390  0.00  0.00     0.000 N
ATOM     30  HD  NAG B   2      18.110  17.554  17.9270  0.00  0.00     0.000 HD
ATOM     30   C  NAG B   2      18.119  17.560  19.3120  0.00  0.00     0.000 C
ATOM     31   C  NAG B   2      16.624  17.596  19.1720  0.00  0.00     0.000 C
ATOM     32   O  NAG B   2      18.672  17.932  20.3220  0.00  0.00     0.000 OA
ENDBRANCH 18 30
BRANCH 17 33
ATOM     33  O4  BDP B   3      21.010  19.653  17.4700  0.00  0.00     0.000 O
BRANCH 33 37
ATOM     34  C1  BDP B   3      19.872  23.583  16.2430  0.00  0.00     0.000 C
ATOM     35  C2  BDP B   3      21.240  23.425  16.8960  0.00  0.00     0.000 C
ATOM     36  C3  BDP B   3      21.746  21.987  16.9150  0.00  0.00     0.000 C
ATOM     37  C4  BDP B   3      20.617  21.054  17.3790  0.00  0.00     0.000 C
ATOM     38  C5  BDP B   3      19.423  21.274  16.4300  0.00  0.00     0.000 C
ATOM     39  O5  BDP B   3      18.948  22.591  16.7070  0.00  0.00     0.000 O
ATOM     40   O  BDP B   3      22.123  24.300  16.1900  0.00  0.00     0.000 O
ATOM     42  HD  BDP B   3      21.740  24.865  16.7230  0.00  0.00     0.000 HD
ATOM     42   O  BDP B   3      22.860  21.957  17.8060  0.00  0.00     0.000 O
ATOM     44  HD  BDP B   3      22.477  22.521  18.3390  0.00  0.00     0.000 HD
BRANCH 38 44
ATOM     44   C  BDP B   3      18.309  20.288  16.5980  0.00  0.00     0.000 C
ATOM     45   O  BDP B   3      17.431  20.537  17.4530  0.00  0.00     0.000 OA
ATOM     46   O  BDP B   3      18.286  19.256  15.8930  0.00  0.00     0.000 OA
ENDBRANCH 38 44
BRANCH 34 47
ATOM     47  O3  NAG B   4      19.070  24.555  16.9120  0.00  0.00     0.000 O
BRANCH 47 50
ATOM     48  C1  NAG B   4      15.853  25.300  15.1110  0.00  0.00     0.000 C
ATOM     49  C2  NAG B   4      17.355  25.170  15.2980  0.00  0.00     0.000 C
ATOM     50  C3  NAG B   4      17.647  24.623  16.6900  0.00  0.00     0.000 C
ATOM     51  C4  NAG B   4      17.005  25.475  17.7730  0.00  0.00     0.000 C
ATOM     52  C5  NAG B   4      15.509  25.629  17.4940  0.00  0.00     0.000 C
ATOM     53  O5  NAG B   4      15.296  26.114  16.1620  0.00  0.00     0.000 O
ATOM     54   O  NAG B   4      17.220  24.855  19.0430  0.00  0.00     0.000 O
ATOM     56  HD  NAG B   4      16.947  25.674  19.1140  0.00  0.00     0.000 HD
ATOM     56   C  NAG B   4      14.855  26.580  18.4890  0.00  0.00     0.000 C
ATOM     57   O  NAG B   4      15.478  27.867  18.3840  0.00  0.00     0.000 O
ATOM     59  HD  NAG B   4      15.205  28.686  18.4550  0.00  0.00     0.000 HD
BRANCH 49 61
ATOM     59   N  NAG B   4      17.764  26.499  14.8390  0.00  0.00     0.000 N
ATOM     61  HD  NAG B   4      18.131  25.762  15.1080  0.00  0.00     0.000 HD
ATOM     61   O  NAG B   4      19.476  25.820  13.5320  0.00  0.00     0.000 OA
ATOM     62   C  NAG B   4      18.737  26.702  13.9430  0.00  0.00     0.000 C
ATOM     63   C  NAG B   4      18.868  28.104  13.4370  0.00  0.00     0.000 C
ENDBRANCH 49 61
BRANCH 48 64
ATOM     64  O4  BDP B   5      15.008  25.227  13.9670  0.00  0.00     0.000 O
BRANCH 64 68
ATOM     65  C1  BDP B   5      15.154  22.243  11.0610  0.00  0.00     0.000 C
ATOM     66  C2  BDP B   5      15.756  23.586  10.6680  0.00  0.00     0.000 C
ATOM     67  C3  BDP B   5      16.023  24.413  11.9190  0.00  0.00     0.000 C
ATOM     68  C4  BDP B   5      14.741  24.565  12.7310  0.00  0.00     0.000 C
ATOM     69  C5  BDP B   5      14.088  23.222  13.0310  0.00  0.00     0.000 C
ATOM     70  O5  BDP B   5      13.957  22.444  11.8280  0.00  0.00     0.000 O
ATOM     71   O  BDP B   5      16.954  23.373   9.9070  0.00  0.00     0.000 O
ATOM     73  HD  BDP B   5      17.680  23.189   9.4710  0.00  0.00     0.000 HD
ATOM     73   O  BDP B   5      16.517  25.711  11.5680  0.00  0.00     0.000 O
ATOM     75  HD  BDP B   5      17.242  25.527  11.1320  0.00  0.00     0.000 HD
BRANCH 69 75
ATOM     75   C  BDP B   5      12.722  23.480  13.6140  0.00  0.00     0.000 C
ATOM     76   O  BDP B   5      12.475  23.073  14.7680  0.00  0.00     0.000 OA
ATOM     77   O  BDP B   5      11.880  24.094  12.9320  0.00  0.00     0.000 OA
ENDBRANCH 69 75
BRANCH 65 78
ATOM     78  O3  NAG B   6      14.251  21.457  10.2790  0.00  0.00     0.000 O
BRANCH 78 81
ATOM     79  C1  NAG B   6      14.214  17.720   9.6720  0.00  0.00     0.000 C
ATOM     80  C2  NAG B   6      14.766  19.155   9.6690  0.00  0.00     0.000 C
ATOM     81  C3  NAG B   6      13.818  20.085  10.4090  0.00  0.00     0.000 C
ATOM     82  C4  NAG B   6      12.386  19.936   9.8830  0.00  0.00     0.000 C
ATOM     83  C5  NAG B   6      11.970  18.471   9.9570  0.00  0.00     0.000 C
ATOM     84  O5  NAG B   6      12.876  17.723   9.1450  0.00  0.00     0.000 O
BRANCH 80 87
ATOM     85   N  NAG B   6      16.112  19.108  10.2340  0.00  0.00     0.000 N
ATOM     87  HD  NAG B   6      16.949  18.899  10.1580  0.00  0.00     0.000 HD
ATOM     87   C  NAG B   6      17.150  19.805   9.7550  0.00  0.00     0.000 C
ATOM     88   C  NAG B   6      18.437  19.645  10.4990  0.00  0.00     0.000 C
ATOM     89   O  NAG B   6      17.067  20.542   8.7800  0.00  0.00     0.000 OA
ENDBRANCH 80 87
ATOM     90   O  NAG B   6       9.728  17.825  10.5920  0.00  0.00     0.000 O
ATOM     92  HD  NAG B   6      10.565  17.604  10.5940  0.00  0.00     0.000 HD
ATOM     92   O  NAG B   6       9.728  17.825  10.5920  0.00  0.00     0.000 O
ATOM     94  HD  NAG B   6      10.565  17.604  10.5940  0.00  0.00     0.000 HD
ENDBRANCH 78 81
ENDBRANCH 65 78
ENDBRANCH 64 68
ENDBRANCH 48 64
ENDBRANCH 47 50
ENDBRANCH 34 47
ENDBRANCH 33 37
ENDBRANCH 17 33
ENDBRANCH 16 19
ENDBRANCH 1 16
TORSDOF 16
ENDMDL
MODEL 93
REMARK VINA RESULT:      -4.4      7.195     15.975
ROOT
ATOM      1  C1  BDP B   1      19.370  20.341  39.0850  0.00  0.00     0.000 C
ATOM      2  C2  BDP B   1      18.747  21.663  39.4950  0.00  0.00     0.000 C
ATOM      3  C3  BDP B   1      19.792  22.710  39.8180  0.00  0.00     0.000 C
ATOM      4  C4  BDP B   1      21.195  22.356  39.3370  0.00  0.00     0.000 C
ATOM      5  C5  BDP B   1      21.593  20.924  39.6810  0.00  0.00     0.000 C
ATOM      6  O5  BDP B   1      20.452  20.100  39.9730  0.00  0.00     0.000 O
ATOM      7   O  BDP B   1      17.892  22.143  38.4510  0.00  0.00     0.000 O
ATOM      9  HD  BDP B   1      17.283  22.014  37.8490  0.00  0.00     0.000 HD
ATOM      9   O  BDP B   1      19.856  22.916  41.2380  0.00  0.00     0.000 O
ATOM     11  HD  BDP B   1      19.247  22.788  40.6350  0.00  0.00     0.000 HD
ATOM     11   O  BDP B   1      21.305  22.562  37.9240  0.00  0.00     0.000 O
ATOM     13  HD  BDP B   1      20.696  22.434  37.3210  0.00  0.00     0.000 HD
ENDROOT
BRANCH 5 13
ATOM     13   C  BDP B   1      22.483  20.989  40.8730  0.00  0.00     0.000 C
ATOM     14   O  BDP B   1      23.717  20.929  40.6900  0.00  0.00     0.000 OA
ATOM     15   O  BDP B   1      21.974  21.125  42.0060  0.00  0.00     0.000 OA
ENDBRANCH 5 13
BRANCH 1 16
ATOM     16  O3  NAG B   2      19.235  19.585  37.8830  0.00  0.00     0.000 O
BRANCH 16 19
ATOM     17  C1  NAG B   2      19.787  17.118  35.2630  0.00  0.00     0.000 C
ATOM     18  C2  NAG B   2      18.844  18.027  36.0520  0.00  0.00     0.000 C
ATOM     19  C3  NAG B   2      19.576  19.271  36.5320  0.00  0.00     0.000 C
ATOM     20  C4  NAG B   2      21.095  19.120  36.4050  0.00  0.00     0.000 C
ATOM     21  C5  NAG B   2      21.633  17.707  36.6680  0.00  0.00     0.000 C
ATOM     22  O5  NAG B   2      20.756  16.670  36.2140  0.00  0.00     0.000 O
ATOM     23   O  NAG B   2      21.486  19.552  35.0980  0.00  0.00     0.000 O
ATOM     25  HD  NAG B   2      20.812  19.185  34.6980  0.00  0.00     0.000 HD
ATOM     25   C  NAG B   2      21.902  17.501  38.1660  0.00  0.00     0.000 C
ATOM     26   O  NAG B   2      23.200  17.980  38.5440  0.00  0.00     0.000 O
ATOM     28  HD  NAG B   2      22.526  17.613  38.1440  0.00  0.00     0.000 HD
BRANCH 18 30
ATOM     28   N  NAG B   2      18.731  18.373  34.6350  0.00  0.00     0.000 N
ATOM     30  HD  NAG B   2      19.012  18.943  34.0470  0.00  0.00     0.000 HD
ATOM     30   C  NAG B   2      17.629  18.864  34.0500  0.00  0.00     0.000 C
ATOM     31   C  NAG B   2      17.760  19.130  32.5780  0.00  0.00     0.000 C
ATOM     32   O  NAG B   2      16.601  19.088  34.6470  0.00  0.00     0.000 OA
ENDBRANCH 18 30
BRANCH 17 33
ATOM     33  O4  BDP B   3      20.174  15.832  34.7320  0.00  0.00     0.000 O
BRANCH 33 37
ATOM     34  C1  BDP B   3      18.801  12.998  31.8470  0.00  0.00     0.000 C
ATOM     35  C2  BDP B   3      17.886  13.286  33.0310  0.00  0.00     0.000 C
ATOM     36  C3  BDP B   3      18.227  14.577  33.7670  0.00  0.00     0.000 C
ATOM     37  C4  BDP B   3      19.745  14.649  33.9980  0.00  0.00     0.000 C
ATOM     38  C5  BDP B   3      20.423  14.528  32.6190  0.00  0.00     0.000 C
ATOM     39  O5  BDP B   3      20.179  13.190  32.1850  0.00  0.00     0.000 O
ATOM     40   O  BDP B   3      16.553  13.295  32.5140  0.00  0.00     0.000 O
ATOM     42  HD  BDP B   3      16.682  12.442  32.5960  0.00  0.00     0.000 HD
ATOM     42   O  BDP B   3      17.504  14.551  34.9970  0.00  0.00     0.000 O
ATOM     44  HD  BDP B   3      17.633  13.698  35.0790  0.00  0.00     0.000 HD
BRANCH 38 44
ATOM     44   C  BDP B   3      21.895  14.798  32.6280  0.00  0.00     0.000 C
ATOM     45   O  BDP B   3      22.646  13.929  33.1230  0.00  0.00     0.000 OA
ATOM     46   O  BDP B   3      22.330  15.868  32.1500  0.00  0.00     0.000 OA
ENDBRANCH 38 44
BRANCH 34 47
ATOM     47  O3  NAG B   4      19.088  11.607  31.7200  0.00  0.00     0.000 O
BRANCH 47 50
ATOM     48  C1  NAG B   4      20.948  10.400  28.6810  0.00  0.00     0.000 C
ATOM     49  C2  NAG B   4      19.779  10.949  29.4800  0.00  0.00     0.000 C
ATOM     50  C3  NAG B   4      20.205  11.149  30.9300  0.00  0.00     0.000 C
ATOM     51  C4  NAG B   4      20.760   9.868  31.5310  0.00  0.00     0.000 C
ATOM     52  C5  NAG B   4      21.885   9.325  30.6490  0.00  0.00     0.000 C
ATOM     53  O5  NAG B   4      21.436   9.191  29.2940  0.00  0.00     0.000 O
ATOM     54   O  NAG B   4      21.241  10.142  32.8500  0.00  0.00     0.000 O
ATOM     56  HD  NAG B   4      21.165   9.294  32.6920  0.00  0.00     0.000 HD
ATOM     56   C  NAG B   4      22.382   7.975  31.1530  0.00  0.00     0.000 C
ATOM     57   O  NAG B   4      21.293   7.042  31.1400  0.00  0.00     0.000 O
ATOM     59  HD  NAG B   4      21.218   6.193  30.9820  0.00  0.00     0.000 HD
BRANCH 49 61
ATOM     59   N  NAG B   4      19.319  12.093  28.6910  0.00  0.00     0.000 N
ATOM     61  HD  NAG B   4      19.178  11.240  28.7420  0.00  0.00     0.000 HD
ATOM     61   O  NAG B   4      17.129  11.541  28.6630  0.00  0.00     0.000 OA
ATOM     62   C  NAG B   4      18.031  12.328  28.4140  0.00  0.00     0.000 C
ATOM     63   C  NAG B   4      17.735  13.651  27.7840  0.00  0.00     0.000 C
ENDBRANCH 49 61
BRANCH 48 64
ATOM     64  O4  BDP B   5      21.327  10.514  27.3130  0.00  0.00     0.000 O
BRANCH 64 68
ATOM     65  C1  BDP B   5      21.363  10.642  23.1470  0.00  0.00     0.000 C
ATOM     66  C2  BDP B   5      21.584  11.971  23.8570  0.00  0.00     0.000 C
ATOM     67  C3  BDP B   5      21.972  11.718  25.3080  0.00  0.00     0.000 C
ATOM     68  C4  BDP B   5      20.911  10.863  25.9930  0.00  0.00     0.000 C
ATOM     69  C5  BDP B   5      20.619   9.583  25.2210  0.00  0.00     0.000 C
ATOM     70  O5  BDP B   5      20.363   9.875  23.8360  0.00  0.00     0.000 O
ATOM     71   O  BDP B   5      22.589  12.727  23.1640  0.00  0.00     0.000 O
ATOM     73  HD  BDP B   5      23.213  13.131  22.7200  0.00  0.00     0.000 HD
ATOM     73   O  BDP B   5      22.109  12.957  26.0150  0.00  0.00     0.000 O
ATOM     75  HD  BDP B   5      22.734  13.361  25.5720  0.00  0.00     0.000 HD
BRANCH 69 75
ATOM     75   C  BDP B   5      19.404   8.930  25.8310  0.00  0.00     0.000 C
ATOM     76   O  BDP B   5      18.439   9.649  26.1620  0.00  0.00     0.000 OA
ATOM     77   O  BDP B   5      19.396   7.694  25.9820  0.00  0.00     0.000 OA
ENDBRANCH 69 75
BRANCH 65 78
ATOM     78  O3  NAG B   6      20.471  10.401  22.0560  0.00  0.00     0.000 O
BRANCH 78 81
ATOM     79  C1  NAG B   6      19.756   8.826  18.6880  0.00  0.00     0.000 C
ATOM     80  C2  NAG B   6      19.905   9.946  19.7300  0.00  0.00     0.000 C
ATOM     81  C3  NAG B   6      20.471   9.389  21.0260  0.00  0.00     0.000 C
ATOM     82  C4  NAG B   6      19.669   8.169  21.4910  0.00  0.00     0.000 C
ATOM     83  C5  NAG B   6      19.615   7.140  20.3680  0.00  0.00     0.000 C
ATOM     84  O5  NAG B   6      18.975   7.755  19.2490  0.00  0.00     0.000 O
BRANCH 80 87
ATOM     85   N  NAG B   6      19.823  11.181  18.9550  0.00  0.00     0.000 N
ATOM     87  HD  NAG B   6      19.586  12.012  18.8930  0.00  0.00     0.000 HD
ATOM     87   C  NAG B   6      20.479  12.306  19.2660  0.00  0.00     0.000 C
ATOM     88   C  NAG B   6      20.288  13.451  18.3230  0.00  0.00     0.000 C
ATOM     89   O  NAG B   6      21.206  12.406  20.2480  0.00  0.00     0.000 OA
ENDBRANCH 80 87
ATOM     90   O  NAG B   6      19.775   4.769  20.8160  0.00  0.00     0.000 O
ATOM     92  HD  NAG B   6      19.936   5.404  20.2490  0.00  0.00     0.000 HD
ATOM     92   O  NAG B   6      19.775   4.769  20.8160  0.00  0.00     0.000 O
ATOM     94  HD  NAG B   6      19.936   5.404  20.2490  0.00  0.00     0.000 HD
ENDBRANCH 78 81
ENDBRANCH 65 78
ENDBRANCH 64 68
ENDBRANCH 48 64
ENDBRANCH 47 50
ENDBRANCH 34 47
ENDBRANCH 33 37
ENDBRANCH 17 33
ENDBRANCH 16 19
ENDBRANCH 1 16
TORSDOF 16
ENDMDL
MODEL 94
REMARK VINA RESULT:      -4.4      6.584     16.101
ROOT
ATOM      1  C1  BDP B   1      22.253   5.687  45.3150  0.00  0.00     0.000 C
ATOM      2  C2  BDP B   1      23.016   5.147  44.1190  0.00  0.00     0.000 C
ATOM      3  C3  BDP B   1      23.545   3.749  44.3630  0.00  0.00     0.000 C
ATOM      4  C4  BDP B   1      22.923   3.052  45.5670  0.00  0.00     0.000 C
ATOM      5  C5  BDP B   1      22.871   3.943  46.8040  0.00  0.00     0.000 C
ATOM      6  O5  BDP B   1      22.997   5.337  46.4730  0.00  0.00     0.000 O
ATOM      7   O  BDP B   1      22.172   5.146  42.9630  0.00  0.00     0.000 O
ATOM      9  HD  BDP B   1      21.587   5.526  42.4490  0.00  0.00     0.000 HD
ATOM      9   O  BDP B   1      24.965   3.792  44.5690  0.00  0.00     0.000 O
ATOM     11  HD  BDP B   1      24.380   4.171  44.0560  0.00  0.00     0.000 HD
ATOM     11   O  BDP B   1      21.605   2.587  45.2500  0.00  0.00     0.000 O
ATOM     13  HD  BDP B   1      21.020   2.967  44.7370  0.00  0.00     0.000 HD
ENDROOT
BRANCH 5 13
ATOM     13   C  BDP B   1      23.994   3.534  47.6900  0.00  0.00     0.000 C
ATOM     14   O  BDP B   1      23.727   3.189  48.8600  0.00  0.00     0.000 OA
ATOM     15   O  BDP B   1      25.157   3.523  47.2320  0.00  0.00     0.000 OA
ENDBRANCH 5 13
BRANCH 1 16
ATOM     16  O3  NAG B   2      20.906   6.141  45.4270  0.00  0.00     0.000 O
BRANCH 16 19
ATOM     17  C1  NAG B   2      18.163   5.346  43.1690  0.00  0.00     0.000 C
ATOM     18  C2  NAG B   2      19.196   4.907  44.2080  0.00  0.00     0.000 C
ATOM     19  C3  NAG B   2      19.504   6.044  45.1700  0.00  0.00     0.000 C
ATOM     20  C4  NAG B   2      18.981   7.386  44.6490  0.00  0.00     0.000 C
ATOM     21  C5  NAG B   2      19.054   7.566  43.1260  0.00  0.00     0.000 C
ATOM     22  O5  NAG B   2      18.815   6.357  42.3970  0.00  0.00     0.000 O
ATOM     23   O  NAG B   2      17.630   7.550  45.0920  0.00  0.00     0.000 O
ATOM     25  HD  NAG B   2      17.409   6.725  44.9510  0.00  0.00     0.000 HD
ATOM     25   C  NAG B   2      20.423   8.125  42.7130  0.00  0.00     0.000 C
ATOM     26   O  NAG B   2      20.464   9.556  42.8050  0.00  0.00     0.000 O
ATOM     28  HD  NAG B   2      20.243   8.730  42.6630  0.00  0.00     0.000 HD
BRANCH 18 30
ATOM     28   N  NAG B   2      18.548   3.648  44.5750  0.00  0.00     0.000 N
ATOM     30  HD  NAG B   2      17.999   3.049  44.2760  0.00  0.00     0.000 HD
ATOM     30   C  NAG B   2      17.605   3.516  45.5190  0.00  0.00     0.000 C
ATOM     31   C  NAG B   2      17.103   2.115  45.7190  0.00  0.00     0.000 C
ATOM     32   O  NAG B   2      17.176   4.443  46.1650  0.00  0.00     0.000 OA
ENDBRANCH 18 30
BRANCH 17 33
ATOM     33  O4  BDP B   3      17.512   5.226  41.8860  0.00  0.00     0.000 O
BRANCH 33 37
ATOM     34  C1  BDP B   3      14.444   6.009  39.0200  0.00  0.00     0.000 C
ATOM     35  C2  BDP B   3      14.438   6.846  40.2930  0.00  0.00     0.000 C
ATOM     36  C3  BDP B   3      15.762   6.817  41.0490  0.00  0.00     0.000 C
ATOM     37  C4  BDP B   3      16.266   5.369  41.1440  0.00  0.00     0.000 C
ATOM     38  C5  BDP B   3      16.366   4.825  39.7060  0.00  0.00     0.000 C
ATOM     39  O5  BDP B   3      15.021   4.716  39.2400  0.00  0.00     0.000 O
ATOM     40   O  BDP B   3      14.068   8.169  39.9000  0.00  0.00     0.000 O
ATOM     42  HD  BDP B   3      13.288   7.794  39.9340  0.00  0.00     0.000 HD
ATOM     42   O  BDP B   3      15.510   7.377  42.3370  0.00  0.00     0.000 O
ATOM     44  HD  BDP B   3      14.730   7.002  42.3710  0.00  0.00     0.000 HD
BRANCH 38 44
ATOM     44   C  BDP B   3      17.050   3.498  39.5930  0.00  0.00     0.000 C
ATOM     45   O  BDP B   3      16.362   2.468  39.7640  0.00  0.00     0.000 OA
ATOM     46   O  BDP B   3      18.273   3.453  39.3350  0.00  0.00     0.000 OA
ENDBRANCH 38 44
BRANCH 34 47
ATOM     47  O3  NAG B   4      13.197   5.349  38.8090  0.00  0.00     0.000 O
BRANCH 47 50
ATOM     48  C1  NAG B   4      12.314   4.958  35.1730  0.00  0.00     0.000 C
ATOM     49  C2  NAG B   4      12.677   5.688  36.4550  0.00  0.00     0.000 C
ATOM     50  C3  NAG B   4      12.916   4.673  37.5660  0.00  0.00     0.000 C
ATOM     51  C4  NAG B   4      11.720   3.752  37.7490  0.00  0.00     0.000 C
ATOM     52  C5  NAG B   4      11.358   3.100  36.4140  0.00  0.00     0.000 C
ATOM     53  O5  NAG B   4      11.179   4.100  35.4020  0.00  0.00     0.000 O
ATOM     54   O  NAG B   4      12.043   2.757  38.7240  0.00  0.00     0.000 O
ATOM     56  HD  NAG B   4      11.195   2.792  38.5520  0.00  0.00     0.000 HD
ATOM     56   C  NAG B   4      10.087   2.267  36.5310  0.00  0.00     0.000 C
ATOM     57   O  NAG B   4       9.006   3.117  36.9380  0.00  0.00     0.000 O
ATOM     59  HD  NAG B   4       8.159   3.152  36.7660  0.00  0.00     0.000 HD
BRANCH 49 61
ATOM     59   N  NAG B   4      13.746   6.597  36.0400  0.00  0.00     0.000 N
ATOM     61  HD  NAG B   4      12.882   6.592  36.0920  0.00  0.00     0.000 HD
ATOM     61   O  NAG B   4      12.891   8.467  36.9740  0.00  0.00     0.000 OA
ATOM     62   C  NAG B   4      13.798   7.886  36.3960  0.00  0.00     0.000 C
ATOM     63   C  NAG B   4      15.069   8.601  36.0600  0.00  0.00     0.000 C
ENDBRANCH 49 61
BRANCH 48 64
ATOM     64  O4  BDP B   5      12.500   5.267  33.7950  0.00  0.00     0.000 O
BRANCH 64 68
ATOM     65  C1  BDP B   5      13.503   9.020  32.2870  0.00  0.00     0.000 C
ATOM     66  C2  BDP B   5      12.050   8.600  32.1160  0.00  0.00     0.000 C
ATOM     67  C3  BDP B   5      11.735   7.449  33.0630  0.00  0.00     0.000 C
ATOM     68  C4  BDP B   5      12.704   6.296  32.8280  0.00  0.00     0.000 C
ATOM     69  C5  BDP B   5      14.158   6.745  32.8960  0.00  0.00     0.000 C
ATOM     70  O5  BDP B   5      14.371   7.898  32.0630  0.00  0.00     0.000 O
ATOM     71   O  BDP B   5      11.191   9.727  32.3480  0.00  0.00     0.000 O
ATOM     73  HD  BDP B   5      10.719  10.434  32.5170  0.00  0.00     0.000 HD
ATOM     73   O  BDP B   5      10.394   6.986  32.8640  0.00  0.00     0.000 O
ATOM     75  HD  BDP B   5       9.922   7.693  33.0330  0.00  0.00     0.000 HD
BRANCH 69 75
ATOM     75   C  BDP B   5      15.027   5.610  32.4170  0.00  0.00     0.000 C
ATOM     76   O  BDP B   5      14.754   5.064  31.3290  0.00  0.00     0.000 OA
ATOM     77   O  BDP B   5      15.993   5.253  33.1160  0.00  0.00     0.000 OA
ENDBRANCH 69 75
BRANCH 65 78
ATOM     78  O3  NAG B   6      14.347   9.585  31.2800  0.00  0.00     0.000 O
BRANCH 78 81
ATOM     79  C1  NAG B   6      17.318  11.895  31.6960  0.00  0.00     0.000 C
ATOM     80  C2  NAG B   6      15.863  11.415  31.8200  0.00  0.00     0.000 C
ATOM     81  C3  NAG B   6      15.734   9.989  31.3100  0.00  0.00     0.000 C
ATOM     82  C4  NAG B   6      16.349   9.851  29.9130  0.00  0.00     0.000 C
ATOM     83  C5  NAG B   6      17.789  10.350  29.9430  0.00  0.00     0.000 C
ATOM     84  O5  NAG B   6      17.763  11.722  30.3390  0.00  0.00     0.000 O
BRANCH 80 87
ATOM     85   N  NAG B   6      15.484  11.647  33.2110  0.00  0.00     0.000 N
ATOM     87  HD  NAG B   6      15.235  12.190  33.8380  0.00  0.00     0.000 HD
ATOM     87   C  NAG B   6      14.264  12.039  33.5990  0.00  0.00     0.000 C
ATOM     88   C  NAG B   6      14.069  12.187  35.0750  0.00  0.00     0.000 C
ATOM     89   O  NAG B   6      13.349  12.254  32.8130  0.00  0.00     0.000 OA
ENDBRANCH 80 87
ATOM     90   O  NAG B   6      19.538   9.240  28.6940  0.00  0.00     0.000 O
ATOM     92  HD  NAG B   6      19.345   9.705  29.3990  0.00  0.00     0.000 HD
ATOM     92   O  NAG B   6      19.538   9.240  28.6940  0.00  0.00     0.000 O
ATOM     94  HD  NAG B   6      19.345   9.705  29.3990  0.00  0.00     0.000 HD
ENDBRANCH 78 81
ENDBRANCH 65 78
ENDBRANCH 64 68
ENDBRANCH 48 64
ENDBRANCH 47 50
ENDBRANCH 34 47
ENDBRANCH 33 37
ENDBRANCH 17 33
ENDBRANCH 16 19
ENDBRANCH 1 16
TORSDOF 16
ENDMDL
MODEL 95
REMARK VINA RESULT:      -4.4     12.609     19.508
ROOT
ATOM      1  C1  BDP B   1      16.118  25.647  31.5740  0.00  0.00     0.000 C
ATOM      2  C2  BDP B   1      16.533  26.898  32.3280  0.00  0.00     0.000 C
ATOM      3  C3  BDP B   1      17.503  26.592  33.4490  0.00  0.00     0.000 C
ATOM      4  C4  BDP B   1      18.125  25.202  33.3710  0.00  0.00     0.000 C
ATOM      5  C5  BDP B   1      17.096  24.110  33.0960  0.00  0.00     0.000 C
ATOM      6  O5  BDP B   1      15.878  24.639  32.5450  0.00  0.00     0.000 O
ATOM      7   O  BDP B   1      17.125  27.837  31.4230  0.00  0.00     0.000 O
ATOM      9  HD  BDP B   1      17.138  28.259  30.6670  0.00  0.00     0.000 HD
ATOM      9   O  BDP B   1      16.836  26.701  34.7170  0.00  0.00     0.000 O
ATOM     11  HD  BDP B   1      16.849  27.123  33.9600  0.00  0.00     0.000 HD
ATOM     11   O  BDP B   1      19.146  25.167  32.3670  0.00  0.00     0.000 O
ATOM     13  HD  BDP B   1      19.159  25.589  31.6110  0.00  0.00     0.000 HD
ENDROOT
BRANCH 5 13
ATOM     13   C  BDP B   1      16.809  23.438  34.3940  0.00  0.00     0.000 C
ATOM     14   O  BDP B   1      15.850  23.857  35.0750  0.00  0.00     0.000 OA
ATOM     15   O  BDP B   1      17.514  22.468  34.7450  0.00  0.00     0.000 OA
ENDBRANCH 5 13
BRANCH 1 16
ATOM     16  O3  NAG B   2      16.246  25.310  30.1940  0.00  0.00     0.000 O
BRANCH 16 19
ATOM     17  C1  NAG B   2      16.728  22.461  27.9800  0.00  0.00     0.000 C
ATOM     18  C2  NAG B   2      16.084  23.083  29.2190  0.00  0.00     0.000 C
ATOM     19  C3  NAG B   2      15.882  24.579  29.0230  0.00  0.00     0.000 C
ATOM     20  C4  NAG B   2      16.668  25.105  27.8190  0.00  0.00     0.000 C
ATOM     21  C5  NAG B   2      18.028  24.431  27.5840  0.00  0.00     0.000 C
ATOM     22  O5  NAG B   2      18.035  23.036  27.9070  0.00  0.00     0.000 O
ATOM     23   O  NAG B   2      15.853  24.972  26.6500  0.00  0.00     0.000 O
ATOM     25  HD  NAG B   2      15.543  24.194  26.8690  0.00  0.00     0.000 HD
ATOM     25   C  NAG B   2      19.125  25.128  28.4010  0.00  0.00     0.000 C
ATOM     26   O  NAG B   2      19.659  26.267  27.7100  0.00  0.00     0.000 O
ATOM     28  HD  NAG B   2      19.348  25.489  27.9290  0.00  0.00     0.000 HD
BRANCH 18 30
ATOM     28   N  NAG B   2      14.643  23.201  29.0050  0.00  0.00     0.000 N
ATOM     30  HD  NAG B   2      13.905  23.394  29.4150  0.00  0.00     0.000 HD
ATOM     30   C  NAG B   2      13.816  22.173  28.7650  0.00  0.00     0.000 C
ATOM     31   C  NAG B   2      12.376  22.554  28.5680  0.00  0.00     0.000 C
ATOM     32   O  NAG B   2      14.181  21.022  28.7140  0.00  0.00     0.000 OA
ENDBRANCH 18 30
BRANCH 17 33
ATOM     33  O4  BDP B   3      17.488  21.426  27.3190  0.00  0.00     0.000 O
BRANCH 33 37
ATOM     34  C1  BDP B   3      16.638  18.825  24.0390  0.00  0.00     0.000 C
ATOM     35  C2  BDP B   3      16.954  18.175  25.3810  0.00  0.00     0.000 C
ATOM     36  C3  BDP B   3      16.827  19.125  26.5660  0.00  0.00     0.000 C
ATOM     37  C4  BDP B   3      17.519  20.456  26.2320  0.00  0.00     0.000 C
ATOM     38  C5  BDP B   3      16.877  20.994  24.9390  0.00  0.00     0.000 C
ATOM     39  O5  BDP B   3      17.283  20.098  23.9040  0.00  0.00     0.000 O
ATOM     40   O  BDP B   3      16.082  17.049  25.4940  0.00  0.00     0.000 O
ATOM     42  HD  BDP B   3      16.701  16.714  24.9890  0.00  0.00     0.000 HD
ATOM     42   O  BDP B   3      17.436  18.475  27.6800  0.00  0.00     0.000 O
ATOM     44  HD  BDP B   3      18.055  18.141  27.1740  0.00  0.00     0.000 HD
BRANCH 38 44
ATOM     44   C  BDP B   3      17.277  22.392  24.5840  0.00  0.00     0.000 C
ATOM     45   O  BDP B   3      16.369  23.239  24.4290  0.00  0.00     0.000 OA
ATOM     46   O  BDP B   3      18.488  22.674  24.4530  0.00  0.00     0.000 OA
ENDBRANCH 38 44
BRANCH 34 47
ATOM     47  O3  NAG B   4      17.493  18.350  23.0010  0.00  0.00     0.000 O
BRANCH 47 50
ATOM     48  C1  NAG B   4      15.678  18.689  19.7240  0.00  0.00     0.000 C
ATOM     49  C2  NAG B   4      15.864  18.346  21.1920  0.00  0.00     0.000 C
ATOM     50  C3  NAG B   4      17.274  18.730  21.6270  0.00  0.00     0.000 C
ATOM     51  C4  NAG B   4      18.328  18.079  20.7460  0.00  0.00     0.000 C
ATOM     52  C5  NAG B   4      18.049  18.401  19.2780  0.00  0.00     0.000 C
ATOM     53  O5  NAG B   4      16.702  18.050  18.9370  0.00  0.00     0.000 O
ATOM     54   O  NAG B   4      19.619  18.559  21.1310  0.00  0.00     0.000 O
ATOM     56  HD  NAG B   4      19.662  17.862  20.6200  0.00  0.00     0.000 HD
ATOM     56   C  NAG B   4      19.012  17.663  18.3560  0.00  0.00     0.000 C
ATOM     57   O  NAG B   4      18.861  16.251  18.5550  0.00  0.00     0.000 O
ATOM     59  HD  NAG B   4      18.904  15.553  18.0440  0.00  0.00     0.000 HD
BRANCH 49 61
ATOM     59   N  NAG B   4      15.258  17.016  21.1080  0.00  0.00     0.000 N
ATOM     61  HD  NAG B   4      15.619  17.529  21.7050  0.00  0.00     0.000 HD
ATOM     61   O  NAG B   4      14.071  17.138  23.0260  0.00  0.00     0.000 OA
ATOM     62   C  NAG B   4      14.362  16.558  21.9900  0.00  0.00     0.000 C
ATOM     63   C  NAG B   4      13.696  15.269  21.6250  0.00  0.00     0.000 C
ENDBRANCH 49 61
BRANCH 48 64
ATOM     64  O4  BDP B   5      14.539  19.056  18.9510  0.00  0.00     0.000 O
BRANCH 64 68
ATOM     65  C1  BDP B   5      11.126  20.778  17.2900  0.00  0.00     0.000 C
ATOM     66  C2  BDP B   5      12.405  21.597  17.1850  0.00  0.00     0.000 C
ATOM     67  C3  BDP B   5      13.611  20.698  17.4260  0.00  0.00     0.000 C
ATOM     68  C4  BDP B   5      13.481  19.996  18.7730  0.00  0.00     0.000 C
ATOM     69  C5  BDP B   5      12.152  19.264  18.9130  0.00  0.00     0.000 C
ATOM     70  O5  BDP B   5      11.058  20.133  18.5720  0.00  0.00     0.000 O
ATOM     71   O  BDP B   5      12.466  22.232  15.8980  0.00  0.00     0.000 O
ATOM     73  HD  BDP B   5      12.463  22.575  15.1030  0.00  0.00     0.000 HD
ATOM     73   O  BDP B   5      14.821  21.465  17.4080  0.00  0.00     0.000 O
ATOM     75  HD  BDP B   5      14.818  21.807  16.6130  0.00  0.00     0.000 HD
BRANCH 69 75
ATOM     75   C  BDP B   5      12.009  18.813  20.3450  0.00  0.00     0.000 C
ATOM     76   O  BDP B   5      11.446  17.724  20.5770  0.00  0.00     0.000 OA
ATOM     77   O  BDP B   5      12.458  19.536  21.2530  0.00  0.00     0.000 OA
ENDBRANCH 69 75
BRANCH 65 78
ATOM     78  O3  NAG B   6       9.846  21.253  17.7140  0.00  0.00     0.000 O
BRANCH 78 81
ATOM     79  C1  NAG B   6       6.160  21.491  16.8840  0.00  0.00     0.000 C
ATOM     80  C2  NAG B   6       7.615  21.961  17.0370  0.00  0.00     0.000 C
ATOM     81  C3  NAG B   6       8.509  20.793  17.4200  0.00  0.00     0.000 C
ATOM     82  C4  NAG B   6       7.937  20.041  18.6260  0.00  0.00     0.000 C
ATOM     83  C5  NAG B   6       6.501  19.626  18.3300  0.00  0.00     0.000 C
ATOM     84  O5  NAG B   6       5.749  20.815  18.0860  0.00  0.00     0.000 O
BRANCH 80 87
ATOM     85   N  NAG B   6       8.542  23.078  16.8740  0.00  0.00     0.000 N
ATOM     87  HD  NAG B   6       9.257  23.411  16.5170  0.00  0.00     0.000 HD
ATOM     87   C  NAG B   6       8.721  23.740  15.7240  0.00  0.00     0.000 C
ATOM     88   C  NAG B   6       9.692  24.877  15.7750  0.00  0.00     0.000 C
ATOM     89   O  NAG B   6       8.128  23.458  14.6900  0.00  0.00     0.000 OA
ENDBRANCH 80 87
ATOM     90   O  NAG B   6       5.629  17.487  19.0460  0.00  0.00     0.000 O
ATOM     92  HD  NAG B   6       5.588  18.114  18.4510  0.00  0.00     0.000 HD
ATOM     92   O  NAG B   6       5.629  17.487  19.0460  0.00  0.00     0.000 O
ATOM     94  HD  NAG B   6       5.588  18.114  18.4510  0.00  0.00     0.000 HD
ENDBRANCH 78 81
ENDBRANCH 65 78
ENDBRANCH 64 68
ENDBRANCH 48 64
ENDBRANCH 47 50
ENDBRANCH 34 47
ENDBRANCH 33 37
ENDBRANCH 17 33
ENDBRANCH 16 19
ENDBRANCH 1 16
TORSDOF 16
ENDMDL
MODEL 96
REMARK VINA RESULT:      -4.2      8.305     15.492
ROOT
ATOM      1  C1  BDP B   1      31.809  14.800  26.5870  0.00  0.00     0.000 C
ATOM      2  C2  BDP B   1      33.148  14.177  26.2360  0.00  0.00     0.000 C
ATOM      3  C3  BDP B   1      34.311  15.051  26.6540  0.00  0.00     0.000 C
ATOM      4  C4  BDP B   1      33.934  16.163  27.6270  0.00  0.00     0.000 C
ATOM      5  C5  BDP B   1      32.681  16.922  27.2000  0.00  0.00     0.000 C
ATOM      6  O5  BDP B   1      31.893  16.179  26.2550  0.00  0.00     0.000 O
ATOM      7   O  BDP B   1      33.264  12.892  26.8570  0.00  0.00     0.000 O
ATOM      9  HD  BDP B   1      32.935  12.122  27.0760  0.00  0.00     0.000 HD
ATOM      9   O  BDP B   1      34.902  15.666  25.4980  0.00  0.00     0.000 O
ATOM     11  HD  BDP B   1      34.573  14.895  25.7170  0.00  0.00     0.000 HD
ATOM     11   O  BDP B   1      33.752  15.632  28.9450  0.00  0.00     0.000 O
ATOM     13  HD  BDP B   1      33.423  14.861  29.1640  0.00  0.00     0.000 HD
ENDROOT
BRANCH 5 13
ATOM     13   C  BDP B   1      33.129  18.201  26.5850  0.00  0.00     0.000 C
ATOM     14   O  BDP B   1      32.261  18.965  26.1150  0.00  0.00     0.000 OA
ATOM     15   O  BDP B   1      34.347  18.480  26.5810  0.00  0.00     0.000 OA
ENDBRANCH 5 13
BRANCH 1 16
ATOM     16  O3  NAG B   2      30.746  14.315  27.4040  0.00  0.00     0.000 O
BRANCH 16 19
ATOM     17  C1  NAG B   2      28.267  11.887  26.2990  0.00  0.00     0.000 C
ATOM     18  C2  NAG B   2      29.687  12.216  26.7620  0.00  0.00     0.000 C
ATOM     19  C3  NAG B   2      29.680  13.412  27.7030  0.00  0.00     0.000 C
ATOM     20  C4  NAG B   2      28.343  14.158  27.6620  0.00  0.00     0.000 C
ATOM     21  C5  NAG B   2      27.664  14.203  26.2860  0.00  0.00     0.000 C
ATOM     22  O5  NAG B   2      27.858  13.011  25.5160  0.00  0.00     0.000 O
ATOM     23   O  NAG B   2      27.461  13.563  28.6190  0.00  0.00     0.000 O
ATOM     25  HD  NAG B   2      27.699  12.750  28.4380  0.00  0.00     0.000 HD
ATOM     25   C  NAG B   2      28.173  15.400  25.4700  0.00  0.00     0.000 C
ATOM     26   O  NAG B   2      27.448  16.599  25.7790  0.00  0.00     0.000 O
ATOM     28  HD  NAG B   2      27.687  15.787  25.5980  0.00  0.00     0.000 HD
BRANCH 18 30
ATOM     28   N  NAG B   2      29.625  11.596  28.0840  0.00  0.00     0.000 N
ATOM     30  HD  NAG B   2      30.033  11.573  28.8480  0.00  0.00     0.000 HD
ATOM     30   C  NAG B   2      29.852  10.299  28.3360  0.00  0.00     0.000 C
ATOM     31   C  NAG B   2      29.717   9.901  29.7780  0.00  0.00     0.000 C
ATOM     32   O  NAG B   2      30.150   9.497  27.4810  0.00  0.00     0.000 OA
ENDBRANCH 18 30
BRANCH 17 33
ATOM     33  O4  BDP B   3      27.331  11.297  25.3720  0.00  0.00     0.000 O
BRANCH 33 37
ATOM     34  C1  BDP B   3      23.875   9.108  24.1420  0.00  0.00     0.000 C
ATOM     35  C2  BDP B   3      23.841   9.745  25.5260  0.00  0.00     0.000 C
ATOM     36  C3  BDP B   3      24.890  10.833  25.7250  0.00  0.00     0.000 C
ATOM     37  C4  BDP B   3      26.245  10.341  25.1940  0.00  0.00     0.000 C
ATOM     38  C5  BDP B   3      26.042   9.943  23.7190  0.00  0.00     0.000 C
ATOM     39  O5  BDP B   3      25.212   8.781  23.7440  0.00  0.00     0.000 O
ATOM     40   O  BDP B   3      22.511  10.236  25.7070  0.00  0.00     0.000 O
ATOM     42  HD  BDP B   3      22.394   9.399  25.8980  0.00  0.00     0.000 HD
ATOM     42   O  BDP B   3      24.936  11.108  27.1240  0.00  0.00     0.000 O
ATOM     44  HD  BDP B   3      24.819  10.271  27.3140  0.00  0.00     0.000 HD
BRANCH 38 44
ATOM     44   C  BDP B   3      27.308   9.646  22.9780  0.00  0.00     0.000 C
ATOM     45   O  BDP B   3      27.990   8.667  23.3540  0.00  0.00     0.000 OA
ATOM     46   O  BDP B   3      27.647  10.371  22.0180  0.00  0.00     0.000 OA
ENDBRANCH 38 44
BRANCH 34 47
ATOM     47  O3  NAG B   4      23.612   7.707  24.1920  0.00  0.00     0.000 O
BRANCH 47 50
ATOM     48  C1  NAG B   4      21.561   6.834  21.1620  0.00  0.00     0.000 C
ATOM     49  C2  NAG B   4      22.005   7.650  22.3640  0.00  0.00     0.000 C
ATOM     50  C3  NAG B   4      23.216   6.984  23.0090  0.00  0.00     0.000 C
ATOM     51  C4  NAG B   4      22.931   5.535  23.3710  0.00  0.00     0.000 C
ATOM     52  C5  NAG B   4      22.422   4.783  22.1410  0.00  0.00     0.000 C
ATOM     53  O5  NAG B   4      21.307   5.472  21.5600  0.00  0.00     0.000 O
ATOM     54   O  NAG B   4      24.130   4.936  23.8690  0.00  0.00     0.000 O
ATOM     56  HD  NAG B   4      23.425   4.460  24.0340  0.00  0.00     0.000 HD
ATOM     56   C  NAG B   4      22.007   3.360  22.4950  0.00  0.00     0.000 C
ATOM     57   O  NAG B   4      20.960   3.407  23.4740  0.00  0.00     0.000 O
ATOM     59  HD  NAG B   4      20.255   2.931  23.6380  0.00  0.00     0.000 HD
BRANCH 49 61
ATOM     59   N  NAG B   4      20.705   7.816  23.0150  0.00  0.00     0.000 N
ATOM     61  HD  NAG B   4      21.525   8.071  23.1270  0.00  0.00     0.000 HD
ATOM     61   O  NAG B   4      20.907  10.019  23.4680  0.00  0.00     0.000 OA
ATOM     62   C  NAG B   4      20.240   8.995  23.4430  0.00  0.00     0.000 C
ATOM     63   C  NAG B   4      18.811   9.005  23.8860  0.00  0.00     0.000 C
ENDBRANCH 49 61
BRANCH 48 64
ATOM     64  O4  BDP B   5      20.914   7.179  19.9410  0.00  0.00     0.000 O
BRANCH 64 68
ATOM     65  C1  BDP B   5      21.582  10.702  17.8170  0.00  0.00     0.000 C
ATOM     66  C2  BDP B   5      20.142  10.440  18.2370  0.00  0.00     0.000 C
ATOM     67  C3  BDP B   5      20.114   9.388  19.3390  0.00  0.00     0.000 C
ATOM     68  C4  BDP B   5      20.823   8.121  18.8740  0.00  0.00     0.000 C
ATOM     69  C5  BDP B   5      22.227   8.406  18.3560  0.00  0.00     0.000 C
ATOM     70  O5  BDP B   5      22.205   9.478  17.3970  0.00  0.00     0.000 O
ATOM     71   O  BDP B   5      19.532  11.668  18.6610  0.00  0.00     0.000 O
ATOM     73  HD  BDP B   5      19.220  12.432  18.9240  0.00  0.00     0.000 HD
ATOM     73   O  BDP B   5      18.763   9.070  19.6950  0.00  0.00     0.000 O
ATOM     75  HD  BDP B   5      18.451   9.833  19.9580  0.00  0.00     0.000 HD
BRANCH 69 75
ATOM     75   C  BDP B   5      22.753   7.154  17.7000  0.00  0.00     0.000 C
ATOM     76   O  BDP B   5      23.498   6.400  18.3570  0.00  0.00     0.000 OA
ATOM     77   O  BDP B   5      22.426   6.906  16.5240  0.00  0.00     0.000 OA
ENDBRANCH 69 75
BRANCH 65 78
ATOM     78  O3  NAG B   6      22.028  11.108  16.5200  0.00  0.00     0.000 O
BRANCH 78 81
ATOM     79  C1  NAG B   6      23.858  14.074  15.0410  0.00  0.00     0.000 C
ATOM     80  C2  NAG B   6      22.682  13.282  15.6340  0.00  0.00     0.000 C
ATOM     81  C3  NAG B   6      23.152  11.914  16.1040  0.00  0.00     0.000 C
ATOM     82  C4  NAG B   6      23.929  11.195  14.9970  0.00  0.00     0.000 C
ATOM     83  C5  NAG B   6      25.067  12.088  14.5150  0.00  0.00     0.000 C
ATOM     84  O5  NAG B   6      24.489  13.292  14.0110  0.00  0.00     0.000 O
BRANCH 80 87
ATOM     85   N  NAG B   6      22.087  14.157  16.6400  0.00  0.00     0.000 N
ATOM     87  HD  NAG B   6      21.580  14.831  16.8410  0.00  0.00     0.000 HD
ATOM     87   C  NAG B   6      20.774  14.223  16.8930  0.00  0.00     0.000 C
ATOM     88   C  NAG B   6      20.369  15.158  17.9870  0.00  0.00     0.000 C
ATOM     89   O  NAG B   6      19.942  13.556  16.2880  0.00  0.00     0.000 OA
ENDBRANCH 80 87
ATOM     90   O  NAG B   6      27.234  11.177  13.9440  0.00  0.00     0.000 O
ATOM     92  HD  NAG B   6      26.803  11.863  14.2500  0.00  0.00     0.000 HD
ATOM     92   O  NAG B   6      27.234  11.177  13.9440  0.00  0.00     0.000 O
ATOM     94  HD  NAG B   6      26.803  11.863  14.2500  0.00  0.00     0.000 HD
ENDBRANCH 78 81
ENDBRANCH 65 78
ENDBRANCH 64 68
ENDBRANCH 48 64
ENDBRANCH 47 50
ENDBRANCH 34 47
ENDBRANCH 33 37
ENDBRANCH 17 33
ENDBRANCH 16 19
ENDBRANCH 1 16
TORSDOF 16
ENDMDL
MODEL 97
REMARK VINA RESULT:      -4.2     13.256     19.875
ROOT
ATOM      1  C1  BDP B   1      16.828  25.709  32.9110  0.00  0.00     0.000 C
ATOM      2  C2  BDP B   1      17.422  26.908  33.6280  0.00  0.00     0.000 C
ATOM      3  C3  BDP B   1      18.291  26.500  34.7990  0.00  0.00     0.000 C
ATOM      4  C4  BDP B   1      18.675  25.025  34.8020  0.00  0.00     0.000 C
ATOM      5  C5  BDP B   1      17.488  24.105  34.5330  0.00  0.00     0.000 C
ATOM      6  O5  BDP B   1      16.394  24.800  33.9120  0.00  0.00     0.000 O
ATOM      7   O  BDP B   1      18.190  27.693  32.7100  0.00  0.00     0.000 O
ATOM      9  HD  BDP B   1      18.296  28.071  31.9380  0.00  0.00     0.000 HD
ATOM      9   O  BDP B   1      17.612  26.777  36.0330  0.00  0.00     0.000 O
ATOM     11  HD  BDP B   1      17.718  27.155  35.2620  0.00  0.00     0.000 HD
ATOM     11   O  BDP B   1      19.708  24.775  33.8410  0.00  0.00     0.000 O
ATOM     13  HD  BDP B   1      19.815  25.153  33.0690  0.00  0.00     0.000 HD
ENDROOT
BRANCH 5 13
ATOM     13   C  BDP B   1      17.053  23.551  35.8440  0.00  0.00     0.000 C
ATOM     14   O  BDP B   1      15.861  23.705  36.1830  0.00  0.00     0.000 OA
ATOM     15   O  BDP B   1      17.880  22.932  36.5470  0.00  0.00     0.000 OA
ENDBRANCH 5 13
BRANCH 1 16
ATOM     16  O3  NAG B   2      16.943  25.291  31.5520  0.00  0.00     0.000 O
BRANCH 16 19
ATOM     17  C1  NAG B   2      14.632  23.216  29.6530  0.00  0.00     0.000 C
ATOM     18  C2  NAG B   2      14.932  24.499  30.4290  0.00  0.00     0.000 C
ATOM     19  C3  NAG B   2      16.401  24.872  30.2990  0.00  0.00     0.000 C
ATOM     20  C4  NAG B   2      17.233  23.716  29.7370  0.00  0.00     0.000 C
ATOM     21  C5  NAG B   2      16.786  22.316  30.1800  0.00  0.00     0.000 C
ATOM     22  O5  NAG B   2      15.367  22.190  30.3250  0.00  0.00     0.000 O
ATOM     23   O  NAG B   2      17.219  23.799  28.3080  0.00  0.00     0.000 O
ATOM     25  HD  NAG B   2      16.382  24.014  28.2580  0.00  0.00     0.000 HD
ATOM     25   C  NAG B   2      17.451  21.932  31.5100  0.00  0.00     0.000 C
ATOM     26   O  NAG B   2      18.754  21.367  31.3100  0.00  0.00     0.000 O
ATOM     28  HD  NAG B   2      17.916  21.582  31.2600  0.00  0.00     0.000 HD
BRANCH 18 30
ATOM     28   N  NAG B   2      14.229  24.787  29.1790  0.00  0.00     0.000 N
ATOM     30  HD  NAG B   2      14.338  24.795  28.3200  0.00  0.00     0.000 HD
ATOM     30   C  NAG B   2      13.850  26.008  28.7770  0.00  0.00     0.000 C
ATOM     31   C  NAG B   2      13.132  26.044  27.4570  0.00  0.00     0.000 C
ATOM     32   O  NAG B   2      14.065  27.016  29.4090  0.00  0.00     0.000 OA
ENDBRANCH 18 30
BRANCH 17 33
ATOM     33  O4  BDP B   3      13.838  22.039  29.3890  0.00  0.00     0.000 O
BRANCH 33 37
ATOM     34  C1  BDP B   3      12.016  20.101  26.0480  0.00  0.00     0.000 C
ATOM     35  C2  BDP B   3      11.485  19.749  27.4320  0.00  0.00     0.000 C
ATOM     36  C3  BDP B   3      11.868  20.759  28.5080  0.00  0.00     0.000 C
ATOM     37  C4  BDP B   3      13.359  21.105  28.3770  0.00  0.00     0.000 C
ATOM     38  C5  BDP B   3      13.585  21.619  26.9420  0.00  0.00     0.000 C
ATOM     39  O5  BDP B   3      13.395  20.487  26.0930  0.00  0.00     0.000 O
ATOM     40   O  BDP B   3      10.069  19.615  27.2950  0.00  0.00     0.000 O
ATOM     42  HD  BDP B   3      10.326  18.841  27.0050  0.00  0.00     0.000 HD
ATOM     42   O  BDP B   3      11.573  20.151  29.7640  0.00  0.00     0.000 O
ATOM     44  HD  BDP B   3      11.830  19.376  29.4750  0.00  0.00     0.000 HD
BRANCH 38 44
ATOM     44   C  BDP B   3      14.939  22.210  26.7030  0.00  0.00     0.000 C
ATOM     45   O  BDP B   3      15.936  21.470  26.8570  0.00  0.00     0.000 OA
ATOM     46   O  BDP B   3      15.039  23.409  26.3620  0.00  0.00     0.000 OA
ENDBRANCH 38 44
BRANCH 34 47
ATOM     47  O3  NAG B   4      12.428  18.943  25.3230  0.00  0.00     0.000 O
BRANCH 47 50
ATOM     48  C1  NAG B   4      10.798  18.181  22.0200  0.00  0.00     0.000 C
ATOM     49  C2  NAG B   4      10.907  18.314  23.5290  0.00  0.00     0.000 C
ATOM     50  C3  NAG B   4      12.279  18.871  23.8910  0.00  0.00     0.000 C
ATOM     51  C4  NAG B   4      13.398  18.025  23.3050  0.00  0.00     0.000 C
ATOM     52  C5  NAG B   4      13.197  17.868  21.7980  0.00  0.00     0.000 C
ATOM     53  O5  NAG B   4      11.881  17.374  21.5190  0.00  0.00     0.000 O
ATOM     54   O  NAG B   4      14.652  18.654  23.5840  0.00  0.00     0.000 O
ATOM     56  HD  NAG B   4      14.742  17.836  23.3160  0.00  0.00     0.000 HD
ATOM     56   C  NAG B   4      14.230  16.923  21.1970  0.00  0.00     0.000 C
ATOM     57   O  NAG B   4      14.103  15.636  21.8160  0.00  0.00     0.000 O
ATOM     59  HD  NAG B   4      14.193  14.817  21.5480  0.00  0.00     0.000 HD
BRANCH 49 61
ATOM     59   N  NAG B   4      10.184  17.054  23.7070  0.00  0.00     0.000 N
ATOM     61  HD  NAG B   4      10.598  17.640  24.1920  0.00  0.00     0.000 HD
ATOM     61   O  NAG B   4       9.041  17.655  25.5600  0.00  0.00     0.000 OA
ATOM     62   C  NAG B   4       9.263  16.860  24.6590  0.00  0.00     0.000 C
ATOM     63   C  NAG B   4       8.480  15.590  24.5520  0.00  0.00     0.000 C
ENDBRANCH 49 61
BRANCH 48 64
ATOM     64  O4  BDP B   5       9.697  18.245  21.1180  0.00  0.00     0.000 O
BRANCH 64 68
ATOM     65  C1  BDP B   5       6.579  19.324  18.5710  0.00  0.00     0.000 C
ATOM     66  C2  BDP B   5       7.912  20.017  18.3250  0.00  0.00     0.000 C
ATOM     67  C3  BDP B   5       9.029  19.239  19.0090  0.00  0.00     0.000 C
ATOM     68  C4  BDP B   5       8.723  19.081  20.4950  0.00  0.00     0.000 C
ATOM     69  C5  BDP B   5       7.343  18.483  20.7360  0.00  0.00     0.000 C
ATOM     70  O5  BDP B   5       6.345  19.193  19.9820  0.00  0.00     0.000 O
ATOM     71   O  BDP B   5       8.139  20.137  16.9120  0.00  0.00     0.000 O
ATOM     73  HD  BDP B   5       8.234  20.166  16.0520  0.00  0.00     0.000 HD
ATOM     73   O  BDP B   5      10.281  19.917  18.8550  0.00  0.00     0.000 O
ATOM     75  HD  BDP B   5      10.377  19.945  17.9950  0.00  0.00     0.000 HD
BRANCH 69 75
ATOM     75   C  BDP B   5       7.032  18.588  22.2080  0.00  0.00     0.000 C
ATOM     76   O  BDP B   5       7.467  19.569  22.8440  0.00  0.00     0.000 OA
ATOM     77   O  BDP B   5       6.348  17.698  22.7450  0.00  0.00     0.000 OA
ENDBRANCH 69 75
BRANCH 65 78
ATOM     78  O3  NAG B   6       5.297  19.952  18.6470  0.00  0.00     0.000 O
BRANCH 78 81
ATOM     79  C1  NAG B   6       1.990  19.893  16.8040  0.00  0.00     0.000 C
ATOM     80  C2  NAG B   6       3.450  20.277  17.0900  0.00  0.00     0.000 C
ATOM     81  C3  NAG B   6       3.980  19.487  18.2760  0.00  0.00     0.000 C
ATOM     82  C4  NAG B   6       3.030  19.597  19.4730  0.00  0.00     0.000 C
ATOM     83  C5  NAG B   6       1.629  19.174  19.0480  0.00  0.00     0.000 C
ATOM     84  O5  NAG B   6       1.211  20.052  18.0030  0.00  0.00     0.000 O
BRANCH 80 87
ATOM     85   N  NAG B   6       4.177  21.243  16.2710  0.00  0.00     0.000 N
ATOM     87  HD  NAG B   6       4.916  21.647  16.0690  0.00  0.00     0.000 HD
ATOM     87   C  NAG B   6       5.150  20.914  15.4120  0.00  0.00     0.000 C
ATOM     88   C  NAG B   6       5.746  22.049  14.6410  0.00  0.00     0.000 C
ATOM     89   O  NAG B   6       5.532  19.762  15.2440  0.00  0.00     0.000 OA
ENDBRANCH 80 87
ATOM     90   O  NAG B   6       0.198  17.888  20.5130  0.00  0.00     0.000 O
ATOM     92  HD  NAG B   6       0.412  18.062  19.6920  0.00  0.00     0.000 HD
ATOM     92   O  NAG B   6       0.198  17.888  20.5130  0.00  0.00     0.000 O
ATOM     94  HD  NAG B   6       0.412  18.062  19.6920  0.00  0.00     0.000 HD
ENDBRANCH 78 81
ENDBRANCH 65 78
ENDBRANCH 64 68
ENDBRANCH 48 64
ENDBRANCH 47 50
ENDBRANCH 34 47
ENDBRANCH 33 37
ENDBRANCH 17 33
ENDBRANCH 16 19
ENDBRANCH 1 16
TORSDOF 16
ENDMDL
MODEL 98
REMARK VINA RESULT:      -4.2      6.944     10.672
ROOT
ATOM      1  C1  BDP B   1      15.964  18.668  26.7690  0.00  0.00     0.000 C
ATOM      2  C2  BDP B   1      15.221  17.838  25.7370  0.00  0.00     0.000 C
ATOM      3  C3  BDP B   1      16.150  17.282  24.6790  0.00  0.00     0.000 C
ATOM      4  C4  BDP B   1      17.628  17.357  25.0460  0.00  0.00     0.000 C
ATOM      5  C5  BDP B   1      18.029  18.721  25.5990  0.00  0.00     0.000 C
ATOM      6  O5  BDP B   1      16.895  19.474  26.0620  0.00  0.00     0.000 O
ATOM      7   O  BDP B   1      14.529  16.764  26.3820  0.00  0.00     0.000 O
ATOM      9  HD  BDP B   1      14.034  16.455  27.0220  0.00  0.00     0.000 HD
ATOM      9   O  BDP B   1      15.970  17.995  23.4450  0.00  0.00     0.000 O
ATOM     11  HD  BDP B   1      15.475  17.686  24.0850  0.00  0.00     0.000 HD
ATOM     11   O  BDP B   1      17.960  16.335  25.9930  0.00  0.00     0.000 O
ATOM     13  HD  BDP B   1      17.465  16.026  26.6330  0.00  0.00     0.000 HD
ENDROOT
BRANCH 5 13
ATOM     13   C  BDP B   1      18.708  19.460  24.4990  0.00  0.00     0.000 C
ATOM     14   O  BDP B   1      19.598  18.869  23.8530  0.00  0.00     0.000 OA
ATOM     15   O  BDP B   1      18.351  20.630  24.2420  0.00  0.00     0.000 OA
ENDBRANCH 5 13
BRANCH 1 16
ATOM     16  O3  NAG B   2      16.063  18.516  28.1840  0.00  0.00     0.000 O
BRANCH 16 19
ATOM     17  C1  NAG B   2      15.700  15.414  30.0560  0.00  0.00     0.000 C
ATOM     18  C2  NAG B   2      16.465  16.274  29.0500  0.00  0.00     0.000 C
ATOM     19  C3  NAG B   2      16.294  17.752  29.3690  0.00  0.00     0.000 C
ATOM     20  C4  NAG B   2      15.155  17.989  30.3650  0.00  0.00     0.000 C
ATOM     21  C5  NAG B   2      13.954  17.044  30.2190  0.00  0.00     0.000 C
ATOM     22  O5  NAG B   2      14.320  15.714  29.8320  0.00  0.00     0.000 O
ATOM     23   O  NAG B   2      15.686  17.897  31.6910  0.00  0.00     0.000 O
ATOM     25  HD  NAG B   2      16.197  17.221  31.5150  0.00  0.00     0.000 HD
ATOM     25   C  NAG B   2      12.954  17.595  29.1940  0.00  0.00     0.000 C
ATOM     26   O  NAG B   2      12.044  18.531  29.7890  0.00  0.00     0.000 O
ATOM     28  HD  NAG B   2      12.556  17.855  29.6130  0.00  0.00     0.000 HD
BRANCH 18 30
ATOM     28   N  NAG B   2      17.754  15.584  29.0820  0.00  0.00     0.000 N
ATOM     30  HD  NAG B   2      18.110  14.806  29.2200  0.00  0.00     0.000 HD
ATOM     30   C  NAG B   2      18.707  15.779  30.0050  0.00  0.00     0.000 C
ATOM     31   C  NAG B   2      19.949  14.956  29.8150  0.00  0.00     0.000 C
ATOM     32   O  NAG B   2      18.590  16.549  30.9300  0.00  0.00     0.000 OA
ENDBRANCH 18 30
BRANCH 17 33
ATOM     33  O4  BDP B   3      15.045  14.189  30.4510  0.00  0.00     0.000 O
BRANCH 33 37
ATOM     34  C1  BDP B   3      15.857  10.056  31.1570  0.00  0.00     0.000 C
ATOM     35  C2  BDP B   3      16.315  10.638  29.8250  0.00  0.00     0.000 C
ATOM     36  C3  BDP B   3      16.380  12.161  29.8150  0.00  0.00     0.000 C
ATOM     37  C4  BDP B   3      15.101  12.732  30.4470  0.00  0.00     0.000 C
ATOM     38  C5  BDP B   3      14.982  12.131  31.8610  0.00  0.00     0.000 C
ATOM     39  O5  BDP B   3      14.708  10.743  31.6670  0.00  0.00     0.000 O
ATOM     40   O  BDP B   3      17.583  10.041  29.5430  0.00  0.00     0.000 O
ATOM     42  HD  BDP B   3      17.052   9.408  29.2820  0.00  0.00     0.000 HD
ATOM     42   O  BDP B   3      16.520  12.556  28.4520  0.00  0.00     0.000 O
ATOM     44  HD  BDP B   3      15.990  11.924  28.1910  0.00  0.00     0.000 HD
BRANCH 38 44
ATOM     44   C  BDP B   3      13.910  12.745  32.7060  0.00  0.00     0.000 C
ATOM     45   O  BDP B   3      14.092  13.909  33.1270  0.00  0.00     0.000 OA
ATOM     46   O  BDP B   3      12.877  12.091  32.9680  0.00  0.00     0.000 OA
ENDBRANCH 38 44
BRANCH 34 47
ATOM     47  O3  NAG B   4      15.020   8.914  30.9800  0.00  0.00     0.000 O
BRANCH 47 50
ATOM     48  C1  NAG B   4      14.119   7.249  34.2310  0.00  0.00     0.000 C
ATOM     49  C2  NAG B   4      15.027   7.806  33.1480  0.00  0.00     0.000 C
ATOM     50  C3  NAG B   4      14.179   8.438  32.0510  0.00  0.00     0.000 C
ATOM     51  C4  NAG B   4      13.159   7.456  31.4970  0.00  0.00     0.000 C
ATOM     52  C5  NAG B   4      12.323   6.876  32.6380  0.00  0.00     0.000 C
ATOM     53  O5  NAG B   4      13.174   6.328  33.6520  0.00  0.00     0.000 O
ATOM     54   O  NAG B   4      12.325   8.133  30.5530  0.00  0.00     0.000 O
ATOM     56  HD  NAG B   4      12.247   7.272  30.5090  0.00  0.00     0.000 HD
ATOM     56   C  NAG B   4      11.374   5.795  32.1350  0.00  0.00     0.000 C
ATOM     57   O  NAG B   4      12.141   4.738  31.5420  0.00  0.00     0.000 O
ATOM     59  HD  NAG B   4      12.063   3.877  31.4980  0.00  0.00     0.000 HD
BRANCH 49 61
ATOM     59   N  NAG B   4      15.958   6.870  33.7800  0.00  0.00     0.000 N
ATOM     61  HD  NAG B   4      15.845   7.257  33.0130  0.00  0.00     0.000 HD
ATOM     61   O  NAG B   4      17.854   7.761  32.9350  0.00  0.00     0.000 OA
ATOM     62   C  NAG B   4      17.289   6.972  33.6780  0.00  0.00     0.000 C
ATOM     63   C  NAG B   4      18.077   6.059  34.5620  0.00  0.00     0.000 C
ENDBRANCH 49 61
BRANCH 48 64
ATOM     64  O4  BDP B   5      14.286   7.057  35.6320  0.00  0.00     0.000 O
BRANCH 64 68
ATOM     65  C1  BDP B   5      12.950   7.875  39.4950  0.00  0.00     0.000 C
ATOM     66  C2  BDP B   5      12.896   9.036  38.5100  0.00  0.00     0.000 C
ATOM     67  C3  BDP B   5      12.991   8.504  37.0860  0.00  0.00     0.000 C
ATOM     68  C4  BDP B   5      14.253   7.664  36.9230  0.00  0.00     0.000 C
ATOM     69  C5  BDP B   5      14.354   6.569  37.9770  0.00  0.00     0.000 C
ATOM     70  O5  BDP B   5      14.151   7.113  39.2930  0.00  0.00     0.000 O
ATOM     71   O  BDP B   5      11.689   9.786  38.7170  0.00  0.00     0.000 O
ATOM     73  HD  BDP B   5      10.938  10.190  38.8700  0.00  0.00     0.000 HD
ATOM     73   O  BDP B   5      13.020   9.586  36.1470  0.00  0.00     0.000 O
ATOM     75  HD  BDP B   5      12.269   9.990  36.3000  0.00  0.00     0.000 HD
BRANCH 69 75
ATOM     75   C  BDP B   5      15.728   5.955  37.8930  0.00  0.00     0.000 C
ATOM     76   O  BDP B   5      15.829   4.749  37.5890  0.00  0.00     0.000 OA
ATOM     77   O  BDP B   5      16.722   6.668  38.1230  0.00  0.00     0.000 OA
ENDBRANCH 69 75
BRANCH 65 78
ATOM     78  O3  NAG B   6      13.470   7.915  40.8270  0.00  0.00     0.000 O
BRANCH 78 81
ATOM     79  C1  NAG B   6      12.250   7.529  44.3900  0.00  0.00     0.000 C
ATOM     80  C2  NAG B   6      12.530   8.233  43.0530  0.00  0.00     0.000 C
ATOM     81  C3  NAG B   6      13.060   7.237  42.0340  0.00  0.00     0.000 C
ATOM     82  C4  NAG B   6      14.235   6.440  42.6100  0.00  0.00     0.000 C
ATOM     83  C5  NAG B   6      13.811   5.789  43.9220  0.00  0.00     0.000 C
ATOM     84  O5  NAG B   6      13.433   6.834  44.8200  0.00  0.00     0.000 O
BRANCH 80 87
ATOM     85   N  NAG B   6      11.298   8.961  42.7610  0.00  0.00     0.000 N
ATOM     87  HD  NAG B   6      10.797   9.658  42.8720  0.00  0.00     0.000 HD
ATOM     87   C  NAG B   6      11.255  10.125  42.1010  0.00  0.00     0.000 C
ATOM     88   C  NAG B   6       9.889  10.691  41.8740  0.00  0.00     0.000 C
ATOM     89   O  NAG B   6      12.257  10.697  41.6880  0.00  0.00     0.000 OA
ENDBRANCH 80 87
ATOM     90   O  NAG B   6      14.537   3.561  44.5210  0.00  0.00     0.000 O
ATOM     92  HD  NAG B   6      13.910   4.155  44.5940  0.00  0.00     0.000 HD
ATOM     92   O  NAG B   6      14.537   3.561  44.5210  0.00  0.00     0.000 O
ATOM     94  HD  NAG B   6      13.910   4.155  44.5940  0.00  0.00     0.000 HD
ENDBRANCH 78 81
ENDBRANCH 65 78
ENDBRANCH 64 68
ENDBRANCH 48 64
ENDBRANCH 47 50
ENDBRANCH 34 47
ENDBRANCH 33 37
ENDBRANCH 17 33
ENDBRANCH 16 19
ENDBRANCH 1 16
TORSDOF 16
ENDMDL
MODEL 99
REMARK VINA RESULT:      -4.2     20.754     30.878
ROOT
ATOM      1  C1  BDP B   1       6.689  21.377  57.4380  0.00  0.00     0.000 C
ATOM      2  C2  BDP B   1       5.967  21.552  58.7610  0.00  0.00     0.000 C
ATOM      3  C3  BDP B   1       4.725  22.408  58.6240  0.00  0.00     0.000 C
ATOM      4  C4  BDP B   1       4.267  22.613  57.1850  0.00  0.00     0.000 C
ATOM      5  C5  BDP B   1       5.412  22.988  56.2490  0.00  0.00     0.000 C
ATOM      6  O5  BDP B   1       6.696  22.645  56.7980  0.00  0.00     0.000 O
ATOM      7   O  BDP B   1       5.611  20.272  59.2940  0.00  0.00     0.000 O
ATOM      9  HD  BDP B   1       5.799  19.447  59.4780  0.00  0.00     0.000 HD
ATOM      9   O  BDP B   1       4.959  23.705  59.1960  0.00  0.00     0.000 O
ATOM     11  HD  BDP B   1       5.147  22.880  59.3800  0.00  0.00     0.000 HD
ATOM     11   O  BDP B   1       3.610  21.436  56.6970  0.00  0.00     0.000 O
ATOM     13  HD  BDP B   1       3.798  20.611  56.8810  0.00  0.00     0.000 HD
ENDROOT
BRANCH 5 13
ATOM     13   C  BDP B   1       5.337  24.458  56.0270  0.00  0.00     0.000 C
ATOM     14   O  BDP B   1       4.645  24.876  55.0760  0.00  0.00     0.000 OA
ATOM     15   O  BDP B   1       5.941  25.223  56.8090  0.00  0.00     0.000 OA
ENDBRANCH 5 13
BRANCH 1 16
ATOM     16  O3  NAG B   2       7.018  20.196  56.7090  0.00  0.00     0.000 O
BRANCH 16 19
ATOM     17  C1  NAG B   2       6.016  16.746  56.1180  0.00  0.00     0.000 C
ATOM     18  C2  NAG B   2       5.649  18.209  56.3710  0.00  0.00     0.000 C
ATOM     19  C3  NAG B   2       6.716  19.133  55.8030  0.00  0.00     0.000 C
ATOM     20  C4  NAG B   2       7.998  18.373  55.4530  0.00  0.00     0.000 C
ATOM     21  C5  NAG B   2       8.346  17.214  56.3970  0.00  0.00     0.000 C
ATOM     22  O5  NAG B   2       7.197  16.516  56.8900  0.00  0.00     0.000 O
ATOM     23   O  NAG B   2       7.887  17.889  54.1110  0.00  0.00     0.000 O
ATOM     25  HD  NAG B   2       7.056  17.659  54.1880  0.00  0.00     0.000 HD
ATOM     25   C  NAG B   2       9.166  17.718  57.5930  0.00  0.00     0.000 C
ATOM     26   O  NAG B   2      10.566  17.785  57.2880  0.00  0.00     0.000 O
ATOM     28  HD  NAG B   2       9.734  17.555  57.3650  0.00  0.00     0.000 HD
BRANCH 18 30
ATOM     28   N  NAG B   2       5.005  17.767  55.1350  0.00  0.00     0.000 N
ATOM     30  HD  NAG B   2       5.111  17.755  54.2760  0.00  0.00     0.000 HD
ATOM     30   C  NAG B   2       3.883  18.294  54.6240  0.00  0.00     0.000 C
ATOM     31   C  NAG B   2       3.413  17.659  53.3460  0.00  0.00     0.000 C
ATOM     32   O  NAG B   2       3.287  19.214  55.1330  0.00  0.00     0.000 OA
ENDBRANCH 18 30
BRANCH 17 33
ATOM     33  O4  BDP B   3       5.924  15.336  56.4180  0.00  0.00     0.000 O
BRANCH 33 37
ATOM     34  C1  BDP B   3       4.841  11.801  54.2800  0.00  0.00     0.000 C
ATOM     35  C2  BDP B   3       3.708  12.706  54.7500  0.00  0.00     0.000 C
ATOM     36  C3  BDP B   3       4.163  14.115  55.1130  0.00  0.00     0.000 C
ATOM     37  C4  BDP B   3       5.427  14.037  55.9820  0.00  0.00     0.000 C
ATOM     38  C5  BDP B   3       6.478  13.236  55.1900  0.00  0.00     0.000 C
ATOM     39  O5  BDP B   3       5.985  11.898  55.1370  0.00  0.00     0.000 O
ATOM     40   O  BDP B   3       2.736  12.704  53.7030  0.00  0.00     0.000 O
ATOM     42  HD  BDP B   3       2.538  11.959  54.0980  0.00  0.00     0.000 HD
ATOM     42   O  BDP B   3       3.078  14.729  55.8070  0.00  0.00     0.000 O
ATOM     44  HD  BDP B   3       2.881  13.984  56.2030  0.00  0.00     0.000 HD
BRANCH 38 44
ATOM     44   C  BDP B   3       7.849  13.248  55.7920  0.00  0.00     0.000 C
ATOM     45   O  BDP B   3       8.775  13.765  55.1300  0.00  0.00     0.000 OA
ATOM     46   O  BDP B   3       8.031  12.748  56.9230  0.00  0.00     0.000 OA
ENDBRANCH 38 44
BRANCH 34 47
ATOM     47  O3  NAG B   4       4.682  10.462  54.7450  0.00  0.00     0.000 O
BRANCH 47 50
ATOM     48  C1  NAG B   4       4.923   7.589  52.3280  0.00  0.00     0.000 C
ATOM     49  C2  NAG B   4       4.302   8.795  53.0110  0.00  0.00     0.000 C
ATOM     50  C3  NAG B   4       5.279   9.355  54.0380  0.00  0.00     0.000 C
ATOM     51  C4  NAG B   4       5.714   8.292  55.0340  0.00  0.00     0.000 C
ATOM     52  C5  NAG B   4       6.264   7.076  54.2880  0.00  0.00     0.000 C
ATOM     53  O5  NAG B   4       5.318   6.616  53.3150  0.00  0.00     0.000 O
ATOM     54   O  NAG B   4       6.708   8.845  55.9010  0.00  0.00     0.000 O
ATOM     56  HD  NAG B   4       6.388   8.096  56.1950  0.00  0.00     0.000 HD
ATOM     56   C  NAG B   4       6.594   5.940  55.2490  0.00  0.00     0.000 C
ATOM     57   O  NAG B   4       5.401   5.554  55.9440  0.00  0.00     0.000 O
ATOM     59  HD  NAG B   4       5.081   4.805  56.2390  0.00  0.00     0.000 HD
BRANCH 49 61
ATOM     59   N  NAG B   4       3.750   9.389  51.7920  0.00  0.00     0.000 N
ATOM     61  HD  NAG B   4       3.491   8.877  52.4400  0.00  0.00     0.000 HD
ATOM     61   O  NAG B   4       1.750   9.980  52.6580  0.00  0.00     0.000 OA
ATOM     62   C  NAG B   4       2.557   9.992  51.7400  0.00  0.00     0.000 C
ATOM     63   C  NAG B   4       2.257  10.725  50.4710  0.00  0.00     0.000 C
ENDBRANCH 49 61
BRANCH 48 64
ATOM     64  O4  BDP B   5       4.769   7.023  51.0300  0.00  0.00     0.000 O
BRANCH 64 68
ATOM     65  C1  BDP B   5       7.844   6.594  48.2500  0.00  0.00     0.000 C
ATOM     66  C2  BDP B   5       6.636   7.397  47.7890  0.00  0.00     0.000 C
ATOM     67  C3  BDP B   5       5.817   7.832  48.9980  0.00  0.00     0.000 C
ATOM     68  C4  BDP B   5       5.424   6.616  49.8300  0.00  0.00     0.000 C
ATOM     69  C5  BDP B   5       6.627   5.759  50.2000  0.00  0.00     0.000 C
ATOM     70  O5  BDP B   5       7.419   5.468  49.0340  0.00  0.00     0.000 O
ATOM     71   O  BDP B   5       7.073   8.522  47.0120  0.00  0.00     0.000 O
ATOM     73  HD  BDP B   5       7.391   9.195  46.5680  0.00  0.00     0.000 HD
ATOM     73   O  BDP B   5       4.634   8.523  48.5820  0.00  0.00     0.000 O
ATOM     75  HD  BDP B   5       4.952   9.195  48.1390  0.00  0.00     0.000 HD
BRANCH 69 75
ATOM     75   C  BDP B   5       6.125   4.471  50.8010  0.00  0.00     0.000 C
ATOM     76   O  BDP B   5       6.779   3.944  51.7230  0.00  0.00     0.000 OA
ATOM     77   O  BDP B   5       5.070   3.973  50.3650  0.00  0.00     0.000 OA
ENDBRANCH 69 75
BRANCH 65 78
ATOM     78  O3  NAG B   6       8.499   5.551  47.5220  0.00  0.00     0.000 O
BRANCH 78 81
ATOM     79  C1  NAG B   6      12.163   4.884  46.8410  0.00  0.00     0.000 C
ATOM     80  C2  NAG B   6      10.822   5.634  46.7910  0.00  0.00     0.000 C
ATOM     81  C3  NAG B   6       9.800   4.945  47.6820  0.00  0.00     0.000 C
ATOM     82  C4  NAG B   6       9.722   3.448  47.3650  0.00  0.00     0.000 C
ATOM     83  C5  NAG B   6      11.114   2.836  47.4640  0.00  0.00     0.000 C
ATOM     84  O5  NAG B   6      11.947   3.500  46.5130  0.00  0.00     0.000 O
BRANCH 80 87
ATOM     85   N  NAG B   6      11.098   7.024  47.1420  0.00  0.00     0.000 N
ATOM     87  HD  NAG B   6      11.416   7.801  46.9280  0.00  0.00     0.000 HD
ATOM     87   C  NAG B   6      10.520   8.075  46.5470  0.00  0.00     0.000 C
ATOM     88   C  NAG B   6      10.913   9.418  47.0770  0.00  0.00     0.000 C
ATOM     89   O  NAG B   6       9.709   7.965  45.6350  0.00  0.00     0.000 OA
ENDBRANCH 80 87
ATOM     90   O  NAG B   6      11.464   0.634  48.4020  0.00  0.00     0.000 O
ATOM     92  HD  NAG B   6      11.801   1.422  48.2780  0.00  0.00     0.000 HD
ATOM     92   O  NAG B   6      11.464   0.634  48.4020  0.00  0.00     0.000 O
ATOM     94  HD  NAG B   6      11.801   1.422  48.2780  0.00  0.00     0.000 HD
ENDBRANCH 78 81
ENDBRANCH 65 78
ENDBRANCH 64 68
ENDBRANCH 48 64
ENDBRANCH 47 50
ENDBRANCH 34 47
ENDBRANCH 33 37
ENDBRANCH 17 33
ENDBRANCH 16 19
ENDBRANCH 1 16
TORSDOF 16
ENDMDL
MODEL 100
REMARK VINA RESULT:      -4.1      8.562     15.247
ROOT
ATOM      1  C1  BDP B   1      33.187  10.360  29.1550  0.00  0.00     0.000 C
ATOM      2  C2  BDP B   1      34.502  10.452  29.9090  0.00  0.00     0.000 C
ATOM      3  C3  BDP B   1      35.679  10.654  28.9790  0.00  0.00     0.000 C
ATOM      4  C4  BDP B   1      35.290  11.072  27.5660  0.00  0.00     0.000 C
ATOM      5  C5  BDP B   1      34.157  10.228  26.9920  0.00  0.00     0.000 C
ATOM      6  O5  BDP B   1      33.418   9.542  28.0170  0.00  0.00     0.000 O
ATOM      7   O  BDP B   1      34.446  11.525  30.8550  0.00  0.00     0.000 O
ATOM      9  HD  BDP B   1      34.034  11.976  31.4690  0.00  0.00     0.000 HD
ATOM      9   O  BDP B   1      36.440   9.440  28.8810  0.00  0.00     0.000 O
ATOM     11  HD  BDP B   1      36.028   9.891  29.4950  0.00  0.00     0.000 HD
ATOM     11   O  BDP B   1      34.924  12.457  27.5370  0.00  0.00     0.000 O
ATOM     13  HD  BDP B   1      34.512  12.908  28.1510  0.00  0.00     0.000 HD
ENDROOT
BRANCH 5 13
ATOM     13   C  BDP B   1      34.771   9.236  26.0670  0.00  0.00     0.000 C
ATOM     14   O  BDP B   1      34.421   8.042  26.1670  0.00  0.00     0.000 OA
ATOM     15   O  BDP B   1      35.589   9.631  25.2090  0.00  0.00     0.000 OA
ENDBRANCH 5 13
BRANCH 1 16
ATOM     16  O3  NAG B   2      32.006  11.154  29.2510  0.00  0.00     0.000 O
BRANCH 16 19
ATOM     17  C1  NAG B   2      28.761  10.959  27.6110  0.00  0.00     0.000 C
ATOM     18  C2  NAG B   2      29.882  10.301  28.4160  0.00  0.00     0.000 C
ATOM     19  C3  NAG B   2      30.589  11.327  29.2880  0.00  0.00     0.000 C
ATOM     20  C4  NAG B   2      30.233  12.760  28.8800  0.00  0.00     0.000 C
ATOM     21  C5  NAG B   2      30.027  12.976  27.3740  0.00  0.00     0.000 C
ATOM     22  O5  NAG B   2      29.421  11.858  26.7160  0.00  0.00     0.000 O
ATOM     23   O  NAG B   2      29.056  13.156  29.5920  0.00  0.00     0.000 O
ATOM     25  HD  NAG B   2      28.659  12.392  29.5030  0.00  0.00     0.000 HD
ATOM     25   C  NAG B   2      31.364  13.285  26.6850  0.00  0.00     0.000 C
ATOM     26   O  NAG B   2      31.691  14.679  26.7600  0.00  0.00     0.000 O
ATOM     28  HD  NAG B   2      31.294  13.915  26.6710  0.00  0.00     0.000 HD
BRANCH 18 30
ATOM     28   N  NAG B   2      28.571   9.994  28.9850  0.00  0.00     0.000 N
ATOM     30  HD  NAG B   2      27.918  10.351  29.4290  0.00  0.00     0.000 HD
ATOM     30   C  NAG B   2      28.359   9.185  30.0330  0.00  0.00     0.000 C
ATOM     31   C  NAG B   2      26.917   9.021  30.4240  0.00  0.00     0.000 C
ATOM     32   O  NAG B   2      29.247   8.626  30.6340  0.00  0.00     0.000 OA
ENDBRANCH 18 30
BRANCH 17 33
ATOM     33  O4  BDP B   3      27.853  11.006  26.4890  0.00  0.00     0.000 O
BRANCH 33 37
ATOM     34  C1  BDP B   3      24.275  11.916  24.3410  0.00  0.00     0.000 C
ATOM     35  C2  BDP B   3      24.708  12.900  25.4220  0.00  0.00     0.000 C
ATOM     36  C3  BDP B   3      26.167  12.747  25.8370  0.00  0.00     0.000 C
ATOM     37  C4  BDP B   3      26.486  11.260  26.0500  0.00  0.00     0.000 C
ATOM     38  C5  BDP B   3      26.138  10.525  24.7410  0.00  0.00     0.000 C
ATOM     39  O5  BDP B   3      24.716  10.585  24.6320  0.00  0.00     0.000 O
ATOM     40   O  BDP B   3      24.425  14.204  24.9110  0.00  0.00     0.000 O
ATOM     42  HD  BDP B   3      23.638  13.974  25.1920  0.00  0.00     0.000 HD
ATOM     42   O  BDP B   3      26.333  13.503  27.0350  0.00  0.00     0.000 O
ATOM     44  HD  BDP B   3      25.547  13.272  27.3160  0.00  0.00     0.000 HD
BRANCH 38 44
ATOM     44   C  BDP B   3      26.591   9.099  24.6930  0.00  0.00     0.000 C
ATOM     45   O  BDP B   3      27.543   8.813  23.9340  0.00  0.00     0.000 OA
ATOM     46   O  BDP B   3      26.015   8.243  25.3990  0.00  0.00     0.000 OA
ENDBRANCH 38 44
BRANCH 34 47
ATOM     47  O3  NAG B   4      22.941  11.453  24.5450  0.00  0.00     0.000 O
BRANCH 47 50
ATOM     48  C1  NAG B   4      20.899  10.960  21.4250  0.00  0.00     0.000 C
ATOM     49  C2  NAG B   4      21.698  11.721  22.4690  0.00  0.00     0.000 C
ATOM     50  C3  NAG B   4      22.235  10.743  23.5070  0.00  0.00     0.000 C
ATOM     51  C4  NAG B   4      21.120   9.916  24.1260  0.00  0.00     0.000 C
ATOM     52  C5  NAG B   4      20.309   9.231  23.0260  0.00  0.00     0.000 C
ATOM     53  O5  NAG B   4      19.860  10.194  22.0640  0.00  0.00     0.000 O
ATOM     54   O  NAG B   4      21.693   8.946  25.0080  0.00  0.00     0.000 O
ATOM     56  HD  NAG B   4      20.838   9.032  25.1170  0.00  0.00     0.000 HD
ATOM     56   C  NAG B   4      19.106   8.493  23.6020  0.00  0.00     0.000 C
ATOM     57   O  NAG B   4      18.262   9.433  24.2800  0.00  0.00     0.000 O
ATOM     59  HD  NAG B   4      17.407   9.519  24.3890  0.00  0.00     0.000 HD
BRANCH 49 61
ATOM     59   N  NAG B   4      22.438  12.579  21.5420  0.00  0.00     0.000 N
ATOM     61  HD  NAG B   4      21.716  12.608  22.0190  0.00  0.00     0.000 HD
ATOM     61   O  NAG B   4      22.210  14.499  22.7090  0.00  0.00     0.000 OA
ATOM     62   C  NAG B   4      22.692  13.872  21.7770  0.00  0.00     0.000 C
ATOM     63   C  NAG B   4      23.641  14.528  20.8250  0.00  0.00     0.000 C
ENDBRANCH 49 61
BRANCH 48 64
ATOM     64  O4  BDP B   5      20.640  11.192  20.0430  0.00  0.00     0.000 O
BRANCH 64 68
ATOM     65  C1  BDP B   5      23.119  10.133  16.8640  0.00  0.00     0.000 C
ATOM     66  C2  BDP B   5      22.525  11.534  16.8080  0.00  0.00     0.000 C
ATOM     67  C3  BDP B   5      22.019  11.931  18.1890  0.00  0.00     0.000 C
ATOM     68  C4  BDP B   5      21.022  10.897  18.7000  0.00  0.00     0.000 C
ATOM     69  C5  BDP B   5      21.586   9.483  18.6550  0.00  0.00     0.000 C
ATOM     70  O5  BDP B   5      22.143   9.202  17.3590  0.00  0.00     0.000 O
ATOM     71   O  BDP B   5      23.510  12.456  16.3180  0.00  0.00     0.000 O
ATOM     73  HD  BDP B   5      24.147  12.972  16.0380  0.00  0.00     0.000 HD
ATOM     73   O  BDP B   5      21.386  13.215  18.1420  0.00  0.00     0.000 O
ATOM     75  HD  BDP B   5      22.022  13.731  17.8620  0.00  0.00     0.000 HD
BRANCH 69 75
ATOM     75   C  BDP B   5      20.465   8.517  18.9420  0.00  0.00     0.000 C
ATOM     76   O  BDP B   5      20.701   7.518  19.6510  0.00  0.00     0.000 OA
ATOM     77   O  BDP B   5      19.337   8.744  18.4670  0.00  0.00     0.000 OA
ENDBRANCH 69 75
BRANCH 65 78
ATOM     78  O3  NAG B   6      23.153   9.182  15.7970  0.00  0.00     0.000 O
BRANCH 78 81
ATOM     79  C1  NAG B   6      26.025   7.032  14.5860  0.00  0.00     0.000 C
ATOM     80  C2  NAG B   6      25.263   8.321  14.9350  0.00  0.00     0.000 C
ATOM     81  C3  NAG B   6      23.940   7.986  15.6050  0.00  0.00     0.000 C
ATOM     82  C4  NAG B   6      23.151   6.967  14.7760  0.00  0.00     0.000 C
ATOM     83  C5  NAG B   6      24.021   5.742  14.5190  0.00  0.00     0.000 C
ATOM     84  O5  NAG B   6      25.177   6.175  13.8000  0.00  0.00     0.000 O
BRANCH 80 87
ATOM     85   N  NAG B   6      26.131   9.149  15.7670  0.00  0.00     0.000 N
ATOM     87  HD  NAG B   6      26.826   9.660  15.8480  0.00  0.00     0.000 HD
ATOM     87   C  NAG B   6      26.269  10.473  15.6200  0.00  0.00     0.000 C
ATOM     88   C  NAG B   6      27.181  11.143  16.5980  0.00  0.00     0.000 C
ATOM     89   O  NAG B   6      25.683  11.114  14.7560  0.00  0.00     0.000 OA
ENDBRANCH 80 87
ATOM     90   O  NAG B   6      23.099   3.506  14.5580  0.00  0.00     0.000 O
ATOM     92  HD  NAG B   6      23.801   3.995  14.6980  0.00  0.00     0.000 HD
ATOM     92   O  NAG B   6      23.099   3.506  14.5580  0.00  0.00     0.000 O
ATOM     94  HD  NAG B   6      23.801   3.995  14.6980  0.00  0.00     0.000 HD
ENDBRANCH 78 81
ENDBRANCH 65 78
ENDBRANCH 64 68
ENDBRANCH 48 64
ENDBRANCH 47 50
ENDBRANCH 34 47
ENDBRANCH 33 37
ENDBRANCH 17 33
ENDBRANCH 16 19
ENDBRANCH 1 16
TORSDOF 16
ENDMDL
