MODEL 1
REMARK VINA RESULT:      -8.7      0.000      0.000
ROOT
ATOM      1  C1  GAD B   1      13.254  40.571  31.8020  0.00  0.00     0.000 C
ATOM      2  C2  GAD B   1      12.030  39.725  31.4420  0.00  0.00     0.000 C
ATOM      3  C3  GAD B   1      11.031  39.723  32.6060  0.00  0.00     0.000 C
ATOM      4  C4  GAD B   1      11.672  39.820  33.9930  0.00  0.00     0.000 C
ATOM      5  C5  GAD B   1      12.983  40.048  34.2090  0.00  0.00     0.000 C
ATOM      6  O5  GAD B   1      13.831  40.160  33.0500  0.00  0.00     0.000 O
ATOM      7   O  GAD B   1      11.425  40.167  30.1700  0.00  0.00     0.000 O
ATOM      9  HD  GAD B   1      12.190  40.568  30.1090  0.00  0.00     0.000 HD
ATOM      9   O  GAD B   1      10.231  38.519  32.6170  0.00  0.00     0.000 O
ATOM     11  HD  GAD B   1      10.996  38.920  32.5550  0.00  0.00     0.000 HD
ENDROOT
BRANCH 5 11
ATOM     11   C  GAD B   1      13.595  40.250  35.5430  0.00  0.00     0.000 C
ATOM     12   O  GAD B   1      13.423  39.327  36.4000  0.00  0.00     0.000 OA
ATOM     13   O  GAD B   1      14.195  41.353  35.8190  0.00  0.00     0.000 OA
ENDBRANCH 5 11
BRANCH 1 14
ATOM     14  O3  ASG B   2      14.455  40.448  31.2040  0.00  0.00     0.000 O
BRANCH 14 17
ATOM     15  C1  ASG B   2      18.063  40.066  32.2590  0.00  0.00     0.000 C
ATOM     16  C2  ASG B   2      16.812  40.801  31.7570  0.00  0.00     0.000 C
ATOM     17  C3  ASG B   2      15.649  39.808  31.6670  0.00  0.00     0.000 C
ATOM     18  C4  ASG B   2      16.011  38.669  30.7330  0.00  0.00     0.000 C
ATOM     19  C5  ASG B   2      17.325  38.045  31.1940  0.00  0.00     0.000 C
ATOM     20  O5  ASG B   2      18.342  39.060  31.3030  0.00  0.00     0.000 O
ATOM     21   C  ASG B   2      17.847  37.021  30.2380  0.00  0.00     0.000 C
ATOM     22   O  ASG B   2      19.149  36.650  30.6180  0.00  0.00     0.000 O
ATOM     24  HD  ASG B   2      19.945  36.328  30.7330  0.00  0.00     0.000 HD
BRANCH 16 26
ATOM     24   N  ASG B   2      16.447  41.967  32.5280  0.00  0.00     0.000 N
ATOM     26  HD  ASG B   2      17.259  41.667  32.5000  0.00  0.00     0.000 HD
ATOM     26   C  ASG B   2      15.913  43.083  31.9980  0.00  0.00     0.000 C
ATOM     27   C  ASG B   2      15.289  44.032  32.9620  0.00  0.00     0.000 C
ATOM     28   O  ASG B   2      15.941  43.301  30.7930  0.00  0.00     0.000 OA
ENDBRANCH 16 26
BRANCH 18 29
ATOM     29   O  ASG B   2      16.098  39.246  29.3850  0.00  0.00     0.000 O
ATOM     30   O  ASG B   2      15.212  37.251  28.2550  0.00  0.00     0.000 OA
ATOM     31   O  ASG B   2      13.823  39.228  28.4880  0.00  0.00     0.000 OA
ATOM     32   O  ASG B   2      15.726  39.256  26.9970  0.00  0.00     0.000 OA
ATOM     33   S  ASG B   2      15.139  38.700  28.2170  0.00  0.00     0.000 S
ENDBRANCH 18 29
BRANCH 15 34
ATOM     34  O4  ASG B   3      19.187  40.889  32.3830  0.00  0.00     0.000 O
BRANCH 34 38
ATOM     35  C1  GCT B   3      20.192  39.460  36.0310  0.00  0.00     0.000 C
ATOM     36  C2  GCT B   3      19.920  40.949  36.0060  0.00  0.00     0.000 C
ATOM     37  C3  GCT B   3      19.143  41.337  34.7560  0.00  0.00     0.000 C
ATOM     38  C4  GCT B   3      19.958  40.949  33.5160  0.00  0.00     0.000 C
ATOM     39  C5  GCT B   3      20.779  39.659  33.7410  0.00  0.00     0.000 C
ATOM     40  O5  GCT B   3      20.089  38.907  34.7240  0.00  0.00     0.000 O
ATOM     41   O  GCT B   3      19.159  41.239  37.1700  0.00  0.00     0.000 O
ATOM     43  HD  GCT B   3      19.379  41.317  38.0040  0.00  0.00     0.000 HD
ATOM     43   O  GCT B   3      18.851  42.749  34.8160  0.00  0.00     0.000 O
ATOM     45  HD  GCT B   3      19.071  42.826  35.6500  0.00  0.00     0.000 HD
BRANCH 39 45
ATOM     45   C  GCT B   3      22.232  39.792  34.1420  0.00  0.00     0.000 C
ATOM     46   O  GCT B   3      22.924  38.745  34.3480  0.00  0.00     0.000 OA
ATOM     47   O  GCT B   3      22.701  40.937  34.2420  0.00  0.00     0.000 OA
ENDBRANCH 39 45
BRANCH 35 48
ATOM     48  O3  ASG B   4      21.078  39.196  36.9680  0.00  0.00     0.000 O
BRANCH 48 51
ATOM     49  C1  ASG B   4      20.992  37.824  40.4030  0.00  0.00     0.000 C
ATOM     50  C2  ASG B   4      21.526  38.505  39.1320  0.00  0.00     0.000 C
ATOM     51  C3  ASG B   4      20.398  38.794  38.1440  0.00  0.00     0.000 C
ATOM     52  C4  ASG B   4      19.546  37.558  37.9060  0.00  0.00     0.000 C
ATOM     53  C5  ASG B   4      19.067  37.043  39.2610  0.00  0.00     0.000 C
ATOM     54  O5  ASG B   4      20.212  36.689  40.0620  0.00  0.00     0.000 O
BRANCH 50 57
ATOM     55   N  ASG B   4      22.320  39.692  38.9140  0.00  0.00     0.000 N
ATOM     57  HD  ASG B   4      22.921  39.541  39.5190  0.00  0.00     0.000 HD
ATOM     57   O  ASG B   4      24.230  38.784  39.6500  0.00  0.00     0.000 OA
ATOM     58   C  ASG B   4      23.644  39.708  39.0940  0.00  0.00     0.000 C
ATOM     59   C  ASG B   4      24.348  40.943  38.6220  0.00  0.00     0.000 C
ENDBRANCH 50 57
BRANCH 52 60
ATOM     60   O  ASG B   4      20.461  36.638  37.1840  0.00  0.00     0.000 O
ATOM     61   O  ASG B   4      18.654  35.822  35.6680  0.00  0.00     0.000 OA
ATOM     62   O  ASG B   4      20.899  35.109  35.3260  0.00  0.00     0.000 OA
ATOM     63   O  ASG B   4      19.763  34.461  37.3280  0.00  0.00     0.000 OA
ATOM     64   S  ASG B   4      19.897  35.456  36.2590  0.00  0.00     0.000 S
ENDBRANCH 52 60
ATOM     65   O  ASG B   4      17.485  35.630  40.4360  0.00  0.00     0.000 O
ATOM     67  HD  ASG B   4      18.128  35.306  40.9180  0.00  0.00     0.000 HD
ATOM     67   O  ASG B   4      17.485  35.630  40.4360  0.00  0.00     0.000 O
ATOM     69  HD  ASG B   4      18.128  35.306  40.9180  0.00  0.00     0.000 HD
ENDBRANCH 48 51
ENDBRANCH 35 48
ENDBRANCH 34 38
ENDBRANCH 15 34
ENDBRANCH 14 17
ENDBRANCH 1 14
TORSDOF 12
ENDMDL
MODEL 2
REMARK VINA RESULT:      -8.6     43.424     46.331
ROOT
ATOM      1  C1  GAD B   1       6.628  48.201  77.5790  0.00  0.00     0.000 C
ATOM      2  C2  GAD B   1       6.465  48.504  76.0870  0.00  0.00     0.000 C
ATOM      3  C3  GAD B   1       5.122  47.964  75.5830  0.00  0.00     0.000 C
ATOM      4  C4  GAD B   1       4.641  46.695  76.2930  0.00  0.00     0.000 C
ATOM      5  C5  GAD B   1       5.237  46.160  77.3770  0.00  0.00     0.000 C
ATOM      6  O5  GAD B   1       6.430  46.807  77.8590  0.00  0.00     0.000 O
ATOM      7   O  GAD B   1       6.644  49.942  75.8070  0.00  0.00     0.000 O
ATOM      9  HD  GAD B   1       6.980  49.912  76.6050  0.00  0.00     0.000 HD
ATOM      9   O  GAD B   1       5.174  47.640  74.1750  0.00  0.00     0.000 O
ATOM     11  HD  GAD B   1       5.510  47.609  74.9730  0.00  0.00     0.000 HD
ENDROOT
BRANCH 5 11
ATOM     11   C  GAD B   1       4.721  44.996  78.1340  0.00  0.00     0.000 C
ATOM     12   O  GAD B   1       3.470  44.961  78.3540  0.00  0.00     0.000 OA
ATOM     13   O  GAD B   1       5.535  44.119  78.6060  0.00  0.00     0.000 OA
ENDBRANCH 5 11
BRANCH 1 14
ATOM     14  O3  ASG B   2       7.814  48.163  78.2140  0.00  0.00     0.000 O
BRANCH 14 17
ATOM     15  C1  ASG B   2      10.853  46.014  78.8670  0.00  0.00     0.000 C
ATOM     16  C2  ASG B   2       9.613  46.847  79.2230  0.00  0.00     0.000 C
ATOM     17  C3  ASG B   2       8.980  47.379  77.9340  0.00  0.00     0.000 C
ATOM     18  C4  ASG B   2       9.987  48.217  77.1700  0.00  0.00     0.000 C
ATOM     19  C5  ASG B   2      11.252  47.395  76.9450  0.00  0.00     0.000 C
ATOM     20  O5  ASG B   2      11.743  46.891  78.2030  0.00  0.00     0.000 O
ATOM     21   C  ASG B   2      12.363  48.194  76.3440  0.00  0.00     0.000 C
ATOM     22   O  ASG B   2      13.547  47.435  76.3650  0.00  0.00     0.000 O
ATOM     24  HD  ASG B   2      14.338  47.088  76.3100  0.00  0.00     0.000 HD
BRANCH 16 26
ATOM     24   N  ASG B   2       8.599  46.175  80.0030  0.00  0.00     0.000 N
ATOM     26  HD  ASG B   2       9.422  45.905  79.9820  0.00  0.00     0.000 HD
ATOM     26   C  ASG B   2       7.900  46.761  80.9930  0.00  0.00     0.000 C
ATOM     27   C  ASG B   2       6.679  46.039  81.4480  0.00  0.00     0.000 C
ATOM     28   O  ASG B   2       8.251  47.825  81.4870  0.00  0.00     0.000 OA
ENDBRANCH 16 26
BRANCH 18 29
ATOM     29   O  ASG B   2      10.226  49.421  77.9770  0.00  0.00     0.000 O
ATOM     30   O  ASG B   2      10.792  50.844  76.0540  0.00  0.00     0.000 OA
ATOM     31   O  ASG B   2       8.652  51.110  77.1690  0.00  0.00     0.000 OA
ATOM     32   O  ASG B   2      10.690  51.772  78.2890  0.00  0.00     0.000 OA
ATOM     33   S  ASG B   2      10.070  50.876  77.3120  0.00  0.00     0.000 S
ENDBRANCH 18 29
BRANCH 15 34
ATOM     34  O4  ASG B   3      11.506  45.474  79.9810  0.00  0.00     0.000 O
BRANCH 34 38
ATOM     35  C1  GCT B   3      10.748  41.577  80.7550  0.00  0.00     0.000 C
ATOM     36  C2  GCT B   3      11.969  42.120  81.4660  0.00  0.00     0.000 C
ATOM     37  C3  GCT B   3      11.948  43.642  81.4910  0.00  0.00     0.000 C
ATOM     38  C4  GCT B   3      11.923  44.169  80.0510  0.00  0.00     0.000 C
ATOM     39  C5  GCT B   3      11.125  43.241  79.1070  0.00  0.00     0.000 C
ATOM     40  O5  GCT B   3      10.172  42.569  79.9120  0.00  0.00     0.000 O
ATOM     41   O  GCT B   3      11.927  41.605  82.7890  0.00  0.00     0.000 O
ATOM     43  HD  GCT B   3      12.114  40.824  83.1140  0.00  0.00     0.000 HD
ATOM     43   O  GCT B   3      13.093  44.104  82.2380  0.00  0.00     0.000 O
ATOM     45  HD  GCT B   3      13.280  43.324  82.5640  0.00  0.00     0.000 HD
BRANCH 39 45
ATOM     45   C  GCT B   3      11.887  42.228  78.2820  0.00  0.00     0.000 C
ATOM     46   O  GCT B   3      11.253  41.447  77.5040  0.00  0.00     0.000 OA
ATOM     47   O  GCT B   3      13.125  42.208  78.3880  0.00  0.00     0.000 OA
ENDBRANCH 39 45
BRANCH 35 48
ATOM     48  O3  ASG B   4      10.919  40.294  80.5160  0.00  0.00     0.000 O
BRANCH 48 51
ATOM     49  C1  ASG B   4       7.751  38.930  81.8540  0.00  0.00     0.000 C
ATOM     50  C2  ASG B   4       9.041  39.761  81.7610  0.00  0.00     0.000 C
ATOM     51  C3  ASG B   4       9.651  39.680  80.3640  0.00  0.00     0.000 C
ATOM     52  C4  ASG B   4       9.776  38.238  79.9010  0.00  0.00     0.000 C
ATOM     53  C5  ASG B   4       8.403  37.581  80.0180  0.00  0.00     0.000 C
ATOM     54  O5  ASG B   4       7.983  37.608  81.3960  0.00  0.00     0.000 O
BRANCH 50 57
ATOM     55   N  ASG B   4       9.444  39.085  82.9730  0.00  0.00     0.000 N
ATOM     57  HD  ASG B   4       9.760  39.775  83.3900  0.00  0.00     0.000 HD
ATOM     57   O  ASG B   4       9.248  40.895  84.2780  0.00  0.00     0.000 OA
ATOM     58   C  ASG B   4       9.416  39.684  84.1670  0.00  0.00     0.000 C
ATOM     59   C  ASG B   4       9.654  38.791  85.3460  0.00  0.00     0.000 C
ENDBRANCH 50 57
BRANCH 52 60
ATOM     60   O  ASG B   4      10.811  37.672  80.8050  0.00  0.00     0.000 O
ATOM     61   O  ASG B   4      12.193  36.831  78.9040  0.00  0.00     0.000 OA
ATOM     62   O  ASG B   4      13.008  36.648  81.1340  0.00  0.00     0.000 OA
ATOM     63   O  ASG B   4      11.059  35.415  80.5000  0.00  0.00     0.000 OA
ATOM     64   S  ASG B   4      11.885  36.606  80.2770  0.00  0.00     0.000 S
ENDBRANCH 52 60
ATOM     65   O  ASG B   4       6.997  35.719  79.3580  0.00  0.00     0.000 O
ATOM     67  HD  ASG B   4       6.744  35.615  80.1800  0.00  0.00     0.000 HD
ATOM     67   O  ASG B   4       6.997  35.719  79.3580  0.00  0.00     0.000 O
ATOM     69  HD  ASG B   4       6.744  35.615  80.1800  0.00  0.00     0.000 HD
ENDBRANCH 48 51
ENDBRANCH 35 48
ENDBRANCH 34 38
ENDBRANCH 15 34
ENDBRANCH 14 17
ENDBRANCH 1 14
TORSDOF 12
ENDMDL
MODEL 3
REMARK VINA RESULT:      -8.6      2.354      4.182
ROOT
ATOM      1  C1  GAD B   1      12.513  43.847  31.5940  0.00  0.00     0.000 C
ATOM      2  C2  GAD B   1      13.191  45.213  31.7370  0.00  0.00     0.000 C
ATOM      3  C3  GAD B   1      12.343  46.295  31.0570  0.00  0.00     0.000 C
ATOM      4  C4  GAD B   1      11.559  45.813  29.8340  0.00  0.00     0.000 C
ATOM      5  C5  GAD B   1      11.469  44.524  29.4500  0.00  0.00     0.000 C
ATOM      6  O5  GAD B   1      12.201  43.554  30.2230  0.00  0.00     0.000 O
ATOM      7   O  GAD B   1      13.487  45.521  33.1490  0.00  0.00     0.000 O
ATOM      9  HD  GAD B   1      13.332  44.672  33.2210  0.00  0.00     0.000 HD
ATOM      9   O  GAD B   1      13.157  47.399  30.6010  0.00  0.00     0.000 O
ATOM     11  HD  GAD B   1      13.003  46.550  30.6730  0.00  0.00     0.000 HD
ENDROOT
BRANCH 5 11
ATOM     11   C  GAD B   1      10.628  44.033  28.3330  0.00  0.00     0.000 C
ATOM     12   O  GAD B   1      10.672  44.692  27.2480  0.00  0.00     0.000 OA
ATOM     13   O  GAD B   1       9.838  43.034  28.5100  0.00  0.00     0.000 OA
ENDBRANCH 5 11
BRANCH 1 14
ATOM     14  O3  ASG B   2      13.161  42.672  31.7010  0.00  0.00     0.000 O
BRANCH 14 17
ATOM     15  C1  ASG B   2      16.247  41.205  33.3140  0.00  0.00     0.000 C
ATOM     16  C2  ASG B   2      15.360  41.705  32.1640  0.00  0.00     0.000 C
ATOM     17  C3  ASG B   2      14.025  42.191  32.7360  0.00  0.00     0.000 C
ATOM     18  C4  ASG B   2      13.342  41.063  33.4870  0.00  0.00     0.000 C
ATOM     19  C5  ASG B   2      14.301  40.511  34.5370  0.00  0.00     0.000 C
ATOM     20  O5  ASG B   2      15.546  40.133  33.9170  0.00  0.00     0.000 O
ATOM     21   C  ASG B   2      13.775  39.286  35.2150  0.00  0.00     0.000 C
ATOM     22   O  ASG B   2      14.790  38.718  36.0040  0.00  0.00     0.000 O
ATOM     24  HD  ASG B   2      15.312  38.265  36.5270  0.00  0.00     0.000 HD
BRANCH 16 26
ATOM     24   N  ASG B   2      15.935  42.738  31.3340  0.00  0.00     0.000 N
ATOM     26  HD  ASG B   2      16.422  42.200  31.8070  0.00  0.00     0.000 HD
ATOM     26   C  ASG B   2      15.766  42.813  30.0010  0.00  0.00     0.000 C
ATOM     27   C  ASG B   2      16.134  44.109  29.3650  0.00  0.00     0.000 C
ATOM     28   O  ASG B   2      15.334  41.868  29.3520  0.00  0.00     0.000 OA
ENDBRANCH 16 26
BRANCH 18 29
ATOM     29   O  ASG B   2      12.960  40.063  32.4810  0.00  0.00     0.000 O
ATOM     30   O  ASG B   2      10.886  39.407  33.6250  0.00  0.00     0.000 OA
ATOM     31   O  ASG B   2      10.783  40.762  31.6140  0.00  0.00     0.000 OA
ATOM     32   O  ASG B   2      11.469  38.448  31.4790  0.00  0.00     0.000 OA
ATOM     33   S  ASG B   2      11.416  39.659  32.2980  0.00  0.00     0.000 S
ENDBRANCH 18 29
BRANCH 15 34
ATOM     34  O4  ASG B   3      17.499  40.741  32.8960  0.00  0.00     0.000 O
BRANCH 34 38
ATOM     35  C1  GCT B   3      19.412  39.453  36.2200  0.00  0.00     0.000 C
ATOM     36  C2  GCT B   3      19.420  40.957  36.0480  0.00  0.00     0.000 C
ATOM     37  C3  GCT B   3      18.347  41.395  35.0620  0.00  0.00     0.000 C
ATOM     38  C4  GCT B   3      18.607  40.729  33.7050  0.00  0.00     0.000 C
ATOM     39  C5  GCT B   3      19.209  39.314  33.8600  0.00  0.00     0.000 C
ATOM     40  O5  GCT B   3      18.772  38.823  35.1150  0.00  0.00     0.000 O
ATOM     41   O  GCT B   3      19.165  41.510  37.3320  0.00  0.00     0.000 O
ATOM     43  HD  GCT B   3      19.666  41.610  38.0310  0.00  0.00     0.000 HD
ATOM     43   O  GCT B   3      18.351  42.836  34.9890  0.00  0.00     0.000 O
ATOM     45  HD  GCT B   3      18.852  42.937  35.6880  0.00  0.00     0.000 HD
BRANCH 39 45
ATOM     45   C  GCT B   3      20.711  39.156  33.7580  0.00  0.00     0.000 C
ATOM     46   O  GCT B   3      21.439  40.184  33.5910  0.00  0.00     0.000 OA
ATOM     47   O  GCT B   3      21.180  38.010  33.8560  0.00  0.00     0.000 OA
ENDBRANCH 39 45
BRANCH 35 48
ATOM     48  O3  ASG B   4      20.500  39.082  36.8590  0.00  0.00     0.000 O
BRANCH 48 51
ATOM     49  C1  ASG B   4      21.334  38.122  40.3340  0.00  0.00     0.000 C
ATOM     50  C2  ASG B   4      21.463  38.758  38.9400  0.00  0.00     0.000 C
ATOM     51  C3  ASG B   4      20.148  38.674  38.1700  0.00  0.00     0.000 C
ATOM     52  C4  ASG B   4      19.591  37.260  38.1870  0.00  0.00     0.000 C
ATOM     53  C5  ASG B   4      19.488  36.807  39.6410  0.00  0.00     0.000 C
ATOM     54  O5  ASG B   4      20.804  36.811  40.2300  0.00  0.00     0.000 O
BRANCH 50 57
ATOM     55   N  ASG B   4      21.968  39.857  38.1480  0.00  0.00     0.000 N
ATOM     57  HD  ASG B   4      22.622  40.083  38.6700  0.00  0.00     0.000 HD
ATOM     57   O  ASG B   4      24.068  39.692  38.9080  0.00  0.00     0.000 OA
ATOM     58   C  ASG B   4      23.266  40.175  38.1150  0.00  0.00     0.000 C
ATOM     59   C  ASG B   4      23.657  41.192  37.0880  0.00  0.00     0.000 C
ENDBRANCH 50 57
BRANCH 52 60
ATOM     60   O  ASG B   4      20.564  36.492  37.3680  0.00  0.00     0.000 O
ATOM     61   O  ASG B   4      18.782  35.564  35.8860  0.00  0.00     0.000 OA
ATOM     62   O  ASG B   4      21.072  35.132  35.3990  0.00  0.00     0.000 OA
ATOM     63   O  ASG B   4      20.120  34.246  37.4060  0.00  0.00     0.000 OA
ATOM     64   S  ASG B   4      20.087  35.309  36.3970  0.00  0.00     0.000 S
ENDBRANCH 52 60
ATOM     65   O  ASG B   4      18.517  35.218  41.1930  0.00  0.00     0.000 O
ATOM     67  HD  ASG B   4      19.291  35.102  41.5640  0.00  0.00     0.000 HD
ATOM     67   O  ASG B   4      18.517  35.218  41.1930  0.00  0.00     0.000 O
ATOM     69  HD  ASG B   4      19.291  35.102  41.5640  0.00  0.00     0.000 HD
ENDBRANCH 48 51
ENDBRANCH 35 48
ENDBRANCH 34 38
ENDBRANCH 15 34
ENDBRANCH 14 17
ENDBRANCH 1 14
TORSDOF 12
ENDMDL
MODEL 4
REMARK VINA RESULT:      -8.6      2.497      3.392
ROOT
ATOM      1  C1  GAD B   1      13.531  42.831  33.3390  0.00  0.00     0.000 C
ATOM      2  C2  GAD B   1      12.564  42.463  32.2100  0.00  0.00     0.000 C
ATOM      3  C3  GAD B   1      11.600  41.367  32.6790  0.00  0.00     0.000 C
ATOM      4  C4  GAD B   1      12.195  40.389  33.6960  0.00  0.00     0.000 C
ATOM      5  C5  GAD B   1      13.404  40.539  34.2740  0.00  0.00     0.000 C
ATOM      6  O5  GAD B   1      14.195  41.671  33.8640  0.00  0.00     0.000 O
ATOM      7   O  GAD B   1      11.866  43.655  31.6910  0.00  0.00     0.000 O
ATOM      9  HD  GAD B   1      12.502  44.046  32.1290  0.00  0.00     0.000 HD
ATOM      9   O  GAD B   1      11.135  40.560  31.5730  0.00  0.00     0.000 O
ATOM     11  HD  GAD B   1      11.772  40.951  32.0110  0.00  0.00     0.000 HD
ENDROOT
BRANCH 5 11
ATOM     11   C  GAD B   1      13.945  39.659  35.3360  0.00  0.00     0.000 C
ATOM     12   O  GAD B   1      15.123  39.213  35.1700  0.00  0.00     0.000 OA
ATOM     13   O  GAD B   1      13.203  39.314  36.3290  0.00  0.00     0.000 OA
ENDBRANCH 5 11
BRANCH 1 14
ATOM     14  O3  ASG B   2      14.722  43.427  33.1440  0.00  0.00     0.000 O
BRANCH 14 17
ATOM     15  C1  ASG B   2      18.404  42.682  32.7320  0.00  0.00     0.000 C
ATOM     16  C2  ASG B   2      17.150  43.260  33.4030  0.00  0.00     0.000 C
ATOM     17  C3  ASG B   2      15.922  42.911  32.5570  0.00  0.00     0.000 C
ATOM     18  C4  ASG B   2      16.084  43.468  31.1550  0.00  0.00     0.000 C
ATOM     19  C5  ASG B   2      17.401  42.970  30.5700  0.00  0.00     0.000 C
ATOM     20  O5  ASG B   2      18.489  43.294  31.4580  0.00  0.00     0.000 O
ATOM     21   C  ASG B   2      17.726  43.602  29.2540  0.00  0.00     0.000 C
ATOM     22   O  ASG B   2      19.039  43.261  28.8840  0.00  0.00     0.000 O
ATOM     24  HD  ASG B   2      19.820  43.132  28.5330  0.00  0.00     0.000 HD
BRANCH 16 26
ATOM     24   N  ASG B   2      16.825  44.115  34.5210  0.00  0.00     0.000 N
ATOM     26  HD  ASG B   2      16.391  44.148  33.7720  0.00  0.00     0.000 HD
ATOM     26   C  ASG B   2      16.443  43.662  35.7290  0.00  0.00     0.000 C
ATOM     27   C  ASG B   2      16.483  44.652  36.8430  0.00  0.00     0.000 C
ATOM     28   O  ASG B   2      16.085  42.503  35.8990  0.00  0.00     0.000 OA
ENDBRANCH 16 26
BRANCH 18 29
ATOM     29   O  ASG B   2      16.031  44.931  31.2790  0.00  0.00     0.000 O
ATOM     30   O  ASG B   2      15.036  45.287  29.0600  0.00  0.00     0.000 OA
ATOM     31   O  ASG B   2      13.677  45.552  31.0540  0.00  0.00     0.000 OA
ATOM     32   O  ASG B   2      15.419  47.153  30.5550  0.00  0.00     0.000 OA
ATOM     33   S  ASG B   2      14.959  45.770  30.4260  0.00  0.00     0.000 S
ENDBRANCH 18 29
BRANCH 15 34
ATOM     34  O4  ASG B   3      19.586  42.942  33.4320  0.00  0.00     0.000 O
BRANCH 34 38
ATOM     35  C1  GCT B   3      20.342  40.323  36.4210  0.00  0.00     0.000 C
ATOM     36  C2  GCT B   3      21.519  41.204  36.0630  0.00  0.00     0.000 C
ATOM     37  C3  GCT B   3      21.062  42.423  35.2730  0.00  0.00     0.000 C
ATOM     38  C4  GCT B   3      20.366  41.959  33.9880  0.00  0.00     0.000 C
ATOM     39  C5  GCT B   3      19.592  40.636  34.1930  0.00  0.00     0.000 C
ATOM     40  O5  GCT B   3      19.237  40.583  35.5630  0.00  0.00     0.000 O
ATOM     41   O  GCT B   3      22.111  41.606  37.2900  0.00  0.00     0.000 O
ATOM     43  HD  GCT B   3      22.623  41.190  37.8510  0.00  0.00     0.000 HD
ATOM     43   O  GCT B   3      22.208  43.262  35.0180  0.00  0.00     0.000 O
ATOM     45  HD  GCT B   3      22.721  42.846  35.5800  0.00  0.00     0.000 HD
BRANCH 39 45
ATOM     45   C  GCT B   3      20.268  39.340  33.8010  0.00  0.00     0.000 C
ATOM     46   O  GCT B   3      21.441  39.367  33.3130  0.00  0.00     0.000 OA
ATOM     47   O  GCT B   3      19.643  38.283  33.9880  0.00  0.00     0.000 OA
ENDBRANCH 39 45
BRANCH 35 48
ATOM     48  O3  ASG B   4      20.785  39.165  36.8620  0.00  0.00     0.000 O
BRANCH 48 51
ATOM     49  C1  ASG B   4      20.590  38.141  40.4120  0.00  0.00     0.000 C
ATOM     50  C2  ASG B   4      21.143  38.746  39.1110  0.00  0.00     0.000 C
ATOM     51  C3  ASG B   4      20.066  38.811  38.0310  0.00  0.00     0.000 C
ATOM     52  C4  ASG B   4      19.362  37.473  37.8750  0.00  0.00     0.000 C
ATOM     53  C5  ASG B   4      18.841  37.048  39.2450  0.00  0.00     0.000 C
ATOM     54  O5  ASG B   4      19.955  36.901  40.1480  0.00  0.00     0.000 O
BRANCH 50 57
ATOM     55   N  ASG B   4      22.329  38.220  38.4760  0.00  0.00     0.000 N
ATOM     57  HD  ASG B   4      22.855  38.888  38.6420  0.00  0.00     0.000 HD
ATOM     57   O  ASG B   4      23.761  39.365  39.7620  0.00  0.00     0.000 OA
ATOM     58   C  ASG B   4      23.559  38.492  38.9230  0.00  0.00     0.000 C
ATOM     59   C  ASG B   4      24.666  37.704  38.2940  0.00  0.00     0.000 C
ENDBRANCH 50 57
BRANCH 52 60
ATOM     60   O  ASG B   4      20.416  36.590  37.3130  0.00  0.00     0.000 O
ATOM     61   O  ASG B   4      18.835  35.509  35.7110  0.00  0.00     0.000 OA
ATOM     62   O  ASG B   4      21.154  34.977  35.6280  0.00  0.00     0.000 OA
ATOM     63   O  ASG B   4      19.889  34.375  37.5660  0.00  0.00     0.000 OA
ATOM     64   S  ASG B   4      20.042  35.299  36.4380  0.00  0.00     0.000 S
ENDBRANCH 52 60
ATOM     65   O  ASG B   4      17.329  35.598  40.4650  0.00  0.00     0.000 O
ATOM     67  HD  ASG B   4      17.965  35.394  41.0170  0.00  0.00     0.000 HD
ATOM     67   O  ASG B   4      17.329  35.598  40.4650  0.00  0.00     0.000 O
ATOM     69  HD  ASG B   4      17.965  35.394  41.0170  0.00  0.00     0.000 HD
ENDBRANCH 48 51
ENDBRANCH 35 48
ENDBRANCH 34 38
ENDBRANCH 15 34
ENDBRANCH 14 17
ENDBRANCH 1 14
TORSDOF 12
ENDMDL
MODEL 5
REMARK VINA RESULT:      -8.5     22.080     28.598
ROOT
ATOM      1  C1  GAD B   1      20.523  28.997  55.6610  0.00  0.00     0.000 C
ATOM      2  C2  GAD B   1      20.312  30.091  56.7120  0.00  0.00     0.000 C
ATOM      3  C3  GAD B   1      20.472  31.475  56.0710  0.00  0.00     0.000 C
ATOM      4  C4  GAD B   1      21.478  31.528  54.9180  0.00  0.00     0.000 C
ATOM      5  C5  GAD B   1      22.073  30.445  54.3800  0.00  0.00     0.000 C
ATOM      6  O5  GAD B   1      21.768  29.166  54.9670  0.00  0.00     0.000 O
ATOM      7   O  GAD B   1      19.020  29.928  57.4060  0.00  0.00     0.000 O
ATOM      9  HD  GAD B   1      19.081  29.146  57.0390  0.00  0.00     0.000 HD
ATOM      9   O  GAD B   1      20.914  32.458  57.0340  0.00  0.00     0.000 O
ATOM     11  HD  GAD B   1      20.975  31.676  56.6670  0.00  0.00     0.000 HD
ENDROOT
BRANCH 5 11
ATOM     11   C  GAD B   1      22.965  30.474  53.1970  0.00  0.00     0.000 C
ATOM     12   O  GAD B   1      22.578  29.835  52.1690  0.00  0.00     0.000 OA
ATOM     13   O  GAD B   1      24.109  31.057  53.2640  0.00  0.00     0.000 OA
ENDBRANCH 5 11
BRANCH 1 14
ATOM     14  O3  ASG B   2      20.856  27.726  55.9560  0.00  0.00     0.000 O
BRANCH 14 17
ATOM     15  C1  ASG B   2      20.058  25.043  58.4940  0.00  0.00     0.000 C
ATOM     16  C2  ASG B   2      20.907  26.116  57.7970  0.00  0.00     0.000 C
ATOM     17  C3  ASG B   2      20.106  26.714  56.6370  0.00  0.00     0.000 C
ATOM     18  C4  ASG B   2      19.716  25.623  55.6590  0.00  0.00     0.000 C
ATOM     19  C5  ASG B   2      18.983  24.517  56.4120  0.00  0.00     0.000 C
ATOM     20  O5  ASG B   2      19.787  24.056  57.5160  0.00  0.00     0.000 O
ATOM     21   C  ASG B   2      18.706  23.321  55.5590  0.00  0.00     0.000 C
ATOM     22   O  ASG B   2      18.228  22.273  56.3670  0.00  0.00     0.000 O
ATOM     24  HD  ASG B   2      17.924  21.551  56.7350  0.00  0.00     0.000 HD
BRANCH 16 26
ATOM     24   N  ASG B   2      21.374  27.217  58.6070  0.00  0.00     0.000 N
ATOM     26  HD  ASG B   2      21.101  26.472  58.9540  0.00  0.00     0.000 HD
ATOM     26   C  ASG B   2      22.612  27.738  58.5280  0.00  0.00     0.000 C
ATOM     27   C  ASG B   2      22.807  29.066  59.1760  0.00  0.00     0.000 C
ATOM     28   O  ASG B   2      23.522  27.152  57.9540  0.00  0.00     0.000 OA
ENDBRANCH 16 26
BRANCH 18 29
ATOM     29   O  ASG B   2      20.962  25.158  55.0350  0.00  0.00     0.000 O
ATOM     30   O  ASG B   2      19.922  24.648  52.8660  0.00  0.00     0.000 OA
ATOM     31   O  ASG B   2      21.338  26.606  53.1000  0.00  0.00     0.000 OA
ATOM     32   O  ASG B   2      22.310  24.394  53.1810  0.00  0.00     0.000 OA
ATOM     33   S  ASG B   2      21.128  25.218  53.4370  0.00  0.00     0.000 S
ENDBRANCH 18 29
BRANCH 15 34
ATOM     34  O4  ASG B   3      20.699  24.434  59.5780  0.00  0.00     0.000 O
BRANCH 34 38
ATOM     35  C1  GCT B   3      19.688  27.029  62.5120  0.00  0.00     0.000 C
ATOM     36  C2  GCT B   3      20.852  26.126  62.8620  0.00  0.00     0.000 C
ATOM     37  C3  GCT B   3      21.451  25.505  61.6080  0.00  0.00     0.000 C
ATOM     38  C4  GCT B   3      20.374  24.687  60.8860  0.00  0.00     0.000 C
ATOM     39  C5  GCT B   3      18.970  25.317  61.0350  0.00  0.00     0.000 C
ATOM     40  O5  GCT B   3      19.169  26.707  61.2270  0.00  0.00     0.000 O
ATOM     41   O  GCT B   3      21.813  26.942  63.5160  0.00  0.00     0.000 O
ATOM     43  HD  GCT B   3      21.852  27.264  64.3190  0.00  0.00     0.000 HD
ATOM     43   O  GCT B   3      22.595  24.712  61.9900  0.00  0.00     0.000 O
ATOM     45  HD  GCT B   3      22.634  25.035  62.7930  0.00  0.00     0.000 HD
BRANCH 39 45
ATOM     45   C  GCT B   3      18.056  24.789  62.1190  0.00  0.00     0.000 C
ATOM     46   O  GCT B   3      16.918  25.327  62.2970  0.00  0.00     0.000 OA
ATOM     47   O  GCT B   3      18.455  23.825  62.7930  0.00  0.00     0.000 OA
ENDBRANCH 39 45
BRANCH 35 48
ATOM     48  O3  ASG B   4      19.032  27.337  63.6100  0.00  0.00     0.000 O
BRANCH 48 51
ATOM     49  C1  ASG B   4      18.786  30.276  65.8440  0.00  0.00     0.000 C
ATOM     50  C2  ASG B   4      18.668  28.826  65.3450  0.00  0.00     0.000 C
ATOM     51  C3  ASG B   4      19.429  28.629  64.0370  0.00  0.00     0.000 C
ATOM     52  C4  ASG B   4      19.059  29.695  63.0190  0.00  0.00     0.000 C
ATOM     53  C5  ASG B   4      19.277  31.062  63.6630  0.00  0.00     0.000 C
ATOM     54  O5  ASG B   4      18.420  31.182  64.8160  0.00  0.00     0.000 O
BRANCH 50 57
ATOM     55   N  ASG B   4      19.021  27.620  66.0580  0.00  0.00     0.000 N
ATOM     57  HD  ASG B   4      18.580  27.783  66.7850  0.00  0.00     0.000 HD
ATOM     57   O  ASG B   4      17.173  27.595  67.3220  0.00  0.00     0.000 OA
ATOM     58   C  ASG B   4      18.191  27.035  66.9260  0.00  0.00     0.000 C
ATOM     59   C  ASG B   4      18.613  25.684  67.4170  0.00  0.00     0.000 C
ENDBRANCH 50 57
BRANCH 52 60
ATOM     60   O  ASG B   4      17.644  29.386  62.6890  0.00  0.00     0.000 O
ATOM     61   O  ASG B   4      18.059  29.492  60.2300  0.00  0.00     0.000 OA
ATOM     62   O  ASG B   4      15.925  28.820  61.0440  0.00  0.00     0.000 OA
ATOM     63   O  ASG B   4      16.677  31.053  61.4520  0.00  0.00     0.000 OA
ATOM     64   S  ASG B   4      17.051  29.654  61.2240  0.00  0.00     0.000 S
ENDBRANCH 52 60
ATOM     65   O  ASG B   4      19.546  33.444  63.2950  0.00  0.00     0.000 O
ATOM     67  HD  ASG B   4      18.981  33.609  63.9310  0.00  0.00     0.000 HD
ATOM     67   O  ASG B   4      19.546  33.444  63.2950  0.00  0.00     0.000 O
ATOM     69  HD  ASG B   4      18.981  33.609  63.9310  0.00  0.00     0.000 HD
ENDBRANCH 48 51
ENDBRANCH 35 48
ENDBRANCH 34 38
ENDBRANCH 15 34
ENDBRANCH 14 17
ENDBRANCH 1 14
TORSDOF 12
ENDMDL
MODEL 6
REMARK VINA RESULT:      -8.3     46.607     49.568
ROOT
ATOM      1  C1  GAD B   1       8.579  48.747  83.8070  0.00  0.00     0.000 C
ATOM      2  C2  GAD B   1       7.841  48.665  85.1470  0.00  0.00     0.000 C
ATOM      3  C3  GAD B   1       7.916  50.014  85.8730  0.00  0.00     0.000 C
ATOM      4  C4  GAD B   1       9.199  50.807  85.6080  0.00  0.00     0.000 C
ATOM      5  C5  GAD B   1      10.132  50.459  84.7000  0.00  0.00     0.000 C
ATOM      6  O5  GAD B   1       9.919  49.235  83.9720  0.00  0.00     0.000 O
ATOM      7   O  GAD B   1       6.456  48.187  84.9700  0.00  0.00     0.000 O
ATOM      9  HD  GAD B   1       6.781  47.964  84.1990  0.00  0.00     0.000 HD
ATOM      9   O  GAD B   1       7.835  49.850  87.3060  0.00  0.00     0.000 O
ATOM     11  HD  GAD B   1       8.159  49.627  86.5350  0.00  0.00     0.000 HD
ENDROOT
BRANCH 5 11
ATOM     11   C  GAD B   1      11.323  51.273  84.3610  0.00  0.00     0.000 C
ATOM     12   O  GAD B   1      11.534  51.498  83.1290  0.00  0.00     0.000 OA
ATOM     13   O  GAD B   1      12.132  51.652  85.2870  0.00  0.00     0.000 OA
ENDBRANCH 5 11
BRANCH 1 14
ATOM     14  O3  ASG B   2       9.048  47.676  83.1410  0.00  0.00     0.000 O
BRANCH 14 17
ATOM     15  C1  ASG B   2       8.478  44.014  82.4030  0.00  0.00     0.000 C
ATOM     16  C2  ASG B   2       9.255  45.253  82.8720  0.00  0.00     0.000 C
ATOM     17  C3  ASG B   2       8.368  46.491  82.7120  0.00  0.00     0.000 C
ATOM     18  C4  ASG B   2       7.944  46.642  81.2640  0.00  0.00     0.000 C
ATOM     19  C5  ASG B   2       7.288  45.345  80.7990  0.00  0.00     0.000 C
ATOM     20  O5  ASG B   2       8.171  44.232  81.0390  0.00  0.00     0.000 O
ATOM     21   C  ASG B   2       6.987  45.341  79.3340  0.00  0.00     0.000 C
ATOM     22   O  ASG B   2       6.587  44.051  78.9440  0.00  0.00     0.000 O
ATOM     24  HD  ASG B   2       6.325  43.316  78.5670  0.00  0.00     0.000 HD
BRANCH 16 26
ATOM     24   N  ASG B   2       9.714  45.338  84.2390  0.00  0.00     0.000 N
ATOM     26  HD  ASG B   2       9.419  44.600  83.8960  0.00  0.00     0.000 HD
ATOM     26   C  ASG B   2      10.962  45.695  84.5930  0.00  0.00     0.000 C
ATOM     27   C  ASG B   2      11.158  46.059  86.0250  0.00  0.00     0.000 C
ATOM     28   O  ASG B   2      11.880  45.718  83.7820  0.00  0.00     0.000 OA
ENDBRANCH 16 26
BRANCH 18 29
ATOM     29   O  ASG B   2       9.159  46.969  80.5060  0.00  0.00     0.000 O
ATOM     30   O  ASG B   2       7.996  48.377  78.8600  0.00  0.00     0.000 OA
ATOM     31   O  ASG B   2       9.372  49.404  80.5760  0.00  0.00     0.000 OA
ATOM     32   O  ASG B   2      10.405  48.136  78.7960  0.00  0.00     0.000 OA
ATOM     33   S  ASG B   2       9.221  48.319  79.6350  0.00  0.00     0.000 S
ENDBRANCH 18 29
BRANCH 15 34
ATOM     34  O4  ASG B   3       9.202  42.822  82.5130  0.00  0.00     0.000 O
BRANCH 34 38
ATOM     35  C1  GCT B   3       9.710  38.862  81.8640  0.00  0.00     0.000 C
ATOM     36  C2  GCT B   3       9.735  39.701  80.6040  0.00  0.00     0.000 C
ATOM     37  C3  GCT B   3       9.978  41.166  80.9350  0.00  0.00     0.000 C
ATOM     38  C4  GCT B   3       8.860  41.668  81.8560  0.00  0.00     0.000 C
ATOM     39  C5  GCT B   3       8.363  40.565  82.8180  0.00  0.00     0.000 C
ATOM     40  O5  GCT B   3       9.447  39.672  83.0040  0.00  0.00     0.000 O
ATOM     41   O  GCT B   3      10.794  39.194  79.8040  0.00  0.00     0.000 O
ATOM     43  HD  GCT B   3      10.859  38.488  79.3070  0.00  0.00     0.000 HD
ATOM     43   O  GCT B   3      10.063  41.908  79.7000  0.00  0.00     0.000 O
ATOM     45  HD  GCT B   3      10.128  41.202  79.2030  0.00  0.00     0.000 HD
BRANCH 39 45
ATOM     45   C  GCT B   3       7.128  39.779  82.4350  0.00  0.00     0.000 C
ATOM     46   O  GCT B   3       6.588  39.972  81.3000  0.00  0.00     0.000 OA
ATOM     47   O  GCT B   3       6.691  38.952  83.2530  0.00  0.00     0.000 OA
ENDBRANCH 39 45
BRANCH 35 48
ATOM     48  O3  ASG B   4       9.242  37.665  81.5800  0.00  0.00     0.000 O
BRANCH 48 51
ATOM     49  C1  ASG B   4      10.904  34.855  83.3210  0.00  0.00     0.000 C
ATOM     50  C2  ASG B   4      10.673  36.005  82.3260  0.00  0.00     0.000 C
ATOM     51  C3  ASG B   4       9.436  36.817  82.6990  0.00  0.00     0.000 C
ATOM     52  C4  ASG B   4       8.236  35.915  82.9340  0.00  0.00     0.000 C
ATOM     53  C5  ASG B   4       8.626  34.867  83.9730  0.00  0.00     0.000 C
ATOM     54  O5  ASG B   4       9.723  34.083  83.4640  0.00  0.00     0.000 O
BRANCH 50 57
ATOM     55   N  ASG B   4      11.906  36.756  82.3850  0.00  0.00     0.000 N
ATOM     57  HD  ASG B   4      12.415  36.173  81.9970  0.00  0.00     0.000 HD
ATOM     57   O  ASG B   4      12.814  35.779  80.5870  0.00  0.00     0.000 OA
ATOM     58   C  ASG B   4      12.847  36.659  81.4420  0.00  0.00     0.000 C
ATOM     59   C  ASG B   4      13.962  37.655  81.5330  0.00  0.00     0.000 C
ENDBRANCH 50 57
BRANCH 52 60
ATOM     60   O  ASG B   4       7.943  35.367  81.5840  0.00  0.00     0.000 O
ATOM     61   O  ASG B   4       5.826  36.673  81.3720  0.00  0.00     0.000 OA
ATOM     62   O  ASG B   4       6.613  35.384  79.5310  0.00  0.00     0.000 OA
ATOM     63   O  ASG B   4       5.936  34.265  81.5330  0.00  0.00     0.000 OA
ATOM     64   S  ASG B   4       6.482  35.486  80.9350  0.00  0.00     0.000 S
ENDBRANCH 52 60
ATOM     65   O  ASG B   4       7.838  33.208  85.5560  0.00  0.00     0.000 O
ATOM     67  HD  ASG B   4       8.424  32.642  85.2590  0.00  0.00     0.000 HD
ATOM     67   O  ASG B   4       7.838  33.208  85.5560  0.00  0.00     0.000 O
ATOM     69  HD  ASG B   4       8.424  32.642  85.2590  0.00  0.00     0.000 HD
ENDBRANCH 48 51
ENDBRANCH 35 48
ENDBRANCH 34 38
ENDBRANCH 15 34
ENDBRANCH 14 17
ENDBRANCH 1 14
TORSDOF 12
ENDMDL
MODEL 7
REMARK VINA RESULT:      -8.3     29.941     36.055
ROOT
ATOM      1  C1  GAD B   1      19.382  30.076  64.6830  0.00  0.00     0.000 C
ATOM      2  C2  GAD B   1      18.886  31.446  64.2110  0.00  0.00     0.000 C
ATOM      3  C3  GAD B   1      19.188  32.510  65.2740  0.00  0.00     0.000 C
ATOM      4  C4  GAD B   1      19.149  31.996  66.7160  0.00  0.00     0.000 C
ATOM      5  C5  GAD B   1      19.023  30.697  67.0550  0.00  0.00     0.000 C
ATOM      6  O5  GAD B   1      18.868  29.748  65.9830  0.00  0.00     0.000 O
ATOM      7   O  GAD B   1      19.437  31.789  62.8860  0.00  0.00     0.000 O
ATOM      9  HD  GAD B   1      19.615  30.942  62.8960  0.00  0.00     0.000 HD
ATOM      9   O  GAD B   1      18.244  33.603  65.2130  0.00  0.00     0.000 O
ATOM     11  HD  GAD B   1      18.423  32.755  65.2240  0.00  0.00     0.000 HD
ENDROOT
BRANCH 5 11
ATOM     11   C  GAD B   1      19.091  30.178  68.4420  0.00  0.00     0.000 C
ATOM     12   O  GAD B   1      18.439  29.117  68.6910  0.00  0.00     0.000 OA
ATOM     13   O  GAD B   1      19.722  30.837  69.3480  0.00  0.00     0.000 OA
ENDBRANCH 5 11
BRANCH 1 14
ATOM     14  O3  ASG B   2      18.923  28.904  64.2040  0.00  0.00     0.000 O
BRANCH 14 17
ATOM     15  C1  ASG B   2      16.863  25.945  65.3330  0.00  0.00     0.000 C
ATOM     16  C2  ASG B   2      18.136  26.706  64.9360  0.00  0.00     0.000 C
ATOM     17  C3  ASG B   2      17.766  28.149  64.5790  0.00  0.00     0.000 C
ATOM     18  C4  ASG B   2      16.759  28.161  63.4450  0.00  0.00     0.000 C
ATOM     19  C5  ASG B   2      15.566  27.291  63.8280  0.00  0.00     0.000 C
ATOM     20  O5  ASG B   2      16.015  25.974  64.2010  0.00  0.00     0.000 O
ATOM     21   C  ASG B   2      14.597  27.109  62.7040  0.00  0.00     0.000 C
ATOM     22   O  ASG B   2      13.647  26.135  63.0600  0.00  0.00     0.000 O
ATOM     24  HD  ASG B   2      13.002  25.563  63.1440  0.00  0.00     0.000 HD
BRANCH 16 26
ATOM     24   N  ASG B   2      19.539  26.474  64.6840  0.00  0.00     0.000 N
ATOM     26  HD  ASG B   2      19.084  27.070  64.2510  0.00  0.00     0.000 HD
ATOM     26   C  ASG B   2      20.504  26.620  65.6110  0.00  0.00     0.000 C
ATOM     27   C  ASG B   2      21.826  26.016  65.2810  0.00  0.00     0.000 C
ATOM     28   O  ASG B   2      20.303  27.215  66.6620  0.00  0.00     0.000 OA
ENDBRANCH 16 26
BRANCH 18 29
ATOM     29   O  ASG B   2      17.466  27.665  62.2560  0.00  0.00     0.000 O
ATOM     30   O  ASG B   2      16.136  28.987  60.6660  0.00  0.00     0.000 OA
ATOM     31   O  ASG B   2      18.423  29.632  61.1620  0.00  0.00     0.000 OA
ATOM     32   O  ASG B   2      17.981  27.621  59.8950  0.00  0.00     0.000 OA
ATOM     33   S  ASG B   2      17.497  28.552  60.9150  0.00  0.00     0.000 S
ENDBRANCH 18 29
BRANCH 15 34
ATOM     34  O4  ASG B   3      17.094  24.610  65.6840  0.00  0.00     0.000 O
BRANCH 34 38
ATOM     35  C1  GCT B   3      17.749  25.319  69.6130  0.00  0.00     0.000 C
ATOM     36  C2  GCT B   3      18.516  24.135  69.0640  0.00  0.00     0.000 C
ATOM     37  C3  GCT B   3      18.576  24.186  67.5440  0.00  0.00     0.000 C
ATOM     38  C4  GCT B   3      17.149  24.170  66.9830  0.00  0.00     0.000 C
ATOM     39  C5  GCT B   3      16.156  24.917  67.9020  0.00  0.00     0.000 C
ATOM     40  O5  GCT B   3      16.910  25.884  68.6110  0.00  0.00     0.000 O
ATOM     41   O  GCT B   3      19.824  24.213  69.6120  0.00  0.00     0.000 O
ATOM     43  HD  GCT B   3      20.138  24.023  70.3970  0.00  0.00     0.000 HD
ATOM     43   O  GCT B   3      19.373  23.077  67.0790  0.00  0.00     0.000 O
ATOM     45  HD  GCT B   3      19.687  22.887  67.8630  0.00  0.00     0.000 HD
BRANCH 39 45
ATOM     45   C  GCT B   3      15.334  24.107  68.8820  0.00  0.00     0.000 C
ATOM     46   O  GCT B   3      14.458  24.689  69.5960  0.00  0.00     0.000 OA
ATOM     47   O  GCT B   3      15.543  22.884  68.9390  0.00  0.00     0.000 OA
ENDBRANCH 39 45
BRANCH 35 48
ATOM     48  O3  ASG B   4      17.487  25.116  70.8860  0.00  0.00     0.000 O
BRANCH 48 51
ATOM     49  C1  ASG B   4      18.359  28.078  72.9240  0.00  0.00     0.000 C
ATOM     50  C2  ASG B   4      18.527  26.849  72.0160  0.00  0.00     0.000 C
ATOM     51  C3  ASG B   4      17.179  26.357  71.4970  0.00  0.00     0.000 C
ATOM     52  C4  ASG B   4      16.180  26.192  72.6310  0.00  0.00     0.000 C
ATOM     53  C5  ASG B   4      16.107  27.511  73.3950  0.00  0.00     0.000 C
ATOM     54  O5  ASG B   4      17.406  27.813  73.9400  0.00  0.00     0.000 O
BRANCH 50 57
ATOM     55   N  ASG B   4      19.455  27.544  71.1530  0.00  0.00     0.000 N
ATOM     57  HD  ASG B   4      20.153  27.481  71.6610  0.00  0.00     0.000 HD
ATOM     57   O  ASG B   4      21.270  26.491  71.9340  0.00  0.00     0.000 OA
ATOM     58   C  ASG B   4      20.754  27.234  71.1050  0.00  0.00     0.000 C
ATOM     59   C  ASG B   4      21.537  27.894  70.0120  0.00  0.00     0.000 C
ENDBRANCH 50 57
BRANCH 52 60
ATOM     60   O  ASG B   4      16.728  25.054  73.4140  0.00  0.00     0.000 O
ATOM     61   O  ASG B   4      14.909  23.508  72.6830  0.00  0.00     0.000 OA
ATOM     62   O  ASG B   4      16.715  22.678  73.9940  0.00  0.00     0.000 OA
ATOM     63   O  ASG B   4      15.218  24.278  74.9520  0.00  0.00     0.000 OA
ATOM     64   S  ASG B   4      15.841  23.757  73.7310  0.00  0.00     0.000 S
ENDBRANCH 52 60
ATOM     65   O  ASG B   4      14.849  28.863  74.9660  0.00  0.00     0.000 O
ATOM     67  HD  ASG B   4      15.576  29.040  75.4010  0.00  0.00     0.000 HD
ATOM     67   O  ASG B   4      14.849  28.863  74.9660  0.00  0.00     0.000 O
ATOM     69  HD  ASG B   4      15.576  29.040  75.4010  0.00  0.00     0.000 HD
ENDBRANCH 48 51
ENDBRANCH 35 48
ENDBRANCH 34 38
ENDBRANCH 15 34
ENDBRANCH 14 17
ENDBRANCH 1 14
TORSDOF 12
ENDMDL
MODEL 8
REMARK VINA RESULT:      -8.2     37.728     41.824
ROOT
ATOM      1  C1  GAD B   1       3.895  52.180  75.3330  0.00  0.00     0.000 C
ATOM      2  C2  GAD B   1       2.636  52.090  74.4660  0.00  0.00     0.000 C
ATOM      3  C3  GAD B   1       1.588  51.204  75.1500  0.00  0.00     0.000 C
ATOM      4  C4  GAD B   1       2.170  50.069  75.9960  0.00  0.00     0.000 C
ATOM      5  C5  GAD B   1       3.482  49.923  76.2710  0.00  0.00     0.000 C
ATOM      6  O5  GAD B   1       4.387  50.878  75.6840  0.00  0.00     0.000 O
ATOM      7   O  GAD B   1       2.119  53.430  74.1280  0.00  0.00     0.000 O
ATOM      9  HD  GAD B   1       2.911  53.651  74.4020  0.00  0.00     0.000 HD
ATOM      9   O  GAD B   1       0.712  50.577  74.1860  0.00  0.00     0.000 O
ATOM     11  HD  GAD B   1       1.504  50.797  74.4610  0.00  0.00     0.000 HD
ENDROOT
BRANCH 5 11
ATOM     11   C  GAD B   1       4.044  48.892  77.1740  0.00  0.00     0.000 C
ATOM     12   O  GAD B   1       5.187  49.129  77.6750  0.00  0.00     0.000 OA
ATOM     13   O  GAD B   1       3.419  47.783  77.3570  0.00  0.00     0.000 OA
ENDBRANCH 5 11
BRANCH 1 14
ATOM     14  O3  ASG B   2       5.111  52.514  74.8610  0.00  0.00     0.000 O
BRANCH 14 17
ATOM     15  C1  ASG B   2       6.810  54.196  71.9350  0.00  0.00     0.000 C
ATOM     16  C2  ASG B   2       6.441  53.040  72.8750  0.00  0.00     0.000 C
ATOM     17  C3  ASG B   2       5.489  53.559  73.9570  0.00  0.00     0.000 C
ATOM     18  C4  ASG B   2       6.148  54.687  74.7290  0.00  0.00     0.000 C
ATOM     19  C5  ASG B   2       6.613  55.758  73.7480  0.00  0.00     0.000 C
ATOM     20  O5  ASG B   2       7.455  55.169  72.7370  0.00  0.00     0.000 O
ATOM     21   C  ASG B   2       7.421  56.832  74.4020  0.00  0.00     0.000 C
ATOM     22   O  ASG B   2       7.988  57.656  73.4140  0.00  0.00     0.000 O
ATOM     24  HD  ASG B   2       8.395  58.241  72.9210  0.00  0.00     0.000 HD
BRANCH 16 26
ATOM     24   N  ASG B   2       5.840  51.878  72.2620  0.00  0.00     0.000 N
ATOM     26  HD  ASG B   2       6.306  52.451  71.8090  0.00  0.00     0.000 HD
ATOM     26   C  ASG B   2       6.123  50.611  72.6140  0.00  0.00     0.000 C
ATOM     27   C  ASG B   2       5.176  49.568  72.1270  0.00  0.00     0.000 C
ATOM     28   O  ASG B   2       7.103  50.334  73.2950  0.00  0.00     0.000 OA
ENDBRANCH 16 26
BRANCH 18 29
ATOM     29   O  ASG B   2       7.256  54.084  75.4830  0.00  0.00     0.000 O
ATOM     30   O  ASG B   2       7.011  55.571  77.4250  0.00  0.00     0.000 OA
ATOM     31   O  ASG B   2       6.292  53.257  77.5720  0.00  0.00     0.000 OA
ATOM     32   O  ASG B   2       8.647  53.786  77.4360  0.00  0.00     0.000 OA
ATOM     33   S  ASG B   2       7.284  54.187  77.0860  0.00  0.00     0.000 S
ENDBRANCH 18 29
BRANCH 15 34
ATOM     34  O4  ASG B   3       7.677  53.825  70.9020  0.00  0.00     0.000 O
BRANCH 34 38
ATOM     35  C1  GCT B   3       6.879  54.791  67.0550  0.00  0.00     0.000 C
ATOM     36  C2  GCT B   3       8.348  54.573  67.3430  0.00  0.00     0.000 C
ATOM     37  C3  GCT B   3       8.537  53.806  68.6440  0.00  0.00     0.000 C
ATOM     38  C4  GCT B   3       7.908  54.601  69.7940  0.00  0.00     0.000 C
ATOM     39  C5  GCT B   3       6.649  55.375  69.3430  0.00  0.00     0.000 C
ATOM     40  O5  GCT B   3       6.107  54.662  68.2450  0.00  0.00     0.000 O
ATOM     41   O  GCT B   3       8.867  53.826  66.2520  0.00  0.00     0.000 O
ATOM     43  HD  GCT B   3       9.082  54.052  65.4440  0.00  0.00     0.000 HD
ATOM     43   O  GCT B   3       9.948  53.565  68.8350  0.00  0.00     0.000 O
ATOM     45  HD  GCT B   3      10.163  53.791  68.0270  0.00  0.00     0.000 HD
BRANCH 39 45
ATOM     45   C  GCT B   3       6.797  56.834  68.9670  0.00  0.00     0.000 C
ATOM     46   O  GCT B   3       7.953  57.361  68.9450  0.00  0.00     0.000 OA
ATOM     47   O  GCT B   3       5.766  57.464  68.6780  0.00  0.00     0.000 OA
ENDBRANCH 39 45
BRANCH 35 48
ATOM     48  O3  ASG B   4       6.751  55.669  66.0840  0.00  0.00     0.000 O
BRANCH 48 51
ATOM     49  C1  ASG B   4       6.236  55.333  62.4360  0.00  0.00     0.000 C
ATOM     50  C2  ASG B   4       6.878  55.738  63.7730  0.00  0.00     0.000 C
ATOM     51  C3  ASG B   4       6.211  55.022  64.9450  0.00  0.00     0.000 C
ATOM     52  C4  ASG B   4       4.699  55.159  64.8850  0.00  0.00     0.000 C
ATOM     53  C5  ASG B   4       4.232  54.675  63.5150  0.00  0.00     0.000 C
ATOM     54  O5  ASG B   4       4.829  55.498  62.4950  0.00  0.00     0.000 O
BRANCH 50 57
ATOM     55   N  ASG B   4       8.256  55.384  63.5230  0.00  0.00     0.000 N
ATOM     57  HD  ASG B   4       8.439  56.022  62.9660  0.00  0.00     0.000 HD
ATOM     57   O  ASG B   4       8.899  57.467  63.0090  0.00  0.00     0.000 OA
ATOM     58   C  ASG B   4       9.191  56.302  63.2590  0.00  0.00     0.000 C
ATOM     59   C  ASG B   4      10.603  55.801  63.2370  0.00  0.00     0.000 C
ENDBRANCH 50 57
BRANCH 52 60
ATOM     60   O  ASG B   4       4.470  56.605  65.1400  0.00  0.00     0.000 O
ATOM     61   O  ASG B   4       2.956  56.158  67.0730  0.00  0.00     0.000 OA
ATOM     62   O  ASG B   4       3.575  58.396  66.5450  0.00  0.00     0.000 OA
ATOM     63   O  ASG B   4       2.252  57.154  64.9870  0.00  0.00     0.000 OA
ATOM     64   S  ASG B   4       3.255  57.109  66.0550  0.00  0.00     0.000 S
ENDBRANCH 52 60
ATOM     65   O  ASG B   4       2.356  53.925  62.1740  0.00  0.00     0.000 O
ATOM     67  HD  ASG B   4       2.602  54.450  61.5310  0.00  0.00     0.000 HD
ATOM     67   O  ASG B   4       2.356  53.925  62.1740  0.00  0.00     0.000 O
ATOM     69  HD  ASG B   4       2.602  54.450  61.5310  0.00  0.00     0.000 HD
ENDBRANCH 48 51
ENDBRANCH 35 48
ENDBRANCH 34 38
ENDBRANCH 15 34
ENDBRANCH 14 17
ENDBRANCH 1 14
TORSDOF 12
ENDMDL
MODEL 9
REMARK VINA RESULT:      -8.2     22.193     28.131
ROOT
ATOM      1  C1  GAD B   1      21.687  29.506  55.1950  0.00  0.00     0.000 C
ATOM      2  C2  GAD B   1      20.651  30.030  54.1970  0.00  0.00     0.000 C
ATOM      3  C3  GAD B   1      20.390  31.521  54.4420  0.00  0.00     0.000 C
ATOM      4  C4  GAD B   1      20.520  31.956  55.9050  0.00  0.00     0.000 C
ATOM      5  C5  GAD B   1      20.976  31.163  56.8950  0.00  0.00     0.000 C
ATOM      6  O5  GAD B   1      21.316  29.807  56.5480  0.00  0.00     0.000 O
ATOM      7   O  GAD B   1      21.049  29.741  52.8060  0.00  0.00     0.000 O
ATOM      9  HD  GAD B   1      21.589  29.206  53.2200  0.00  0.00     0.000 HD
ATOM      9   O  GAD B   1      19.060  31.903  54.0270  0.00  0.00     0.000 O
ATOM     11  HD  GAD B   1      19.600  31.368  54.4420  0.00  0.00     0.000 HD
ENDROOT
BRANCH 5 11
ATOM     11   C  GAD B   1      21.205  31.604  58.2910  0.00  0.00     0.000 C
ATOM     12   O  GAD B   1      21.059  30.731  59.2010  0.00  0.00     0.000 OA
ATOM     13   O  GAD B   1      21.459  32.839  58.5440  0.00  0.00     0.000 OA
ENDBRANCH 5 11
BRANCH 1 14
ATOM     14  O3  ASG B   2      21.828  28.207  55.5200  0.00  0.00     0.000 O
BRANCH 14 17
ATOM     15  C1  ASG B   2      20.571  25.600  57.9490  0.00  0.00     0.000 C
ATOM     16  C2  ASG B   2      21.597  26.531  57.2880  0.00  0.00     0.000 C
ATOM     17  C3  ASG B   2      20.911  27.318  56.1670  0.00  0.00     0.000 C
ATOM     18  C4  ASG B   2      20.323  26.361  55.1480  0.00  0.00     0.000 C
ATOM     19  C5  ASG B   2      19.406  25.373  55.8620  0.00  0.00     0.000 C
ATOM     20  O5  ASG B   2      20.120  24.723  56.9330  0.00  0.00     0.000 O
ATOM     21   C  ASG B   2      18.911  24.287  54.9620  0.00  0.00     0.000 C
ATOM     22   O  ASG B   2      18.255  23.308  55.7300  0.00  0.00     0.000 O
ATOM     24  HD  ASG B   2      17.828  22.636  56.0700  0.00  0.00     0.000 HD
BRANCH 16 26
ATOM     24   N  ASG B   2      22.267  27.473  58.1550  0.00  0.00     0.000 N
ATOM     26  HD  ASG B   2      21.881  26.760  58.4580  0.00  0.00     0.000 HD
ATOM     26   C  ASG B   2      23.573  27.783  58.0640  0.00  0.00     0.000 C
ATOM     27   C  ASG B   2      24.010  29.005  58.7970  0.00  0.00     0.000 C
ATOM     28   O  ASG B   2      24.354  27.098  57.4150  0.00  0.00     0.000 OA
ENDBRANCH 16 26
BRANCH 18 29
ATOM     29   O  ASG B   2      21.460  25.707  54.4860  0.00  0.00     0.000 O
ATOM     30   O  ASG B   2      20.304  25.422  52.3350  0.00  0.00     0.000 OA
ATOM     31   O  ASG B   2      22.032  27.111  52.5670  0.00  0.00     0.000 OA
ATOM     32   O  ASG B   2      22.621  24.766  52.5870  0.00  0.00     0.000 OA
ATOM     33   S  ASG B   2      21.600  25.770  52.8860  0.00  0.00     0.000 S
ENDBRANCH 18 29
BRANCH 15 34
ATOM     34  O4  ASG B   3      21.099  24.836  58.9960  0.00  0.00     0.000 O
BRANCH 34 38
ATOM     35  C1  GCT B   3      20.602  27.540  61.9630  0.00  0.00     0.000 C
ATOM     36  C2  GCT B   3      21.674  26.509  62.2430  0.00  0.00     0.000 C
ATOM     37  C3  GCT B   3      22.109  25.817  60.9580  0.00  0.00     0.000 C
ATOM     38  C4  GCT B   3      20.896  25.129  60.3210  0.00  0.00     0.000 C
ATOM     39  C5  GCT B   3      19.589  25.920  60.5580  0.00  0.00     0.000 C
ATOM     40  O5  GCT B   3      19.962  27.278  60.7190  0.00  0.00     0.000 O
ATOM     41   O  GCT B   3      22.766  27.209  62.8200  0.00  0.00     0.000 O
ATOM     43  HD  GCT B   3      22.898  27.527  63.6150  0.00  0.00     0.000 HD
ATOM     43   O  GCT B   3      23.176  24.897  61.2710  0.00  0.00     0.000 O
ATOM     45  HD  GCT B   3      23.307  25.215  62.0650  0.00  0.00     0.000 HD
BRANCH 39 45
ATOM     45   C  GCT B   3      18.696  25.506  61.7070  0.00  0.00     0.000 C
ATOM     46   O  GCT B   3      17.619  26.144  61.9250  0.00  0.00     0.000 OA
ATOM     47   O  GCT B   3      19.051  24.534  62.3940  0.00  0.00     0.000 OA
ENDBRANCH 39 45
BRANCH 35 48
ATOM     48  O3  ASG B   4      20.064  27.927  63.0990  0.00  0.00     0.000 O
BRANCH 48 51
ATOM     49  C1  ASG B   4      20.307  30.905  65.2820  0.00  0.00     0.000 C
ATOM     50  C2  ASG B   4      20.164  29.435  64.8530  0.00  0.00     0.000 C
ATOM     51  C3  ASG B   4      20.459  29.262  63.3660  0.00  0.00     0.000 C
ATOM     52  C4  ASG B   4      19.673  30.258  62.5290  0.00  0.00     0.000 C
ATOM     53  C5  ASG B   4      19.966  31.659  63.0610  0.00  0.00     0.000 C
ATOM     54  O5  ASG B   4      19.537  31.742  64.4340  0.00  0.00     0.000 O
BRANCH 50 57
ATOM     55   N  ASG B   4      20.840  28.283  65.4040  0.00  0.00     0.000 N
ATOM     57  HD  ASG B   4      20.658  28.430  66.2370  0.00  0.00     0.000 HD
ATOM     57   O  ASG B   4      19.537  28.144  67.2200  0.00  0.00     0.000 OA
ATOM     58   C  ASG B   4      20.406  27.657  66.5020  0.00  0.00     0.000 C
ATOM     59   C  ASG B   4      21.084  26.360  66.8190  0.00  0.00     0.000 C
ENDBRANCH 50 57
BRANCH 52 60
ATOM     60   O  ASG B   4      18.264  29.817  62.6950  0.00  0.00     0.000 O
ATOM     61   O  ASG B   4      17.904  29.613  60.2330  0.00  0.00     0.000 OA
ATOM     62   O  ASG B   4      16.196  28.922  61.7420  0.00  0.00     0.000 OA
ATOM     63   O  ASG B   4      16.802  31.234  61.6460  0.00  0.00     0.000 OA
ATOM     64   S  ASG B   4      17.232  29.843  61.4680  0.00  0.00     0.000 S
ENDBRANCH 52 60
ATOM     65   O  ASG B   4      19.874  34.042  62.6200  0.00  0.00     0.000 O
ATOM     67  HD  ASG B   4      19.542  34.178  63.4080  0.00  0.00     0.000 HD
ATOM     67   O  ASG B   4      19.874  34.042  62.6200  0.00  0.00     0.000 O
ATOM     69  HD  ASG B   4      19.542  34.178  63.4080  0.00  0.00     0.000 HD
ENDBRANCH 48 51
ENDBRANCH 35 48
ENDBRANCH 34 38
ENDBRANCH 15 34
ENDBRANCH 14 17
ENDBRANCH 1 14
TORSDOF 12
ENDMDL
MODEL 10
REMARK VINA RESULT:      -8.1     25.200     29.869
ROOT
ATOM      1  C1  GAD B   1      10.888  58.948  49.5530  0.00  0.00     0.000 C
ATOM      2  C2  GAD B   1      12.380  58.656  49.7400  0.00  0.00     0.000 C
ATOM      3  C3  GAD B   1      12.578  57.629  50.8620  0.00  0.00     0.000 C
ATOM      4  C4  GAD B   1      11.536  57.703  51.9820  0.00  0.00     0.000 C
ATOM      5  C5  GAD B   1      10.435  58.479  51.9440  0.00  0.00     0.000 C
ATOM      6  O5  GAD B   1      10.265  59.324  50.7900  0.00  0.00     0.000 O
ATOM      7   O  GAD B   1      13.011  58.245  48.4710  0.00  0.00     0.000 O
ATOM      9  HD  GAD B   1      12.274  58.578  48.1600  0.00  0.00     0.000 HD
ATOM      9   O  GAD B   1      13.865  57.784  51.5020  0.00  0.00     0.000 O
ATOM     11  HD  GAD B   1      13.128  58.116  51.1910  0.00  0.00     0.000 HD
ENDROOT
BRANCH 5 11
ATOM     11   C  GAD B   1       9.368  58.479  52.9720  0.00  0.00     0.000 C
ATOM     12   O  GAD B   1       9.702  58.138  54.1490  0.00  0.00     0.000 OA
ATOM     13   O  GAD B   1       8.152  58.737  52.6410  0.00  0.00     0.000 OA
ENDBRANCH 5 11
BRANCH 1 14
ATOM     14  O3  ASG B   2      10.408  60.062  48.9690  0.00  0.00     0.000 O
BRANCH 14 17
ATOM     15  C1  ASG B   2       7.301  61.044  47.0560  0.00  0.00     0.000 C
ATOM     16  C2  ASG B   2       8.762  60.612  47.2440  0.00  0.00     0.000 C
ATOM     17  C3  ASG B   2       9.054  60.468  48.7410  0.00  0.00     0.000 C
ATOM     18  C4  ASG B   2       8.789  61.784  49.4480  0.00  0.00     0.000 C
ATOM     19  C5  ASG B   2       7.368  62.242  49.1350  0.00  0.00     0.000 C
ATOM     20  O5  ASG B   2       7.170  62.293  47.7080  0.00  0.00     0.000 O
ATOM     21   C  ASG B   2       7.074  63.612  49.6550  0.00  0.00     0.000 C
ATOM     22   O  ASG B   2       5.835  64.046  49.1490  0.00  0.00     0.000 O
ATOM     24  HD  ASG B   2       5.099  64.438  48.9180  0.00  0.00     0.000 HD
BRANCH 16 26
ATOM     24   N  ASG B   2       9.170  59.385  46.5990  0.00  0.00     0.000 N
ATOM     26  HD  ASG B   2       8.463  59.822  46.3570  0.00  0.00     0.000 HD
ATOM     26   C  ASG B   2      10.349  59.220  45.9720  0.00  0.00     0.000 C
ATOM     27   C  ASG B   2      10.741  57.814  45.6720  0.00  0.00     0.000 C
ATOM     28   O  ASG B   2      11.056  60.173  45.6680  0.00  0.00     0.000 OA
ENDBRANCH 16 26
BRANCH 18 29
ATOM     29   O  ASG B   2       9.810  62.726  48.9710  0.00  0.00     0.000 O
ATOM     30   O  ASG B   2      10.026  63.896  51.1230  0.00  0.00     0.000 OA
ATOM     31   O  ASG B   2      11.774  62.381  50.3880  0.00  0.00     0.000 OA
ATOM     32   O  ASG B   2      11.441  64.487  49.2490  0.00  0.00     0.000 OA
ATOM     33   S  ASG B   2      10.825  63.405  50.0170  0.00  0.00     0.000 S
ENDBRANCH 18 29
BRANCH 15 34
ATOM     34  O4  ASG B   3       6.929  61.199  45.7160  0.00  0.00     0.000 O
BRANCH 34 38
ATOM     35  C1  GCT B   3       6.236  63.552  42.4990  0.00  0.00     0.000 C
ATOM     36  C2  GCT B   3       7.696  63.211  42.7090  0.00  0.00     0.000 C
ATOM     37  C3  GCT B   3       7.843  62.008  43.6310  0.00  0.00     0.000 C
ATOM     38  C4  GCT B   3       7.197  62.329  44.9840  0.00  0.00     0.000 C
ATOM     39  C5  GCT B   3       5.960  63.243  44.8340  0.00  0.00     0.000 C
ATOM     40  O5  GCT B   3       5.435  63.004  43.5400  0.00  0.00     0.000 O
ATOM     41   O  GCT B   3       8.230  62.916  41.4260  0.00  0.00     0.000 O
ATOM     43  HD  GCT B   3       8.468  63.424  40.7660  0.00  0.00     0.000 HD
ATOM     43   O  GCT B   3       9.245  61.683  43.7420  0.00  0.00     0.000 O
ATOM     45  HD  GCT B   3       9.483  62.191  43.0810  0.00  0.00     0.000 HD
BRANCH 39 45
ATOM     45   C  GCT B   3       6.137  64.732  45.0360  0.00  0.00     0.000 C
ATOM     46   O  GCT B   3       7.306  65.211  45.1750  0.00  0.00     0.000 OA
ATOM     47   O  GCT B   3       5.116  65.439  45.0430  0.00  0.00     0.000 OA
ENDBRANCH 39 45
BRANCH 35 48
ATOM     48  O3  ASG B   4       6.144  64.733  41.9260  0.00  0.00     0.000 O
BRANCH 48 51
ATOM     49  C1  ASG B   4       4.540  65.747  38.7500  0.00  0.00     0.000 C
ATOM     50  C2  ASG B   4       5.639  65.459  39.7860  0.00  0.00     0.000 C
ATOM     51  C3  ASG B   4       5.078  64.710  40.9920  0.00  0.00     0.000 C
ATOM     52  C4  ASG B   4       3.838  65.398  41.5390  0.00  0.00     0.000 C
ATOM     53  C5  ASG B   4       2.843  65.563  40.3940  0.00  0.00     0.000 C
ATOM     54  O5  ASG B   4       3.434  66.385  39.3690  0.00  0.00     0.000 O
BRANCH 50 57
ATOM     55   N  ASG B   4       6.663  64.699  39.1060  0.00  0.00     0.000 N
ATOM     57  HD  ASG B   4       6.936  65.325  38.5740  0.00  0.00     0.000 HD
ATOM     57   O  ASG B   4       7.918  66.482  38.5950  0.00  0.00     0.000 OA
ATOM     58   C  ASG B   4       7.785  65.263  38.6500  0.00  0.00     0.000 C
ATOM     59   C  ASG B   4       8.837  64.313  38.1650  0.00  0.00     0.000 C
ENDBRANCH 50 57
BRANCH 52 60
ATOM     60   O  ASG B   4       4.363  66.674  42.0900  0.00  0.00     0.000 O
ATOM     61   O  ASG B   4       2.477  66.900  43.7100  0.00  0.00     0.000 OA
ATOM     62   O  ASG B   4       4.280  68.453  43.7670  0.00  0.00     0.000 OA
ATOM     63   O  ASG B   4       2.860  68.386  41.8440  0.00  0.00     0.000 OA
ATOM     64   S  ASG B   4       3.439  67.645  42.9690  0.00  0.00     0.000 S
ENDBRANCH 52 60
ATOM     65   O  ASG B   4       0.539  65.997  39.7720  0.00  0.00     0.000 O
ATOM     67  HD  ASG B   4       0.804  66.567  39.1760  0.00  0.00     0.000 HD
ATOM     67   O  ASG B   4       0.539  65.997  39.7720  0.00  0.00     0.000 O
ATOM     69  HD  ASG B   4       0.804  66.567  39.1760  0.00  0.00     0.000 HD
ENDBRANCH 48 51
ENDBRANCH 35 48
ENDBRANCH 34 38
ENDBRANCH 15 34
ENDBRANCH 14 17
ENDBRANCH 1 14
TORSDOF 12
ENDMDL
MODEL 11
REMARK VINA RESULT:      -8.1     29.684     35.967
ROOT
ATOM      1  C1  GAD B   1      18.747  30.950  64.7560  0.00  0.00     0.000 C
ATOM      2  C2  GAD B   1      19.488  31.326  66.0430  0.00  0.00     0.000 C
ATOM      3  C3  GAD B   1      19.943  32.789  65.9790  0.00  0.00     0.000 C
ATOM      4  C4  GAD B   1      20.289  33.286  64.5730  0.00  0.00     0.000 C
ATOM      5  C5  GAD B   1      20.074  32.581  63.4450  0.00  0.00     0.000 C
ATOM      6  O5  GAD B   1      19.525  31.257  63.5900  0.00  0.00     0.000 O
ATOM      7   O  GAD B   1      18.675  31.032  67.2380  0.00  0.00     0.000 O
ATOM      9  HD  GAD B   1      18.233  30.572  66.6520  0.00  0.00     0.000 HD
ATOM      9   O  GAD B   1      21.122  33.014  66.7840  0.00  0.00     0.000 O
ATOM     11  HD  GAD B   1      20.681  32.554  66.1980  0.00  0.00     0.000 HD
ENDROOT
BRANCH 5 11
ATOM     11   C  GAD B   1      20.305  33.093  62.0730  0.00  0.00     0.000 C
ATOM     12   O  GAD B   1      19.798  34.222  61.7880  0.00  0.00     0.000 OA
ATOM     13   O  GAD B   1      20.923  32.369  61.2090  0.00  0.00     0.000 OA
ENDBRANCH 5 11
BRANCH 1 14
ATOM     14  O3  ASG B   2      18.591  29.685  64.3210  0.00  0.00     0.000 O
BRANCH 14 17
ATOM     15  C1  ASG B   2      17.446  26.339  65.6520  0.00  0.00     0.000 C
ATOM     16  C2  ASG B   2      18.451  27.396  65.1750  0.00  0.00     0.000 C
ATOM     17  C3  ASG B   2      17.693  28.664  64.7720  0.00  0.00     0.000 C
ATOM     18  C4  ASG B   2      16.694  28.344  63.6760  0.00  0.00     0.000 C
ATOM     19  C5  ASG B   2      15.793  27.204  64.1400  0.00  0.00     0.000 C
ATOM     20  O5  ASG B   2      16.594  26.078  64.5510  0.00  0.00     0.000 O
ATOM     21   C  ASG B   2      14.885  26.708  63.0610  0.00  0.00     0.000 C
ATOM     22   O  ASG B   2      14.246  25.532  63.4940  0.00  0.00     0.000 O
ATOM     24  HD  ASG B   2      13.784  24.811  63.6260  0.00  0.00     0.000 HD
BRANCH 16 26
ATOM     24   N  ASG B   2      19.518  27.645  66.1180  0.00  0.00     0.000 N
ATOM     26  HD  ASG B   2      19.113  26.881  66.0680  0.00  0.00     0.000 HD
ATOM     26   C  ASG B   2      20.769  27.992  65.7640  0.00  0.00     0.000 C
ATOM     27   C  ASG B   2      21.630  28.537  66.8520  0.00  0.00     0.000 C
ATOM     28   O  ASG B   2      21.172  27.865  64.6150  0.00  0.00     0.000 OA
ENDBRANCH 16 26
BRANCH 18 29
ATOM     29   O  ASG B   2      17.481  27.999  62.4830  0.00  0.00     0.000 O
ATOM     30   O  ASG B   2      15.791  28.803  60.8890  0.00  0.00     0.000 OA
ATOM     31   O  ASG B   2      17.816  30.089  61.2590  0.00  0.00     0.000 OA
ATOM     32   O  ASG B   2      17.925  27.966  60.1080  0.00  0.00     0.000 OA
ATOM     33   S  ASG B   2      17.226  28.781  61.1020  0.00  0.00     0.000 S
ENDBRANCH 18 29
BRANCH 15 34
ATOM     34  O4  ASG B   3      18.040  25.137  66.0510  0.00  0.00     0.000 O
BRANCH 34 38
ATOM     35  C1  GCT B   3      17.564  25.344  70.0620  0.00  0.00     0.000 C
ATOM     36  C2  GCT B   3      18.543  24.281  69.6120  0.00  0.00     0.000 C
ATOM     37  C3  GCT B   3      19.002  24.537  68.1840  0.00  0.00     0.000 C
ATOM     38  C4  GCT B   3      17.782  24.531  67.2540  0.00  0.00     0.000 C
ATOM     39  C5  GCT B   3      16.523  25.101  67.9450  0.00  0.00     0.000 C
ATOM     40  O5  GCT B   3      16.980  25.999  68.9420  0.00  0.00     0.000 O
ATOM     41   O  GCT B   3      19.647  24.346  70.5040  0.00  0.00     0.000 O
ATOM     43  HD  GCT B   3      19.754  24.067  71.3170  0.00  0.00     0.000 HD
ATOM     43   O  GCT B   3      19.982  23.539  67.8300  0.00  0.00     0.000 O
ATOM     45  HD  GCT B   3      20.089  23.260  68.6430  0.00  0.00     0.000 HD
BRANCH 39 45
ATOM     45   C  GCT B   3      15.538  24.130  68.5600  0.00  0.00     0.000 C
ATOM     46   O  GCT B   3      14.534  24.576  69.2000  0.00  0.00     0.000 OA
ATOM     47   O  GCT B   3      15.747  22.916  68.4000  0.00  0.00     0.000 OA
ENDBRANCH 39 45
BRANCH 35 48
ATOM     48  O3  ASG B   4      16.989  24.960  71.1820  0.00  0.00     0.000 O
BRANCH 48 51
ATOM     49  C1  ASG B   4      17.615  27.868  73.3830  0.00  0.00     0.000 C
ATOM     50  C2  ASG B   4      17.876  26.734  72.3770  0.00  0.00     0.000 C
ATOM     51  C3  ASG B   4      16.569  26.107  71.9010  0.00  0.00     0.000 C
ATOM     52  C4  ASG B   4      15.676  25.738  73.0740  0.00  0.00     0.000 C
ATOM     53  C5  ASG B   4      15.488  26.982  73.9380  0.00  0.00     0.000 C
ATOM     54  O5  ASG B   4      16.772  27.414  74.4290  0.00  0.00     0.000 O
BRANCH 50 57
ATOM     55   N  ASG B   4      18.678  27.800  71.8230  0.00  0.00     0.000 N
ATOM     57  HD  ASG B   4      19.409  27.631  72.2560  0.00  0.00     0.000 HD
ATOM     57   O  ASG B   4      20.631  26.742  72.1130  0.00  0.00     0.000 OA
ATOM     58   C  ASG B   4      19.996  27.678  71.6360  0.00  0.00     0.000 C
ATOM     59   C  ASG B   4      20.645  28.781  70.8580  0.00  0.00     0.000 C
ENDBRANCH 50 57
BRANCH 52 60
ATOM     60   O  ASG B   4      16.412  24.631  73.7370  0.00  0.00     0.000 O
ATOM     61   O  ASG B   4      14.550  23.007  73.3830  0.00  0.00     0.000 OA
ATOM     62   O  ASG B   4      16.611  22.263  74.3150  0.00  0.00     0.000 OA
ATOM     63   O  ASG B   4      15.267  23.813  75.5440  0.00  0.00     0.000 OA
ATOM     64   S  ASG B   4      15.659  23.304  74.2270  0.00  0.00     0.000 S
ENDBRANCH 52 60
ATOM     65   O  ASG B   4      14.177  28.051  75.6750  0.00  0.00     0.000 O
ATOM     67  HD  ASG B   4      14.904  28.291  76.0800  0.00  0.00     0.000 HD
ATOM     67   O  ASG B   4      14.177  28.051  75.6750  0.00  0.00     0.000 O
ATOM     69  HD  ASG B   4      14.904  28.291  76.0800  0.00  0.00     0.000 HD
ENDBRANCH 48 51
ENDBRANCH 35 48
ENDBRANCH 34 38
ENDBRANCH 15 34
ENDBRANCH 14 17
ENDBRANCH 1 14
TORSDOF 12
ENDMDL
MODEL 12
REMARK VINA RESULT:      -8.0      7.523     11.166
ROOT
ATOM      1  C1  GAD B   1      17.823  27.105  33.6370  0.00  0.00     0.000 C
ATOM      2  C2  GAD B   1      16.992  27.575  34.8340  0.00  0.00     0.000 C
ATOM      3  C3  GAD B   1      15.509  27.644  34.4520  0.00  0.00     0.000 C
ATOM      4  C4  GAD B   1      15.247  28.006  32.9880  0.00  0.00     0.000 C
ATOM      5  C5  GAD B   1      16.207  28.107  32.0470  0.00  0.00     0.000 C
ATOM      6  O5  GAD B   1      17.568  27.904  32.4720  0.00  0.00     0.000 O
ATOM      7   O  GAD B   1      17.238  26.735  36.0230  0.00  0.00     0.000 O
ATOM      9  HD  GAD B   1      17.916  26.496  35.5390  0.00  0.00     0.000 HD
ATOM      9   O  GAD B   1      14.802  28.627  35.2410  0.00  0.00     0.000 O
ATOM     11  HD  GAD B   1      15.480  28.388  34.7570  0.00  0.00     0.000 HD
ENDROOT
BRANCH 5 11
ATOM     11   C  GAD B   1      15.955  28.352  30.6080  0.00  0.00     0.000 C
ATOM     12   O  GAD B   1      16.765  29.123  30.0050  0.00  0.00     0.000 OA
ATOM     13   O  GAD B   1      14.911  27.859  30.0420  0.00  0.00     0.000 OA
ENDBRANCH 5 11
BRANCH 1 14
ATOM     14  O3  ASG B   2      19.144  27.328  33.5040  0.00  0.00     0.000 O
BRANCH 14 17
ATOM     15  C1  ASG B   2      22.236  29.012  34.8750  0.00  0.00     0.000 C
ATOM     16  C2  ASG B   2      21.246  28.546  33.7990  0.00  0.00     0.000 C
ATOM     17  C3  ASG B   2      20.100  27.782  34.4690  0.00  0.00     0.000 C
ATOM     18  C4  ASG B   2      20.648  26.597  35.2410  0.00  0.00     0.000 C
ATOM     19  C5  ASG B   2      21.718  27.087  36.2120  0.00  0.00     0.000 C
ATOM     20  O5  ASG B   2      22.721  27.839  35.5020  0.00  0.00     0.000 O
ATOM     21   C  ASG B   2      22.432  25.968  36.8990  0.00  0.00     0.000 C
ATOM     22   O  ASG B   2      23.534  26.483  37.6060  0.00  0.00     0.000 O
ATOM     24  HD  ASG B   2      24.235  26.657  38.0840  0.00  0.00     0.000 HD
BRANCH 16 26
ATOM     24   N  ASG B   2      20.764  29.602  32.9380  0.00  0.00     0.000 N
ATOM     26  HD  ASG B   2      21.531  29.645  33.3390  0.00  0.00     0.000 HD
ATOM     26   C  ASG B   2      20.471  29.436  31.6350  0.00  0.00     0.000 C
ATOM     27   C  ASG B   2      19.673  30.523  31.0000  0.00  0.00     0.000 C
ATOM     28   O  ASG B   2      20.839  28.448  31.0120  0.00  0.00     0.000 OA
ENDBRANCH 16 26
BRANCH 18 29
ATOM     29   O  ASG B   2      21.172  25.656  34.2430  0.00  0.00     0.000 O
ATOM     30   O  ASG B   2      20.689  23.652  35.5820  0.00  0.00     0.000 OA
ATOM     31   O  ASG B   2      19.314  24.180  33.6530  0.00  0.00     0.000 OA
ATOM     32   O  ASG B   2      21.599  23.453  33.3470  0.00  0.00     0.000 OA
ATOM     33   S  ASG B   2      20.643  24.139  34.2160  0.00  0.00     0.000 S
ENDBRANCH 18 29
BRANCH 15 34
ATOM     34  O4  ASG B   3      23.324  29.728  34.3640  0.00  0.00     0.000 O
BRANCH 34 38
ATOM     35  C1  GCT B   3      22.110  33.587  34.3570  0.00  0.00     0.000 C
ATOM     36  C2  GCT B   3      23.473  33.369  33.7350  0.00  0.00     0.000 C
ATOM     37  C3  GCT B   3      23.675  31.904  33.3750  0.00  0.00     0.000 C
ATOM     38  C4  GCT B   3      23.554  31.052  34.6440  0.00  0.00     0.000 C
ATOM     39  C5  GCT B   3      22.524  31.634  35.6380  0.00  0.00     0.000 C
ATOM     40  O5  GCT B   3      21.587  32.366  34.8660  0.00  0.00     0.000 O
ATOM     41   O  GCT B   3      23.516  34.174  32.5660  0.00  0.00     0.000 O
ATOM     43  HD  GCT B   3      23.625  35.025  32.4500  0.00  0.00     0.000 HD
ATOM     43   O  GCT B   3      24.956  31.763  32.7250  0.00  0.00     0.000 O
ATOM     45  HD  GCT B   3      25.065  32.615  32.6090  0.00  0.00     0.000 HD
BRANCH 39 45
ATOM     45   C  GCT B   3      23.027  32.503  36.7690  0.00  0.00     0.000 C
ATOM     46   O  GCT B   3      22.194  33.045  37.5630  0.00  0.00     0.000 OA
ATOM     47   O  GCT B   3      24.255  32.643  36.8880  0.00  0.00     0.000 OA
ENDBRANCH 39 45
BRANCH 35 48
ATOM     48  O3  ASG B   4      22.064  34.788  34.8930  0.00  0.00     0.000 O
BRANCH 48 51
ATOM     49  C1  ASG B   4      19.285  37.009  33.8750  0.00  0.00     0.000 C
ATOM     50  C2  ASG B   4      20.622  36.250  33.8240  0.00  0.00     0.000 C
ATOM     51  C3  ASG B   4      20.715  35.218  34.9440  0.00  0.00     0.000 C
ATOM     52  C4  ASG B   4      20.374  35.836  36.2910  0.00  0.00     0.000 C
ATOM     53  C5  ASG B   4      19.006  36.503  36.1730  0.00  0.00     0.000 C
ATOM     54  O5  ASG B   4      19.070  37.538  35.1730  0.00  0.00     0.000 O
BRANCH 50 57
ATOM     55   N  ASG B   4      20.404  35.852  32.4520  0.00  0.00     0.000 N
ATOM     57  HD  ASG B   4      20.617  36.603  32.0790  0.00  0.00     0.000 HD
ATOM     57   O  ASG B   4      21.868  37.312  31.5920  0.00  0.00     0.000 OA
ATOM     58   C  ASG B   4      21.126  36.346  31.4420  0.00  0.00     0.000 C
ATOM     59   C  ASG B   4      20.928  35.678  30.1160  0.00  0.00     0.000 C
ENDBRANCH 50 57
BRANCH 52 60
ATOM     60   O  ASG B   4      21.499  36.774  36.5380  0.00  0.00     0.000 O
ATOM     61   O  ASG B   4      21.659  36.148  38.9490  0.00  0.00     0.000 OA
ATOM     62   O  ASG B   4      23.262  37.632  38.0010  0.00  0.00     0.000 OA
ATOM     63   O  ASG B   4      20.976  38.321  38.1440  0.00  0.00     0.000 OA
ATOM     64   S  ASG B   4      21.916  37.202  38.0260  0.00  0.00     0.000 S
ENDBRANCH 52 60
ATOM     65   O  ASG B   4      17.099  37.414  37.3630  0.00  0.00     0.000 O
ATOM     67  HD  ASG B   4      17.109  38.112  36.8500  0.00  0.00     0.000 HD
ATOM     67   O  ASG B   4      17.099  37.414  37.3630  0.00  0.00     0.000 O
ATOM     69  HD  ASG B   4      17.109  38.112  36.8500  0.00  0.00     0.000 HD
ENDBRANCH 48 51
ENDBRANCH 35 48
ENDBRANCH 34 38
ENDBRANCH 15 34
ENDBRANCH 14 17
ENDBRANCH 1 14
TORSDOF 12
ENDMDL
MODEL 13
REMARK VINA RESULT:      -8.0     22.349     29.193
ROOT
ATOM      1  C1  GAD B   1      16.449  27.890  63.9570  0.00  0.00     0.000 C
ATOM      2  C2  GAD B   1      15.527  27.374  62.8480  0.00  0.00     0.000 C
ATOM      3  C3  GAD B   1      14.381  26.556  63.4540  0.00  0.00     0.000 C
ATOM      4  C4  GAD B   1      14.749  25.797  64.7320  0.00  0.00     0.000 C
ATOM      5  C5  GAD B   1      15.919  25.937  65.3870  0.00  0.00     0.000 C
ATOM      6  O5  GAD B   1      16.895  26.825  64.8090  0.00  0.00     0.000 O
ATOM      7   O  GAD B   1      15.051  28.475  61.9890  0.00  0.00     0.000 O
ATOM      9  HD  GAD B   1      15.702  28.882  62.3890  0.00  0.00     0.000 HD
ATOM      9   O  GAD B   1      13.889  25.562  62.5270  0.00  0.00     0.000 O
ATOM     11  HD  GAD B   1      14.540  25.969  62.9270  0.00  0.00     0.000 HD
ENDROOT
BRANCH 5 11
ATOM     11   C  GAD B   1      16.244  25.290  66.6800  0.00  0.00     0.000 C
ATOM     12   O  GAD B   1      15.857  24.090  66.8360  0.00  0.00     0.000 OA
ATOM     13   O  GAD B   1      16.820  25.963  67.6120  0.00  0.00     0.000 OA
ENDBRANCH 5 11
BRANCH 1 14
ATOM     14  O3  ASG B   2      17.725  28.268  63.7570  0.00  0.00     0.000 O
BRANCH 14 17
ATOM     15  C1  ASG B   2      20.089  29.587  61.1200  0.00  0.00     0.000 C
ATOM     16  C2  ASG B   2      19.544  28.589  62.1510  0.00  0.00     0.000 C
ATOM     17  C3  ASG B   2      18.276  29.167  62.7870  0.00  0.00     0.000 C
ATOM     18  C4  ASG B   2      18.587  30.498  63.4440  0.00  0.00     0.000 C
ATOM     19  C5  ASG B   2      19.241  31.419  62.4190  0.00  0.00     0.000 C
ATOM     20  O5  ASG B   2      20.388  30.771  61.8350  0.00  0.00     0.000 O
ATOM     21   C  ASG B   2      19.734  32.697  63.0200  0.00  0.00     0.000 C
ATOM     22   O  ASG B   2      20.505  33.391  62.0710  0.00  0.00     0.000 O
ATOM     24  HD  ASG B   2      20.995  33.923  61.5940  0.00  0.00     0.000 HD
BRANCH 16 26
ATOM     24   N  ASG B   2      19.244  27.261  61.6660  0.00  0.00     0.000 N
ATOM     26  HD  ASG B   2      19.779  27.797  61.2460  0.00  0.00     0.000 HD
ATOM     26   C  ASG B   2      19.504  26.133  62.3510  0.00  0.00     0.000 C
ATOM     27   C  ASG B   2      18.827  24.898  61.8630  0.00  0.00     0.000 C
ATOM     28   O  ASG B   2      20.253  26.126  63.3200  0.00  0.00     0.000 OA
ENDBRANCH 16 26
BRANCH 18 29
ATOM     29   O  ASG B   2      19.462  30.205  64.5870  0.00  0.00     0.000 O
ATOM     30   O  ASG B   2      18.443  31.890  66.0590  0.00  0.00     0.000 OA
ATOM     31   O  ASG B   2      17.989  29.533  66.4200  0.00  0.00     0.000 OA
ATOM     32   O  ASG B   2      20.188  30.426  66.8810  0.00  0.00     0.000 OA
ATOM     33   S  ASG B   2      18.969  30.538  66.0800  0.00  0.00     0.000 S
ENDBRANCH 18 29
BRANCH 15 34
ATOM     34  O4  ASG B   3      21.250  29.150  60.4740  0.00  0.00     0.000 O
BRANCH 34 38
ATOM     35  C1  GCT B   3      21.777  27.546  56.7980  0.00  0.00     0.000 C
ATOM     36  C2  GCT B   3      22.839  28.550  57.1900  0.00  0.00     0.000 C
ATOM     37  C3  GCT B   3      22.841  28.777  58.6950  0.00  0.00     0.000 C
ATOM     38  C4  GCT B   3      21.465  29.299  59.1270  0.00  0.00     0.000 C
ATOM     39  C5  GCT B   3      20.324  28.699  58.2750  0.00  0.00     0.000 C
ATOM     40  O5  GCT B   3      20.783  27.441  57.8110  0.00  0.00     0.000 O
ATOM     41   O  GCT B   3      24.083  28.005  56.7720  0.00  0.00     0.000 O
ATOM     43  HD  GCT B   3      24.459  27.945  55.9950  0.00  0.00     0.000 HD
ATOM     43   O  GCT B   3      23.913  29.686  59.0210  0.00  0.00     0.000 O
ATOM     45  HD  GCT B   3      24.290  29.626  58.2440  0.00  0.00     0.000 HD
BRANCH 39 45
ATOM     45   C  GCT B   3      19.799  29.503  57.1060  0.00  0.00     0.000 C
ATOM     46   O  GCT B   3      19.056  28.941  56.2410  0.00  0.00     0.000 OA
ATOM     47   O  GCT B   3      20.111  30.704  57.0440  0.00  0.00     0.000 OA
ENDBRANCH 39 45
BRANCH 35 48
ATOM     48  O3  ASG B   4      21.620  27.566  55.4910  0.00  0.00     0.000 O
BRANCH 48 51
ATOM     49  C1  ASG B   4      22.928  25.617  52.6310  0.00  0.00     0.000 C
ATOM     50  C2  ASG B   4      22.446  26.818  53.4620  0.00  0.00     0.000 C
ATOM     51  C3  ASG B   4      22.274  26.441  54.9300  0.00  0.00     0.000 C
ATOM     52  C4  ASG B   4      21.444  25.176  55.0810  0.00  0.00     0.000 C
ATOM     53  C5  ASG B   4      22.087  24.084  54.2300  0.00  0.00     0.000 C
ATOM     54  O5  ASG B   4      22.085  24.498  52.8500  0.00  0.00     0.000 O
BRANCH 50 57
ATOM     55   N  ASG B   4      22.878  28.182  53.6650  0.00  0.00     0.000 N
ATOM     57  HD  ASG B   4      23.059  28.370  52.8390  0.00  0.00     0.000 HD
ATOM     57   O  ASG B   4      22.330  28.868  51.6050  0.00  0.00     0.000 OA
ATOM     58   C  ASG B   4      22.689  29.135  52.7480  0.00  0.00     0.000 C
ATOM     59   C  ASG B   4      22.995  30.532  53.1920  0.00  0.00     0.000 C
ENDBRANCH 50 57
BRANCH 52 60
ATOM     60   O  ASG B   4      20.091  25.593  54.6310  0.00  0.00     0.000 O
ATOM     61   O  ASG B   4      18.990  24.683  56.6780  0.00  0.00     0.000 OA
ATOM     62   O  ASG B   4      17.707  25.902  55.0850  0.00  0.00     0.000 OA
ATOM     63   O  ASG B   4      18.669  23.807  54.4500  0.00  0.00     0.000 OA
ATOM     64   S  ASG B   4      18.767  24.993  55.3060  0.00  0.00     0.000 S
ENDBRANCH 52 60
ATOM     65   O  ASG B   4      22.239  21.705  53.7840  0.00  0.00     0.000 O
ATOM     67  HD  ASG B   4      22.169  21.857  52.9340  0.00  0.00     0.000 HD
ATOM     67   O  ASG B   4      22.239  21.705  53.7840  0.00  0.00     0.000 O
ATOM     69  HD  ASG B   4      22.169  21.857  52.9340  0.00  0.00     0.000 HD
ENDBRANCH 48 51
ENDBRANCH 35 48
ENDBRANCH 34 38
ENDBRANCH 15 34
ENDBRANCH 14 17
ENDBRANCH 1 14
TORSDOF 12
ENDMDL
MODEL 14
REMARK VINA RESULT:      -8.0      5.781     11.982
ROOT
ATOM      1  C1  GAD B   1      13.619  43.304  32.8180  0.00  0.00     0.000 C
ATOM      2  C2  GAD B   1      15.069  43.568  33.2350  0.00  0.00     0.000 C
ATOM      3  C3  GAD B   1      15.385  45.064  33.1180  0.00  0.00     0.000 C
ATOM      4  C4  GAD B   1      14.634  45.787  31.9970  0.00  0.00     0.000 C
ATOM      5  C5  GAD B   1      13.653  45.229  31.2590  0.00  0.00     0.000 C
ATOM      6  O5  GAD B   1      13.334  43.850  31.5220  0.00  0.00     0.000 O
ATOM      7   O  GAD B   1      15.350  43.028  34.5790  0.00  0.00     0.000 O
ATOM      9  HD  GAD B   1      14.608  42.612  34.4130  0.00  0.00     0.000 HD
ATOM      9   O  GAD B   1      16.791  45.291  32.8690  0.00  0.00     0.000 O
ATOM     11  HD  GAD B   1      16.049  44.876  32.7030  0.00  0.00     0.000 HD
ENDROOT
BRANCH 5 11
ATOM     11   C  GAD B   1      12.847  45.950  30.2460  0.00  0.00     0.000 C
ATOM     12   O  GAD B   1      11.953  46.742  30.6790  0.00  0.00     0.000 OA
ATOM     13   O  GAD B   1      13.012  45.703  28.9940  0.00  0.00     0.000 OA
ENDBRANCH 5 11
BRANCH 1 14
ATOM     14  O3  ASG B   2      13.159  42.104  32.4170  0.00  0.00     0.000 O
BRANCH 14 17
ATOM     15  C1  ASG B   2      13.571  39.236  29.9920  0.00  0.00     0.000 C
ATOM     16  C2  ASG B   2      12.820  40.321  30.7750  0.00  0.00     0.000 C
ATOM     17  C3  ASG B   2      13.813  41.075  31.6650  0.00  0.00     0.000 C
ATOM     18  C4  ASG B   2      14.497  40.108  32.6130  0.00  0.00     0.000 C
ATOM     19  C5  ASG B   2      15.125  38.977  31.8040  0.00  0.00     0.000 C
ATOM     20  O5  ASG B   2      14.131  38.366  30.9580  0.00  0.00     0.000 O
ATOM     21   C  ASG B   2      15.680  37.888  32.6640  0.00  0.00     0.000 C
ATOM     22   O  ASG B   2      16.044  36.796  31.8570  0.00  0.00     0.000 O
ATOM     24  HD  ASG B   2      16.312  36.059  31.4890  0.00  0.00     0.000 HD
BRANCH 16 26
ATOM     24   N  ASG B   2      12.133  41.374  30.0640  0.00  0.00     0.000 N
ATOM     26  HD  ASG B   2      12.427  40.663  29.6660  0.00  0.00     0.000 HD
ATOM     26   C  ASG B   2      10.873  41.765  30.3300  0.00  0.00     0.000 C
ATOM     27   C  ASG B   2      10.454  43.069  29.7440  0.00  0.00     0.000 C
ATOM     28   O  ASG B   2      10.119  41.084  31.0140  0.00  0.00     0.000 OA
ENDBRANCH 16 26
BRANCH 18 29
ATOM     29   O  ASG B   2      13.464  39.636  33.5450  0.00  0.00     0.000 O
ATOM     30   O  ASG B   2      15.027  39.260  35.4050  0.00  0.00     0.000 OA
ATOM     31   O  ASG B   2      13.519  41.162  35.4550  0.00  0.00     0.000 OA
ATOM     32   O  ASG B   2      12.648  38.921  35.7040  0.00  0.00     0.000 OA
ATOM     33   S  ASG B   2      13.695  39.766  35.1300  0.00  0.00     0.000 S
ENDBRANCH 18 29
BRANCH 15 34
ATOM     34  O4  ASG B   3      12.751  38.488  29.1400  0.00  0.00     0.000 O
BRANCH 34 38
ATOM     35  C1  GCT B   3       9.973  35.622  28.4840  0.00  0.00     0.000 C
ATOM     36  C2  GCT B   3       9.885  36.263  29.8520  0.00  0.00     0.000 C
ATOM     37  C3  GCT B   3      10.635  37.588  29.8780  0.00  0.00     0.000 C
ATOM     38  C4  GCT B   3      12.107  37.341  29.5270  0.00  0.00     0.000 C
ATOM     39  C5  GCT B   3      12.275  36.194  28.5040  0.00  0.00     0.000 C
ATOM     40  O5  GCT B   3      11.076  36.145  27.7510  0.00  0.00     0.000 O
ATOM     41   O  GCT B   3       8.504  36.473  30.1100  0.00  0.00     0.000 O
ATOM     43  HD  GCT B   3       7.869  35.935  30.3480  0.00  0.00     0.000 HD
ATOM     43   O  GCT B   3      10.461  38.188  31.1790  0.00  0.00     0.000 O
ATOM     45  HD  GCT B   3       9.826  37.649  31.4160  0.00  0.00     0.000 HD
BRANCH 39 45
ATOM     45   C  GCT B   3      12.597  34.810  29.0220  0.00  0.00     0.000 C
ATOM     46   O  GCT B   3      12.680  33.838  28.2060  0.00  0.00     0.000 OA
ATOM     47   O  GCT B   3      12.785  34.678  30.2430  0.00  0.00     0.000 OA
ENDBRANCH 39 45
BRANCH 35 48
ATOM     48  O3  ASG B   4       9.553  34.378  28.5590  0.00  0.00     0.000 O
BRANCH 48 51
ATOM     49  C1  ASG B   4       6.525  33.880  26.4920  0.00  0.00     0.000 C
ATOM     50  C2  ASG B   4       7.440  34.400  27.6130  0.00  0.00     0.000 C
ATOM     51  C3  ASG B   4       8.898  34.038  27.3490  0.00  0.00     0.000 C
ATOM     52  C4  ASG B   4       9.049  32.561  27.0240  0.00  0.00     0.000 C
ATOM     53  C5  ASG B   4       8.108  32.231  25.8680  0.00  0.00     0.000 C
ATOM     54  O5  ASG B   4       6.751  32.497  26.2730  0.00  0.00     0.000 O
BRANCH 50 57
ATOM     55   N  ASG B   4       6.548  33.792  28.5740  0.00  0.00     0.000 N
ATOM     57  HD  ASG B   4       6.499  34.459  29.1240  0.00  0.00     0.000 HD
ATOM     57   O  ASG B   4       5.689  35.730  29.2940  0.00  0.00     0.000 OA
ATOM     58   C  ASG B   4       5.658  34.504  29.2720  0.00  0.00     0.000 C
ATOM     59   C  ASG B   4       4.667  33.706  30.0620  0.00  0.00     0.000 C
ENDBRANCH 50 57
BRANCH 52 60
ATOM     60   O  ASG B   4       8.713  31.887  28.3050  0.00  0.00     0.000 O
ATOM     61   O  ASG B   4      10.630  30.300  28.1220  0.00  0.00     0.000 OA
ATOM     62   O  ASG B   4       9.286  30.312  30.0870  0.00  0.00     0.000 OA
ATOM     63   O  ASG B   4       8.305  29.653  28.0080  0.00  0.00     0.000 OA
ATOM     64   S  ASG B   4       9.330  30.456  28.6820  0.00  0.00     0.000 S
ENDBRANCH 52 60
ATOM     65   O  ASG B   4       7.547  30.653  24.1140  0.00  0.00     0.000 O
ATOM     67  HD  ASG B   4       6.711  30.696  24.3380  0.00  0.00     0.000 HD
ATOM     67   O  ASG B   4       7.547  30.653  24.1140  0.00  0.00     0.000 O
ATOM     69  HD  ASG B   4       6.711  30.696  24.3380  0.00  0.00     0.000 HD
ENDBRANCH 48 51
ENDBRANCH 35 48
ENDBRANCH 34 38
ENDBRANCH 15 34
ENDBRANCH 14 17
ENDBRANCH 1 14
TORSDOF 12
ENDMDL
MODEL 15
REMARK VINA RESULT:      -7.9      3.690      5.912
ROOT
ATOM      1  C1  GAD B   1      18.073  47.820  34.3040  0.00  0.00     0.000 C
ATOM      2  C2  GAD B   1      17.384  49.095  33.8080  0.00  0.00     0.000 C
ATOM      3  C3  GAD B   1      17.406  50.166  34.9050  0.00  0.00     0.000 C
ATOM      4  C4  GAD B   1      17.341  49.616  36.3320  0.00  0.00     0.000 C
ATOM      5  C5  GAD B   1      17.417  48.307  36.6440  0.00  0.00     0.000 C
ATOM      6  O5  GAD B   1      17.520  47.374  35.5520  0.00  0.00     0.000 O
ATOM      7   O  GAD B   1      17.972  49.564  32.5380  0.00  0.00     0.000 O
ATOM      9  HD  GAD B   1      18.295  48.761  32.5540  0.00  0.00     0.000 HD
ATOM      9   O  GAD B   1      16.294  51.080  34.7770  0.00  0.00     0.000 O
ATOM     11  HD  GAD B   1      16.617  50.277  34.7920  0.00  0.00     0.000 HD
ENDROOT
BRANCH 5 11
ATOM     11   C  GAD B   1      17.462  47.771  38.0250  0.00  0.00     0.000 C
ATOM     12   O  GAD B   1      16.678  46.808  38.2940  0.00  0.00     0.000 OA
ATOM     13   O  GAD B   1      18.211  48.328  38.9100  0.00  0.00     0.000 OA
ENDBRANCH 5 11
BRANCH 1 14
ATOM     14  O3  ASG B   2      17.867  46.600  33.7740  0.00  0.00     0.000 O
BRANCH 14 17
ATOM     15  C1  ASG B   2      19.381  43.195  34.3990  0.00  0.00     0.000 C
ATOM     16  C2  ASG B   2      19.237  44.572  33.7370  0.00  0.00     0.000 C
ATOM     17  C3  ASG B   2      18.042  45.304  34.3570  0.00  0.00     0.000 C
ATOM     18  C4  ASG B   2      16.779  44.485  34.1690  0.00  0.00     0.000 C
ATOM     19  C5  ASG B   2      17.006  43.084  34.7280  0.00  0.00     0.000 C
ATOM     20  O5  ASG B   2      18.179  42.498  34.1300  0.00  0.00     0.000 O
ATOM     21   C  ASG B   2      15.871  42.154  34.4380  0.00  0.00     0.000 C
ATOM     22   O  ASG B   2      16.240  40.844  34.7910  0.00  0.00     0.000 O
ATOM     24  HD  ASG B   2      16.329  40.000  34.9630  0.00  0.00     0.000 HD
BRANCH 16 26
ATOM     24   N  ASG B   2      20.446  45.363  33.7610  0.00  0.00     0.000 N
ATOM     26  HD  ASG B   2      20.459  44.497  33.7710  0.00  0.00     0.000 HD
ATOM     26   C  ASG B   2      20.799  46.227  32.7920  0.00  0.00     0.000 C
ATOM     27   C  ASG B   2      21.880  47.193  33.1380  0.00  0.00     0.000 C
ATOM     28   O  ASG B   2      20.261  46.217  31.6920  0.00  0.00     0.000 OA
ENDBRANCH 16 26
BRANCH 18 29
ATOM     29   O  ASG B   2      16.493  44.485  32.7280  0.00  0.00     0.000 O
ATOM     30   O  ASG B   2      14.052  44.542  33.0080  0.00  0.00     0.000 OA
ATOM     31   O  ASG B   2      15.235  46.533  32.2810  0.00  0.00     0.000 OA
ATOM     32   O  ASG B   2      15.044  44.632  30.8010  0.00  0.00     0.000 OA
ATOM     33   S  ASG B   2      15.110  45.098  32.1860  0.00  0.00     0.000 S
ENDBRANCH 18 29
BRANCH 15 34
ATOM     34  O4  ASG B   3      20.453  42.443  33.9050  0.00  0.00     0.000 O
BRANCH 34 38
ATOM     35  C1  GCT B   3      21.140  39.746  36.8410  0.00  0.00     0.000 C
ATOM     36  C2  GCT B   3      21.832  41.075  37.0510  0.00  0.00     0.000 C
ATOM     37  C3  GCT B   3      21.205  42.156  36.1830  0.00  0.00     0.000 C
ATOM     38  C4  GCT B   3      21.323  41.751  34.7090  0.00  0.00     0.000 C
ATOM     39  C5  GCT B   3      21.213  40.221  34.5180  0.00  0.00     0.000 C
ATOM     40  O5  GCT B   3      20.441  39.732  35.6010  0.00  0.00     0.000 O
ATOM     41   O  GCT B   3      21.679  41.396  38.4260  0.00  0.00     0.000 O
ATOM     43  HD  GCT B   3      22.074  41.104  39.1390  0.00  0.00     0.000 HD
ATOM     43   O  GCT B   3      21.854  43.412  36.4730  0.00  0.00     0.000 O
ATOM     45  HD  GCT B   3      22.249  43.120  37.1850  0.00  0.00     0.000 HD
BRANCH 39 45
ATOM     45   C  GCT B   3      22.490  39.416  34.4110  0.00  0.00     0.000 C
ATOM     46   O  GCT B   3      22.426  38.154  34.2700  0.00  0.00     0.000 OA
ATOM     47   O  GCT B   3      23.567  40.033  34.4510  0.00  0.00     0.000 OA
ENDBRANCH 39 45
BRANCH 35 48
ATOM     48  O3  ASG B   4      21.857  38.790  37.3900  0.00  0.00     0.000 O
BRANCH 48 51
ATOM     49  C1  ASG B   4      21.546  36.564  40.3300  0.00  0.00     0.000 C
ATOM     50  C2  ASG B   4      22.191  37.419  39.2260  0.00  0.00     0.000 C
ATOM     51  C3  ASG B   4      21.146  38.256  38.4940  0.00  0.00     0.000 C
ATOM     52  C4  ASG B   4      19.972  37.402  38.0470  0.00  0.00     0.000 C
ATOM     53  C5  ASG B   4      19.430  36.663  39.2670  0.00  0.00     0.000 C
ATOM     54  O5  ASG B   4      20.465  35.814  39.8020  0.00  0.00     0.000 O
BRANCH 50 57
ATOM     55   N  ASG B   4      23.167  38.177  39.9760  0.00  0.00     0.000 N
ATOM     57  HD  ASG B   4      23.716  37.528  40.1400  0.00  0.00     0.000 HD
ATOM     57   O  ASG B   4      24.886  36.836  39.4660  0.00  0.00     0.000 OA
ATOM     58   C  ASG B   4      24.470  37.883  39.9530  0.00  0.00     0.000 C
ATOM     59   C  ASG B   4      25.372  38.886  40.6040  0.00  0.00     0.000 C
ENDBRANCH 50 57
BRANCH 52 60
ATOM     60   O  ASG B   4      20.559  36.524  37.0020  0.00  0.00     0.000 O
ATOM     61   O  ASG B   4      18.394  36.315  35.7770  0.00  0.00     0.000 OA
ATOM     62   O  ASG B   4      20.373  35.361  34.8580  0.00  0.00     0.000 OA
ATOM     63   O  ASG B   4      19.504  34.493  36.9100  0.00  0.00     0.000 OA
ATOM     64   S  ASG B   4      19.632  35.654  36.0250  0.00  0.00     0.000 S
ENDBRANCH 52 60
ATOM     65   O  ASG B   4      17.571  35.428  40.2150  0.00  0.00     0.000 O
ATOM     67  HD  ASG B   4      18.118  34.826  40.5120  0.00  0.00     0.000 HD
ATOM     67   O  ASG B   4      17.571  35.428  40.2150  0.00  0.00     0.000 O
ATOM     69  HD  ASG B   4      18.118  34.826  40.5120  0.00  0.00     0.000 HD
ENDBRANCH 48 51
ENDBRANCH 35 48
ENDBRANCH 34 38
ENDBRANCH 15 34
ENDBRANCH 14 17
ENDBRANCH 1 14
TORSDOF 12
ENDMDL
MODEL 16
REMARK VINA RESULT:      -7.9      4.180     11.249
ROOT
ATOM      1  C1  GAD B   1      16.047  41.929  34.8850  0.00  0.00     0.000 C
ATOM      2  C2  GAD B   1      17.314  42.786  34.9630  0.00  0.00     0.000 C
ATOM      3  C3  GAD B   1      16.971  44.258  34.7060  0.00  0.00     0.000 C
ATOM      4  C4  GAD B   1      15.804  44.479  33.7400  0.00  0.00     0.000 C
ATOM      5  C5  GAD B   1      15.019  43.494  33.2610  0.00  0.00     0.000 C
ATOM      6  O5  GAD B   1      15.339  42.146  33.6550  0.00  0.00     0.000 O
ATOM      7   O  GAD B   1      18.025  42.579  36.2390  0.00  0.00     0.000 O
ATOM      9  HD  GAD B   1      17.499  41.891  36.2590  0.00  0.00     0.000 HD
ATOM      9   O  GAD B   1      18.095  44.975  34.1470  0.00  0.00     0.000 O
ATOM     11  HD  GAD B   1      17.568  44.288  34.1670  0.00  0.00     0.000 HD
ENDROOT
BRANCH 5 11
ATOM     11   C  GAD B   1      13.823  43.706  32.4120  0.00  0.00     0.000 C
ATOM     12   O  GAD B   1      12.697  43.410  32.9190  0.00  0.00     0.000 OA
ATOM     13   O  GAD B   1      13.957  44.094  31.1930  0.00  0.00     0.000 OA
ENDBRANCH 5 11
BRANCH 1 14
ATOM     14  O3  ASG B   2      16.049  40.603  34.6530  0.00  0.00     0.000 O
BRANCH 14 17
ATOM     15  C1  ASG B   2      15.483  38.095  31.8840  0.00  0.00     0.000 C
ATOM     16  C2  ASG B   2      15.192  38.831  33.1990  0.00  0.00     0.000 C
ATOM     17  C3  ASG B   2      16.278  39.884  33.4350  0.00  0.00     0.000 C
ATOM     18  C4  ASG B   2      17.641  39.221  33.4840  0.00  0.00     0.000 C
ATOM     19  C5  ASG B   2      17.841  38.399  32.2140  0.00  0.00     0.000 C
ATOM     20  O5  ASG B   2      16.746  37.477  32.0470  0.00  0.00     0.000 O
ATOM     21   C  ASG B   2      19.089  37.576  32.2470  0.00  0.00     0.000 C
ATOM     22   O  ASG B   2      19.094  36.694  31.1520  0.00  0.00     0.000 O
ATOM     24  HD  ASG B   2      19.232  36.106  30.5310  0.00  0.00     0.000 HD
BRANCH 16 26
ATOM     24   N  ASG B   2      13.805  39.230  33.2730  0.00  0.00     0.000 N
ATOM     26  HD  ASG B   2      14.052  38.478  32.9210  0.00  0.00     0.000 HD
ATOM     26   C  ASG B   2      13.154  39.480  34.4230  0.00  0.00     0.000 C
ATOM     27   C  ASG B   2      11.856  40.201  34.2980  0.00  0.00     0.000 C
ATOM     28   O  ASG B   2      13.605  39.134  35.5080  0.00  0.00     0.000 OA
ENDBRANCH 16 26
BRANCH 18 29
ATOM     29   O  ASG B   2      17.664  38.402  34.7030  0.00  0.00     0.000 O
ATOM     30   O  ASG B   2      20.108  38.482  34.9550  0.00  0.00     0.000 OA
ATOM     31   O  ASG B   2      18.693  39.785  36.4360  0.00  0.00     0.000 OA
ATOM     32   O  ASG B   2      18.731  37.374  36.6110  0.00  0.00     0.000 OA
ATOM     33   S  ASG B   2      18.886  38.537  35.7370  0.00  0.00     0.000 S
ENDBRANCH 18 29
BRANCH 15 34
ATOM     34  O4  ASG B   3      14.540  37.109  31.5710  0.00  0.00     0.000 O
BRANCH 34 38
ATOM     35  C1  GCT B   3      11.412  36.046  29.2370  0.00  0.00     0.000 C
ATOM     36  C2  GCT B   3      12.732  35.442  28.8110  0.00  0.00     0.000 C
ATOM     37  C3  GCT B   3      13.750  35.512  29.9400  0.00  0.00     0.000 C
ATOM     38  C4  GCT B   3      13.967  36.979  30.3320  0.00  0.00     0.000 C
ATOM     39  C5  GCT B   3      12.675  37.815  30.1870  0.00  0.00     0.000 C
ATOM     40  O5  GCT B   3      11.592  36.916  30.3490  0.00  0.00     0.000 O
ATOM     41   O  GCT B   3      12.465  34.088  28.4720  0.00  0.00     0.000 O
ATOM     43  HD  GCT B   3      12.100  33.725  27.7760  0.00  0.00     0.000 HD
ATOM     43   O  GCT B   3      14.964  34.863  29.5060  0.00  0.00     0.000 O
ATOM     45  HD  GCT B   3      14.599  34.499  28.8100  0.00  0.00     0.000 HD
BRANCH 39 45
ATOM     45   C  GCT B   3      12.475  38.616  28.9190  0.00  0.00     0.000 C
ATOM     46   O  GCT B   3      11.500  39.428  28.8380  0.00  0.00     0.000 OA
ATOM     47   O  GCT B   3      13.293  38.456  27.9990  0.00  0.00     0.000 OA
ENDBRANCH 39 45
BRANCH 35 48
ATOM     48  O3  ASG B   4      10.647  36.212  28.1790  0.00  0.00     0.000 O
BRANCH 48 51
ATOM     49  C1  ASG B   4       7.027  35.820  28.8340  0.00  0.00     0.000 C
ATOM     50  C2  ASG B   4       8.507  35.454  28.6320  0.00  0.00     0.000 C
ATOM     51  C3  ASG B   4       9.385  36.702  28.5950  0.00  0.00     0.000 C
ATOM     52  C4  ASG B   4       8.834  37.734  27.6240  0.00  0.00     0.000 C
ATOM     53  C5  ASG B   4       7.380  38.008  27.9970  0.00  0.00     0.000 C
ATOM     54  O5  ASG B   4       6.624  36.787  27.8790  0.00  0.00     0.000 O
BRANCH 50 57
ATOM     55   N  ASG B   4       8.425  34.574  29.7740  0.00  0.00     0.000 N
ATOM     57  HD  ASG B   4       8.052  33.902  29.3750  0.00  0.00     0.000 HD
ATOM     57   O  ASG B   4       8.473  32.687  28.5690  0.00  0.00     0.000 OA
ATOM     58   C  ASG B   4       8.520  33.245  29.6600  0.00  0.00     0.000 C
ATOM     59   C  ASG B   4       8.632  32.491  30.9490  0.00  0.00     0.000 C
ENDBRANCH 50 57
BRANCH 52 60
ATOM     60   O  ASG B   4       9.021  37.095  26.2960  0.00  0.00     0.000 O
ATOM     61   O  ASG B   4      10.781  38.729  25.6140  0.00  0.00     0.000 OA
ATOM     62   O  ASG B   4      10.266  36.883  24.2010  0.00  0.00     0.000 OA
ATOM     63   O  ASG B   4       8.603  38.558  24.5840  0.00  0.00     0.000 OA
ATOM     64   S  ASG B   4       9.779  37.854  25.1040  0.00  0.00     0.000 S
ENDBRANCH 52 60
ATOM     65   O  ASG B   4       5.487  39.505  27.7610  0.00  0.00     0.000 O
ATOM     67  HD  ASG B   4       4.968  38.830  27.6070  0.00  0.00     0.000 HD
ATOM     67   O  ASG B   4       5.487  39.505  27.7610  0.00  0.00     0.000 O
ATOM     69  HD  ASG B   4       4.968  38.830  27.6070  0.00  0.00     0.000 HD
ENDBRANCH 48 51
ENDBRANCH 35 48
ENDBRANCH 34 38
ENDBRANCH 15 34
ENDBRANCH 14 17
ENDBRANCH 1 14
TORSDOF 12
ENDMDL
MODEL 17
REMARK VINA RESULT:      -7.9     44.045     48.949
ROOT
ATOM      1  C1  GAD B   1       1.740  30.799  77.7380  0.00  0.00     0.000 C
ATOM      2  C2  GAD B   1       2.191  32.256  77.8810  0.00  0.00     0.000 C
ATOM      3  C3  GAD B   1       2.326  32.904  76.4980  0.00  0.00     0.000 C
ATOM      4  C4  GAD B   1       2.754  31.943  75.3860  0.00  0.00     0.000 C
ATOM      5  C5  GAD B   1       2.859  30.608  75.5350  0.00  0.00     0.000 C
ATOM      6  O5  GAD B   1       2.593  30.069  76.8440  0.00  0.00     0.000 O
ATOM      7   O  GAD B   1       1.298  33.010  78.7820  0.00  0.00     0.000 O
ATOM      9  HD  GAD B   1       1.054  32.204  78.9850  0.00  0.00     0.000 HD
ATOM      9   O  GAD B   1       3.302  33.970  76.5040  0.00  0.00     0.000 O
ATOM     11  HD  GAD B   1       3.058  33.164  76.7070  0.00  0.00     0.000 HD
ENDROOT
BRANCH 5 11
ATOM     11   C  GAD B   1       3.168  29.658  74.4400  0.00  0.00     0.000 C
ATOM     12   O  GAD B   1       2.191  29.018  73.9410  0.00  0.00     0.000 OA
ATOM     13   O  GAD B   1       4.388  29.453  74.0890  0.00  0.00     0.000 OA
ENDBRANCH 5 11
BRANCH 1 14
ATOM     14  O3  ASG B   2       1.923  29.859  78.6840  0.00  0.00     0.000 O
BRANCH 14 17
ATOM     15  C1  ASG B   2       4.494  27.632  80.3300  0.00  0.00     0.000 C
ATOM     16  C2  ASG B   2       3.205  27.972  79.5680  0.00  0.00     0.000 C
ATOM     17  C3  ASG B   2       3.110  29.490  79.3950  0.00  0.00     0.000 C
ATOM     18  C4  ASG B   2       3.124  30.168  80.7520  0.00  0.00     0.000 C
ATOM     19  C5  ASG B   2       4.355  29.709  81.5260  0.00  0.00     0.000 C
ATOM     20  O5  ASG B   2       4.388  28.269  81.5890  0.00  0.00     0.000 O
ATOM     21   C  ASG B   2       4.366  30.197  82.9400  0.00  0.00     0.000 C
ATOM     22   O  ASG B   2       5.406  29.564  83.6430  0.00  0.00     0.000 O
ATOM     24  HD  ASG B   2       6.001  29.258  84.1930  0.00  0.00     0.000 HD
BRANCH 16 26
ATOM     24   N  ASG B   2       3.045  27.344  78.2760  0.00  0.00     0.000 N
ATOM     26  HD  ASG B   2       3.576  27.026  78.8820  0.00  0.00     0.000 HD
ATOM     26   C  ASG B   2       1.875  26.871  77.8090  0.00  0.00     0.000 C
ATOM     27   C  ASG B   2       1.823  26.577  76.3490  0.00  0.00     0.000 C
ATOM     28   O  ASG B   2       0.911  26.695  78.5440  0.00  0.00     0.000 OA
ENDBRANCH 16 26
BRANCH 18 29
ATOM     29   O  ASG B   2       1.864  29.802  81.4130  0.00  0.00     0.000 O
ATOM     30   O  ASG B   2       1.663  31.917  82.6490  0.00  0.00     0.000 OA
ATOM     31   O  ASG B   2       0.225  31.487  80.7420  0.00  0.00     0.000 OA
ATOM     32   O  ASG B   2      -0.074  30.236  82.7890  0.00  0.00     0.000 OA
ATOM     33   S  ASG B   2       0.862  30.951  81.9210  0.00  0.00     0.000 S
ENDBRANCH 18 29
BRANCH 15 34
ATOM     34  O4  ASG B   3       4.679  26.261  80.5370  0.00  0.00     0.000 O
BRANCH 34 38
ATOM     35  C1  GCT B   3       6.070  22.637  79.3980  0.00  0.00     0.000 C
ATOM     36  C2  GCT B   3       6.889  23.801  78.8830  0.00  0.00     0.000 C
ATOM     37  C3  GCT B   3       6.594  25.065  79.6780  0.00  0.00     0.000 C
ATOM     38  C4  GCT B   3       5.103  25.400  79.5560  0.00  0.00     0.000 C
ATOM     39  C5  GCT B   3       4.228  24.129  79.4660  0.00  0.00     0.000 C
ATOM     40  O5  GCT B   3       4.940  23.100  80.1300  0.00  0.00     0.000 O
ATOM     41   O  GCT B   3       8.253  23.432  79.0320  0.00  0.00     0.000 O
ATOM     43  HD  GCT B   3       8.764  22.901  78.5780  0.00  0.00     0.000 HD
ATOM     43   O  GCT B   3       7.448  26.122  79.1940  0.00  0.00     0.000 O
ATOM     45  HD  GCT B   3       7.960  25.591  78.7390  0.00  0.00     0.000 HD
BRANCH 39 45
ATOM     45   C  GCT B   3       3.805  23.642  78.0980  0.00  0.00     0.000 C
ATOM     46   O  GCT B   3       3.074  22.607  77.9980  0.00  0.00     0.000 OA
ATOM     47   O  GCT B   3       4.183  24.293  77.1100  0.00  0.00     0.000 OA
ENDBRANCH 39 45
BRANCH 35 48
ATOM     48  O3  ASG B   4       6.143  21.641  78.5420  0.00  0.00     0.000 O
BRANCH 48 51
ATOM     49  C1  ASG B   4       6.861  18.184  79.6460  0.00  0.00     0.000 C
ATOM     50  C2  ASG B   4       7.096  19.630  79.1790  0.00  0.00     0.000 C
ATOM     51  C3  ASG B   4       5.801  20.436  79.2050  0.00  0.00     0.000 C
ATOM     52  C4  ASG B   4       4.679  19.700  78.4900  0.00  0.00     0.000 C
ATOM     53  C5  ASG B   4       4.557  18.309  79.1070  0.00  0.00     0.000 C
ATOM     54  O5  ASG B   4       5.795  17.598  78.9160  0.00  0.00     0.000 O
BRANCH 50 57
ATOM     55   N  ASG B   4       8.113  20.074  80.1050  0.00  0.00     0.000 N
ATOM     57  HD  ASG B   4       8.768  19.601  79.7910  0.00  0.00     0.000 HD
ATOM     57   O  ASG B   4       9.822  19.707  78.7050  0.00  0.00     0.000 OA
ATOM     58   C  ASG B   4       9.399  20.177  79.7560  0.00  0.00     0.000 C
ATOM     59   C  ASG B   4      10.288  20.853  80.7540  0.00  0.00     0.000 C
ENDBRANCH 50 57
BRANCH 52 60
ATOM     60   O  ASG B   4       5.108  19.710  77.0680  0.00  0.00     0.000 O
ATOM     61   O  ASG B   4       2.760  19.630  76.2250  0.00  0.00     0.000 OA
ATOM     62   O  ASG B   4       4.563  19.878  74.6890  0.00  0.00     0.000 OA
ATOM     63   O  ASG B   4       4.373  17.853  75.9470  0.00  0.00     0.000 OA
ATOM     64   S  ASG B   4       4.103  19.293  75.8910  0.00  0.00     0.000 S
ENDBRANCH 52 60
ATOM     65   O  ASG B   4       3.168  16.339  79.3760  0.00  0.00     0.000 O
ATOM     67  HD  ASG B   4       3.848  15.832  79.1980  0.00  0.00     0.000 HD
ATOM     67   O  ASG B   4       3.168  16.339  79.3760  0.00  0.00     0.000 O
ATOM     69  HD  ASG B   4       3.848  15.832  79.1980  0.00  0.00     0.000 HD
ENDBRANCH 48 51
ENDBRANCH 35 48
ENDBRANCH 34 38
ENDBRANCH 15 34
ENDBRANCH 14 17
ENDBRANCH 1 14
TORSDOF 12
ENDMDL
MODEL 18
REMARK VINA RESULT:      -7.9     39.826     43.567
ROOT
ATOM      1  C1  GAD B   1       4.619  50.727  76.0720  0.00  0.00     0.000 C
ATOM      2  C2  GAD B   1       3.204  50.187  75.8430  0.00  0.00     0.000 C
ATOM      3  C3  GAD B   1       2.962  48.955  76.7230  0.00  0.00     0.000 C
ATOM      4  C4  GAD B   1       4.209  48.105  76.9830  0.00  0.00     0.000 C
ATOM      5  C5  GAD B   1       5.458  48.460  76.6220  0.00  0.00     0.000 C
ATOM      6  O5  GAD B   1       5.608  49.700  75.9040  0.00  0.00     0.000 O
ATOM      7   O  GAD B   1       2.189  51.239  76.0410  0.00  0.00     0.000 O
ATOM      9  HD  GAD B   1       2.896  51.736  75.9800  0.00  0.00     0.000 HD
ATOM      9   O  GAD B   1       1.987  48.065  76.1330  0.00  0.00     0.000 O
ATOM     11  HD  GAD B   1       2.694  48.562  76.0730  0.00  0.00     0.000 HD
ENDROOT
BRANCH 5 11
ATOM     11   C  GAD B   1       6.682  47.698  76.9610  0.00  0.00     0.000 C
ATOM     12   O  GAD B   1       6.521  46.567  77.5170  0.00  0.00     0.000 OA
ATOM     13   O  GAD B   1       7.842  48.219  76.7660  0.00  0.00     0.000 OA
ENDBRANCH 5 11
BRANCH 1 14
ATOM     14  O3  ASG B   2       5.277  51.507  75.1940  0.00  0.00     0.000 O
BRANCH 14 17
ATOM     15  C1  ASG B   2       8.264  51.535  72.8800  0.00  0.00     0.000 C
ATOM     16  C2  ASG B   2       7.406  51.965  74.0780  0.00  0.00     0.000 C
ATOM     17  C3  ASG B   2       6.113  51.144  74.0890  0.00  0.00     0.000 C
ATOM     18  C4  ASG B   2       5.358  51.349  72.7900  0.00  0.00     0.000 C
ATOM     19  C5  ASG B   2       6.284  51.030  71.6200  0.00  0.00     0.000 C
ATOM     20  O5  ASG B   2       7.494  51.806  71.7230  0.00  0.00     0.000 O
ATOM     21   C  ASG B   2       5.678  51.363  70.2940  0.00  0.00     0.000 C
ATOM     22   O  ASG B   2       6.657  51.245  69.2910  0.00  0.00     0.000 O
ATOM     24  HD  ASG B   2       7.149  51.212  68.5790  0.00  0.00     0.000 HD
BRANCH 16 26
ATOM     24   N  ASG B   2       7.391  52.969  75.1170  0.00  0.00     0.000 N
ATOM     26  HD  ASG B   2       6.665  52.677  74.7460  0.00  0.00     0.000 HD
ATOM     26   C  ASG B   2       7.872  52.774  76.3580  0.00  0.00     0.000 C
ATOM     27   C  ASG B   2       8.088  54.000  77.1770  0.00  0.00     0.000 C
ATOM     28   O  ASG B   2       8.118  51.653  76.7860  0.00  0.00     0.000 OA
ENDBRANCH 16 26
BRANCH 18 29
ATOM     29   O  ASG B   2       4.899  52.744  72.7900  0.00  0.00     0.000 O
ATOM     30   O  ASG B   2       2.890  52.295  71.4450  0.00  0.00     0.000 OA
ATOM     31   O  ASG B   2       2.683  52.734  73.8230  0.00  0.00     0.000 OA
ATOM     32   O  ASG B   2       3.322  54.513  72.3160  0.00  0.00     0.000 OA
ATOM     33   S  ASG B   2       3.340  53.075  72.5830  0.00  0.00     0.000 S
ENDBRANCH 18 29
BRANCH 15 34
ATOM     34  O4  ASG B   3       9.477  52.224  72.7810  0.00  0.00     0.000 O
BRANCH 34 38
ATOM     35  C1  GCT B   3      11.427  50.358  75.7940  0.00  0.00     0.000 C
ATOM     36  C2  GCT B   3      11.978  51.726  75.4580  0.00  0.00     0.000 C
ATOM     37  C3  GCT B   3      10.969  52.535  74.6550  0.00  0.00     0.000 C
ATOM     38  C4  GCT B   3      10.643  51.787  73.3570  0.00  0.00     0.000 C
ATOM     39  C5  GCT B   3      10.669  50.254  73.5490  0.00  0.00     0.000 C
ATOM     40  O5  GCT B   3      10.365  50.011  74.9110  0.00  0.00     0.000 O
ATOM     41   O  GCT B   3      12.249  52.367  76.6970  0.00  0.00     0.000 O
ATOM     43  HD  GCT B   3      12.891  52.274  77.2700  0.00  0.00     0.000 HD
ATOM     43   O  GCT B   3      11.515  53.851  74.4230  0.00  0.00     0.000 O
ATOM     45  HD  GCT B   3      12.157  53.758  74.9960  0.00  0.00     0.000 HD
BRANCH 39 45
ATOM     45   C  GCT B   3      11.928  49.503  73.1750  0.00  0.00     0.000 C
ATOM     46   O  GCT B   3      11.974  48.241  73.3250  0.00  0.00     0.000 OA
ATOM     47   O  GCT B   3      12.878  50.159  72.7170  0.00  0.00     0.000 OA
ENDBRANCH 39 45
BRANCH 35 48
ATOM     48  O3  ASG B   4      12.399  49.596  76.2480  0.00  0.00     0.000 O
BRANCH 48 51
ATOM     49  C1  ASG B   4      11.589  47.567  79.2330  0.00  0.00     0.000 C
ATOM     50  C2  ASG B   4      11.935  48.790  78.3680  0.00  0.00     0.000 C
ATOM     51  C3  ASG B   4      11.838  48.460  76.8810  0.00  0.00     0.000 C
ATOM     52  C4  ASG B   4      12.608  47.193  76.5470  0.00  0.00     0.000 C
ATOM     53  C5  ASG B   4      12.109  46.079  77.4640  0.00  0.00     0.000 C
ATOM     54  O5  ASG B   4      12.362  46.447  78.8340  0.00  0.00     0.000 O
BRANCH 50 57
ATOM     55   N  ASG B   4      10.970  49.742  78.8680  0.00  0.00     0.000 N
ATOM     57  HD  ASG B   4      11.337  49.883  79.6390  0.00  0.00     0.000 HD
ATOM     57   O  ASG B   4      12.410  50.775  80.2370  0.00  0.00     0.000 OA
ATOM     58   C  ASG B   4      11.310  50.736  79.6930  0.00  0.00     0.000 C
ATOM     59   C  ASG B   4      10.247  51.760  79.9480  0.00  0.00     0.000 C
ENDBRANCH 50 57
BRANCH 52 60
ATOM     60   O  ASG B   4      14.026  47.581  76.7610  0.00  0.00     0.000 O
ATOM     61   O  ASG B   4      14.696  46.896  74.4560  0.00  0.00     0.000 OA
ATOM     62   O  ASG B   4      16.275  47.966  75.8810  0.00  0.00     0.000 OA
ATOM     63   O  ASG B   4      15.444  45.805  76.4780  0.00  0.00     0.000 OA
ATOM     64   S  ASG B   4      15.188  47.070  75.7820  0.00  0.00     0.000 S
ENDBRANCH 52 60
ATOM     65   O  ASG B   4      12.002  43.688  77.8560  0.00  0.00     0.000 O
ATOM     67  HD  ASG B   4      12.223  43.811  78.6840  0.00  0.00     0.000 HD
ATOM     67   O  ASG B   4      12.002  43.688  77.8560  0.00  0.00     0.000 O
ATOM     69  HD  ASG B   4      12.223  43.811  78.6840  0.00  0.00     0.000 HD
ENDBRANCH 48 51
ENDBRANCH 35 48
ENDBRANCH 34 38
ENDBRANCH 15 34
ENDBRANCH 14 17
ENDBRANCH 1 14
TORSDOF 12
ENDMDL
MODEL 19
REMARK VINA RESULT:      -7.9     22.594     28.783
ROOT
ATOM      1  C1  GAD B   1      16.520  27.890  63.9830  0.00  0.00     0.000 C
ATOM      2  C2  GAD B   1      15.513  27.474  62.9070  0.00  0.00     0.000 C
ATOM      3  C3  GAD B   1      14.408  26.609  63.5250  0.00  0.00     0.000 C
ATOM      4  C4  GAD B   1      14.865  25.741  64.7010  0.00  0.00     0.000 C
ATOM      5  C5  GAD B   1      16.082  25.821  65.2750  0.00  0.00     0.000 C
ATOM      6  O5  GAD B   1      17.019  26.753  64.7050  0.00  0.00     0.000 O
ATOM      7   O  GAD B   1      14.983  28.647  62.1840  0.00  0.00     0.000 O
ATOM      9  HD  GAD B   1      15.667  29.016  62.5680  0.00  0.00     0.000 HD
ATOM      9   O  GAD B   1      13.839  25.701  62.5550  0.00  0.00     0.000 O
ATOM     11  HD  GAD B   1      14.523  26.070  62.9390  0.00  0.00     0.000 HD
ENDROOT
BRANCH 5 11
ATOM     11   C  GAD B   1      16.497  25.063  66.4790  0.00  0.00     0.000 C
ATOM     12   O  GAD B   1      16.887  25.742  67.4800  0.00  0.00     0.000 OA
ATOM     13   O  GAD B   1      16.529  23.778  66.4540  0.00  0.00     0.000 OA
ENDBRANCH 5 11
BRANCH 1 14
ATOM     14  O3  ASG B   2      17.781  28.281  63.7220  0.00  0.00     0.000 O
BRANCH 14 17
ATOM     15  C1  ASG B   2      19.955  29.925  61.1050  0.00  0.00     0.000 C
ATOM     16  C2  ASG B   2      19.484  28.806  62.0450  0.00  0.00     0.000 C
ATOM     17  C3  ASG B   2      18.262  29.293  62.8300  0.00  0.00     0.000 C
ATOM     18  C4  ASG B   2      18.615  30.540  63.6170  0.00  0.00     0.000 C
ATOM     19  C5  ASG B   2      19.196  31.582  62.6660  0.00  0.00     0.000 C
ATOM     20  O5  ASG B   2      20.301  31.019  61.9330  0.00  0.00     0.000 O
ATOM     21   C  ASG B   2      19.726  32.785  63.3790  0.00  0.00     0.000 C
ATOM     22   O  ASG B   2      20.429  33.594  62.4680  0.00  0.00     0.000 O
ATOM     24  HD  ASG B   2      20.884  34.183  62.0260  0.00  0.00     0.000 HD
BRANCH 16 26
ATOM     24   N  ASG B   2      19.143  27.543  61.4340  0.00  0.00     0.000 N
ATOM     26  HD  ASG B   2      19.639  28.130  61.0350  0.00  0.00     0.000 HD
ATOM     26   C  ASG B   2      19.463  26.344  61.9550  0.00  0.00     0.000 C
ATOM     27   C  ASG B   2      18.746  25.169  61.3850  0.00  0.00     0.000 C
ATOM     28   O  ASG B   2      20.294  26.230  62.8470  0.00  0.00     0.000 OA
ENDBRANCH 16 26
BRANCH 18 29
ATOM     29   O  ASG B   2      19.567  30.123  64.6550  0.00  0.00     0.000 O
ATOM     30   O  ASG B   2      18.649  31.613  66.3820  0.00  0.00     0.000 OA
ATOM     31   O  ASG B   2      18.225  29.225  66.4920  0.00  0.00     0.000 OA
ATOM     32   O  ASG B   2      20.448  30.079  66.9040  0.00  0.00     0.000 OA
ATOM     33   S  ASG B   2      19.177  30.273  66.2070  0.00  0.00     0.000 S
ENDBRANCH 18 29
BRANCH 15 34
ATOM     34  O4  ASG B   3      21.070  29.578  60.3340  0.00  0.00     0.000 O
BRANCH 34 38
ATOM     35  C1  GCT B   3      23.513  30.380  57.2110  0.00  0.00     0.000 C
ATOM     36  C2  GCT B   3      23.962  30.996  58.5180  0.00  0.00     0.000 C
ATOM     37  C3  GCT B   3      23.280  30.319  59.6980  0.00  0.00     0.000 C
ATOM     38  C4  GCT B   3      21.761  30.476  59.5600  0.00  0.00     0.000 C
ATOM     39  C5  GCT B   3      21.308  30.454  58.0820  0.00  0.00     0.000 C
ATOM     40  O5  GCT B   3      22.275  29.697  57.3740  0.00  0.00     0.000 O
ATOM     41   O  GCT B   3      25.369  30.809  58.5890  0.00  0.00     0.000 O
ATOM     43  HD  GCT B   3      26.029  31.213  58.1990  0.00  0.00     0.000 HD
ATOM     43   O  GCT B   3      23.794  30.894  60.9180  0.00  0.00     0.000 O
ATOM     45  HD  GCT B   3      24.454  31.298  60.5280  0.00  0.00     0.000 HD
BRANCH 39 45
ATOM     45   C  GCT B   3      21.091  31.774  57.3760  0.00  0.00     0.000 C
ATOM     46   O  GCT B   3      20.790  31.783  56.1410  0.00  0.00     0.000 OA
ATOM     47   O  GCT B   3      21.203  32.814  58.0460  0.00  0.00     0.000 OA
ENDBRANCH 39 45
BRANCH 35 48
ATOM     48  O3  ASG B   4      23.905  31.144  56.2130  0.00  0.00     0.000 O
BRANCH 48 51
ATOM     49  C1  ASG B   4      26.647  31.060  53.7300  0.00  0.00     0.000 C
ATOM     50  C2  ASG B   4      25.630  31.614  54.7420  0.00  0.00     0.000 C
ATOM     51  C3  ASG B   4      24.947  30.487  55.5120  0.00  0.00     0.000 C
ATOM     52  C4  ASG B   4      24.408  29.424  54.5700  0.00  0.00     0.000 C
ATOM     53  C5  ASG B   4      25.553  28.958  53.6750  0.00  0.00     0.000 C
ATOM     54  O5  ASG B   4      26.038  30.078  52.9070  0.00  0.00     0.000 O
BRANCH 50 57
ATOM     55   N  ASG B   4      26.405  32.497  55.5830  0.00  0.00     0.000 N
ATOM     57  HD  ASG B   4      26.558  33.112  54.9930  0.00  0.00     0.000 HD
ATOM     57   O  ASG B   4      25.876  34.355  54.4510  0.00  0.00     0.000 OA
ATOM     58   C  ASG B   4      26.385  33.824  55.4340  0.00  0.00     0.000 C
ATOM     59   C  ASG B   4      27.067  34.608  56.5130  0.00  0.00     0.000 C
ENDBRANCH 50 57
BRANCH 52 60
ATOM     60   O  ASG B   4      23.308  30.120  53.8540  0.00  0.00     0.000 O
ATOM     61   O  ASG B   4      21.692  28.261  54.2640  0.00  0.00     0.000 OA
ATOM     62   O  ASG B   4      20.949  30.270  53.2250  0.00  0.00     0.000 OA
ATOM     63   O  ASG B   4      22.532  28.886  52.0870  0.00  0.00     0.000 OA
ATOM     64   S  ASG B   4      21.995  29.333  53.3760  0.00  0.00     0.000 S
ENDBRANCH 52 60
ATOM     65   O  ASG B   4      26.359  27.243  52.1610  0.00  0.00     0.000 O
ATOM     67  HD  ASG B   4      26.618  27.853  51.6030  0.00  0.00     0.000 HD
ATOM     67   O  ASG B   4      26.359  27.243  52.1610  0.00  0.00     0.000 O
ATOM     69  HD  ASG B   4      26.618  27.853  51.6030  0.00  0.00     0.000 HD
ENDBRANCH 48 51
ENDBRANCH 35 48
ENDBRANCH 34 38
ENDBRANCH 15 34
ENDBRANCH 14 17
ENDBRANCH 1 14
TORSDOF 12
ENDMDL
MODEL 20
REMARK VINA RESULT:      -7.9     41.012     45.048
ROOT
ATOM      1  C1  GAD B   1       3.752  52.528  75.1580  0.00  0.00     0.000 C
ATOM      2  C2  GAD B   1       2.524  52.497  74.2430  0.00  0.00     0.000 C
ATOM      3  C3  GAD B   1       1.419  51.643  74.8750  0.00  0.00     0.000 C
ATOM      4  C4  GAD B   1       1.926  50.476  75.7270  0.00  0.00     0.000 C
ATOM      5  C5  GAD B   1       3.220  50.278  76.0480  0.00  0.00     0.000 C
ATOM      6  O5  GAD B   1       4.182  51.205  75.5100  0.00  0.00     0.000 O
ATOM      7   O  GAD B   1       2.071  53.860  73.9040  0.00  0.00     0.000 O
ATOM      9  HD  GAD B   1       2.859  54.047  74.2110  0.00  0.00     0.000 HD
ATOM      9   O  GAD B   1       0.558  51.061  73.8710  0.00  0.00     0.000 O
ATOM     11  HD  GAD B   1       1.346  51.247  74.1780  0.00  0.00     0.000 HD
ENDROOT
BRANCH 5 11
ATOM     11   C  GAD B   1       3.710  49.215  76.9580  0.00  0.00     0.000 C
ATOM     12   O  GAD B   1       2.927  48.238  77.1740  0.00  0.00     0.000 OA
ATOM     13   O  GAD B   1       4.844  49.344  77.5510  0.00  0.00     0.000 OA
ENDBRANCH 5 11
BRANCH 1 14
ATOM     14  O3  ASG B   2       4.996  52.823  74.7360  0.00  0.00     0.000 O
BRANCH 14 17
ATOM     15  C1  ASG B   2       8.557  51.560  74.8190  0.00  0.00     0.000 C
ATOM     16  C2  ASG B   2       7.397  52.524  75.1050  0.00  0.00     0.000 C
ATOM     17  C3  ASG B   2       6.112  51.958  74.4930  0.00  0.00     0.000 C
ATOM     18  C4  ASG B   2       6.291  51.765  72.9990  0.00  0.00     0.000 C
ATOM     19  C5  ASG B   2       7.526  50.904  72.7530  0.00  0.00     0.000 C
ATOM     20  O5  ASG B   2       8.670  51.483  73.4100  0.00  0.00     0.000 O
ATOM     21   C  ASG B   2       7.878  50.797  71.3030  0.00  0.00     0.000 C
ATOM     22   O  ASG B   2       9.133  50.176  71.1730  0.00  0.00     0.000 O
ATOM     24  HD  ASG B   2       9.883  49.809  70.9440  0.00  0.00     0.000 HD
BRANCH 16 26
ATOM     24   N  ASG B   2       7.260  53.836  75.6950  0.00  0.00     0.000 N
ATOM     26  HD  ASG B   2       6.830  53.603  74.9800  0.00  0.00     0.000 HD
ATOM     26   C  ASG B   2       6.812  54.055  76.9460  0.00  0.00     0.000 C
ATOM     27   C  ASG B   2       7.058  55.416  77.5000  0.00  0.00     0.000 C
ATOM     28   O  ASG B   2       6.237  53.184  77.5860  0.00  0.00     0.000 OA
ENDBRANCH 16 26
BRANCH 18 29
ATOM     29   O  ASG B   2       6.407  53.108  72.4160  0.00  0.00     0.000 O
ATOM     30   O  ASG B   2       5.550  52.444  70.2090  0.00  0.00     0.000 OA
ATOM     31   O  ASG B   2       4.153  53.743  71.7110  0.00  0.00     0.000 OA
ATOM     32   O  ASG B   2       6.090  54.757  70.6790  0.00  0.00     0.000 OA
ATOM     33   S  ASG B   2       5.476  53.525  71.1740  0.00  0.00     0.000 S
ENDBRANCH 18 29
BRANCH 15 34
ATOM     34  O4  ASG B   3       9.782  51.984  75.3440  0.00  0.00     0.000 O
BRANCH 34 38
ATOM     35  C1  GCT B   3       9.766  49.481  78.5210  0.00  0.00     0.000 C
ATOM     36  C2  GCT B   3      10.482  50.790  78.7730  0.00  0.00     0.000 C
ATOM     37  C3  GCT B   3      10.086  51.832  77.7360  0.00  0.00     0.000 C
ATOM     38  C4  GCT B   3      10.450  51.315  76.3380  0.00  0.00     0.000 C
ATOM     39  C5  GCT B   3      10.292  49.781  76.2280  0.00  0.00     0.000 C
ATOM     40  O5  GCT B   3       9.308  49.407  77.1760  0.00  0.00     0.000 O
ATOM     41   O  GCT B   3      10.096  51.217  80.0720  0.00  0.00     0.000 O
ATOM     43  HD  GCT B   3      10.337  50.960  80.8630  0.00  0.00     0.000 HD
ATOM     43   O  GCT B   3      10.739  53.076  78.0610  0.00  0.00     0.000 O
ATOM     45  HD  GCT B   3      10.980  52.820  78.8520  0.00  0.00     0.000 HD
BRANCH 39 45
ATOM     45   C  GCT B   3      11.520  48.917  76.4130  0.00  0.00     0.000 C
ATOM     46   O  GCT B   3      11.398  47.652  76.4360  0.00  0.00     0.000 OA
ATOM     47   O  GCT B   3      12.617  49.487  76.5230  0.00  0.00     0.000 OA
ENDBRANCH 39 45
BRANCH 35 48
ATOM     48  O3  ASG B   4      10.316  48.537  79.2550  0.00  0.00     0.000 O
BRANCH 48 51
ATOM     49  C1  ASG B   4       8.769  46.682  82.0580  0.00  0.00     0.000 C
ATOM     50  C2  ASG B   4       9.639  47.704  81.3060  0.00  0.00     0.000 C
ATOM     51  C3  ASG B   4       9.292  47.737  79.8200  0.00  0.00     0.000 C
ATOM     52  C4  ASG B   4       9.280  46.338  79.2270  0.00  0.00     0.000 C
ATOM     53  C5  ASG B   4       8.339  45.475  80.0640  0.00  0.00     0.000 C
ATOM     54  O5  ASG B   4       8.831  45.418  81.4170  0.00  0.00     0.000 O
BRANCH 50 57
ATOM     55   N  ASG B   4       9.273  48.824  82.1430  0.00  0.00     0.000 N
ATOM     57  HD  ASG B   4       9.758  48.618  82.8300  0.00  0.00     0.000 HD
ATOM     57   O  ASG B   4      11.182  48.821  83.3140  0.00  0.00     0.000 OA
ATOM     58   C  ASG B   4      10.123  49.367  83.0190  0.00  0.00     0.000 C
ATOM     59   C  ASG B   4       9.672  50.648  83.6510  0.00  0.00     0.000 C
ENDBRANCH 50 57
BRANCH 52 60
ATOM     60   O  ASG B   4      10.706  45.926  79.2790  0.00  0.00     0.000 O
ATOM     61   O  ASG B   4      10.459  44.363  77.3480  0.00  0.00     0.000 OA
ATOM     62   O  ASG B   4      12.609  44.743  78.2970  0.00  0.00     0.000 OA
ATOM     63   O  ASG B   4      10.926  43.671  79.6150  0.00  0.00     0.000 OA
ATOM     64   S  ASG B   4      11.221  44.607  78.5260  0.00  0.00     0.000 S
ENDBRANCH 52 60
ATOM     65   O  ASG B   4       7.045  43.428  80.1750  0.00  0.00     0.000 O
ATOM     67  HD  ASG B   4       7.350  43.274  80.9710  0.00  0.00     0.000 HD
ATOM     67   O  ASG B   4       7.045  43.428  80.1750  0.00  0.00     0.000 O
ATOM     69  HD  ASG B   4       7.350  43.274  80.9710  0.00  0.00     0.000 HD
ENDBRANCH 48 51
ENDBRANCH 35 48
ENDBRANCH 34 38
ENDBRANCH 15 34
ENDBRANCH 14 17
ENDBRANCH 1 14
TORSDOF 12
ENDMDL
MODEL 21
REMARK VINA RESULT:      -7.8      4.614      7.625
ROOT
ATOM      1  C1  GAD B   1       7.679  34.998  29.5930  0.00  0.00     0.000 C
ATOM      2  C2  GAD B   1       6.313  35.062  28.9020  0.00  0.00     0.000 C
ATOM      3  C3  GAD B   1       5.458  33.858  29.3140  0.00  0.00     0.000 C
ATOM      4  C4  GAD B   1       6.254  32.581  29.5990  0.00  0.00     0.000 C
ATOM      5  C5  GAD B   1       7.599  32.521  29.6500  0.00  0.00     0.000 C
ATOM      6  O5  GAD B   1       8.324  33.734  29.3700  0.00  0.00     0.000 O
ATOM      7   O  GAD B   1       5.644  36.352  29.1540  0.00  0.00     0.000 O
ATOM      9  HD  GAD B   1       6.447  36.561  29.4020  0.00  0.00     0.000 HD
ATOM      9   O  GAD B   1       4.500  33.512  28.2890  0.00  0.00     0.000 O
ATOM     11  HD  GAD B   1       5.303  33.721  28.5360  0.00  0.00     0.000 HD
ENDROOT
BRANCH 5 11
ATOM     11   C  GAD B   1       8.376  31.318  30.0290  0.00  0.00     0.000 C
ATOM     12   O  GAD B   1       9.097  31.403  31.0710  0.00  0.00     0.000 OA
ATOM     13   O  GAD B   1       8.365  30.277  29.2730  0.00  0.00     0.000 OA
ENDBRANCH 5 11
BRANCH 1 14
ATOM     14  O3  ASG B   2       8.777  35.639  29.1490  0.00  0.00     0.000 O
BRANCH 14 17
ATOM     15  C1  ASG B   2      11.470  38.013  30.3260  0.00  0.00     0.000 C
ATOM     16  C2  ASG B   2      10.240  37.563  29.5250  0.00  0.00     0.000 C
ATOM     17  C3  ASG B   2       9.922  36.105  29.8700  0.00  0.00     0.000 C
ATOM     18  C4  ASG B   2      11.117  35.226  29.5540  0.00  0.00     0.000 C
ATOM     19  C5  ASG B   2      12.346  35.778  30.2700  0.00  0.00     0.000 C
ATOM     20  O5  ASG B   2      12.533  37.166  29.9290  0.00  0.00     0.000 O
ATOM     21   C  ASG B   2      13.606  35.072  29.8840  0.00  0.00     0.000 C
ATOM     22   O  ASG B   2      14.709  35.767  30.4120  0.00  0.00     0.000 O
ATOM     24  HD  ASG B   2      15.471  36.086  30.6740  0.00  0.00     0.000 HD
BRANCH 16 26
ATOM     24   N  ASG B   2       9.400  38.106  28.4820  0.00  0.00     0.000 N
ATOM     26  HD  ASG B   2       9.642  37.274  28.4960  0.00  0.00     0.000 HD
ATOM     26   C  ASG B   2       8.196  38.665  28.7010  0.00  0.00     0.000 C
ATOM     27   C  ASG B   2       7.633  39.468  27.5780  0.00  0.00     0.000 C
ATOM     28   O  ASG B   2       7.601  38.520  29.7610  0.00  0.00     0.000 OA
ENDBRANCH 16 26
BRANCH 18 29
ATOM     29   O  ASG B   2      11.260  35.227  28.0920  0.00  0.00     0.000 O
ATOM     30   O  ASG B   2      12.377  33.039  27.9970  0.00  0.00     0.000 OA
ATOM     31   O  ASG B   2      10.065  33.251  27.2870  0.00  0.00     0.000 OA
ATOM     32   O  ASG B   2      11.832  34.237  25.9640  0.00  0.00     0.000 OA
ATOM     33   S  ASG B   2      11.386  33.836  27.2980  0.00  0.00     0.000 S
ENDBRANCH 18 29
BRANCH 15 34
ATOM     34  O4  ASG B   3      11.843  39.340  30.0870  0.00  0.00     0.000 O
BRANCH 34 38
ATOM     35  C1  GCT B   3      15.061  39.476  32.5340  0.00  0.00     0.000 C
ATOM     36  C2  GCT B   3      13.809  40.087  33.1270  0.00  0.00     0.000 C
ATOM     37  C3  GCT B   3      12.571  39.625  32.3720  0.00  0.00     0.000 C
ATOM     38  C4  GCT B   3      12.692  40.044  30.9020  0.00  0.00     0.000 C
ATOM     39  C5  GCT B   3      14.156  40.004  30.4060  0.00  0.00     0.000 C
ATOM     40  O5  GCT B   3      14.825  39.040  31.2000  0.00  0.00     0.000 O
ATOM     41   O  GCT B   3      13.752  39.655  34.4790  0.00  0.00     0.000 O
ATOM     43  HD  GCT B   3      14.182  39.905  35.1880  0.00  0.00     0.000 HD
ATOM     43   O  GCT B   3      11.406  40.179  33.0190  0.00  0.00     0.000 O
ATOM     45  HD  GCT B   3      11.836  40.429  33.7280  0.00  0.00     0.000 HD
BRANCH 39 45
ATOM     45   C  GCT B   3      14.950  41.292  30.4070  0.00  0.00     0.000 C
ATOM     46   O  GCT B   3      16.162  41.281  30.0210  0.00  0.00     0.000 OA
ATOM     47   O  GCT B   3      14.373  42.327  30.7770  0.00  0.00     0.000 OA
ENDBRANCH 39 45
BRANCH 35 48
ATOM     48  O3  ASG B   4      16.117  40.087  33.0250  0.00  0.00     0.000 O
BRANCH 48 51
ATOM     49  C1  ASG B   4      18.796  39.282  35.4470  0.00  0.00     0.000 C
ATOM     50  C2  ASG B   4      17.840  40.110  34.5720  0.00  0.00     0.000 C
ATOM     51  C3  ASG B   4      16.752  39.232  33.9600  0.00  0.00     0.000 C
ATOM     52  C4  ASG B   4      17.347  38.006  33.2870  0.00  0.00     0.000 C
ATOM     53  C5  ASG B   4      18.226  37.285  34.3060  0.00  0.00     0.000 C
ATOM     54  O5  ASG B   4      19.287  38.167  34.7210  0.00  0.00     0.000 O
BRANCH 50 57
ATOM     55   N  ASG B   4      17.087  41.261  35.0140  0.00  0.00     0.000 N
ATOM     57  HD  ASG B   4      17.750  41.714  35.3380  0.00  0.00     0.000 HD
ATOM     57   O  ASG B   4      18.803  42.690  34.8460  0.00  0.00     0.000 OA
ATOM     58   C  ASG B   4      17.604  42.493  35.0180  0.00  0.00     0.000 C
ATOM     59   C  ASG B   4      16.635  43.601  35.2960  0.00  0.00     0.000 C
ENDBRANCH 50 57
BRANCH 52 60
ATOM     60   O  ASG B   4      18.082  38.570  32.1260  0.00  0.00     0.000 O
ATOM     61   O  ASG B   4      17.220  36.822  30.5670  0.00  0.00     0.000 OA
ATOM     62   O  ASG B   4      18.533  38.620  29.7220  0.00  0.00     0.000 OA
ATOM     63   O  ASG B   4      19.534  37.048  31.2210  0.00  0.00     0.000 OA
ATOM     64   S  ASG B   4      18.305  37.718  30.7860  0.00  0.00     0.000 S
ENDBRANCH 52 60
ATOM     65   O  ASG B   4      19.365  35.224  34.8840  0.00  0.00     0.000 O
ATOM     67  HD  ASG B   4      20.078  35.672  35.0890  0.00  0.00     0.000 HD
ATOM     67   O  ASG B   4      19.365  35.224  34.8840  0.00  0.00     0.000 O
ATOM     69  HD  ASG B   4      20.078  35.672  35.0890  0.00  0.00     0.000 HD
ENDBRANCH 48 51
ENDBRANCH 35 48
ENDBRANCH 34 38
ENDBRANCH 15 34
ENDBRANCH 14 17
ENDBRANCH 1 14
TORSDOF 12
ENDMDL
MODEL 22
REMARK VINA RESULT:      -7.8      5.823     11.038
ROOT
ATOM      1  C1  GAD B   1      16.778  46.084  32.6230  0.00  0.00     0.000 C
ATOM      2  C2  GAD B   1      16.564  47.600  32.5830  0.00  0.00     0.000 C
ATOM      3  C3  GAD B   1      17.479  48.288  33.6040  0.00  0.00     0.000 C
ATOM      4  C4  GAD B   1      17.765  47.460  34.8590  0.00  0.00     0.000 C
ATOM      5  C5  GAD B   1      17.395  46.174  35.0210  0.00  0.00     0.000 C
ATOM      6  O5  GAD B   1      16.641  45.567  33.9550  0.00  0.00     0.000 O
ATOM      7   O  GAD B   1      16.729  48.132  31.2170  0.00  0.00     0.000 O
ATOM      9  HD  GAD B   1      16.655  47.289  31.0310  0.00  0.00     0.000 HD
ATOM      9   O  GAD B   1      16.915  49.536  34.0660  0.00  0.00     0.000 O
ATOM     11  HD  GAD B   1      16.841  48.693  33.8810  0.00  0.00     0.000 HD
ENDROOT
BRANCH 5 11
ATOM     11   C  GAD B   1      17.758  45.333  36.1850  0.00  0.00     0.000 C
ATOM     12   O  GAD B   1      18.648  44.446  35.9990  0.00  0.00     0.000 OA
ATOM     13   O  GAD B   1      17.126  45.461  37.2980  0.00  0.00     0.000 OA
ENDBRANCH 5 11
BRANCH 1 14
ATOM     14  O3  ASG B   2      15.878  45.187  32.1790  0.00  0.00     0.000 O
BRANCH 14 17
ATOM     15  C1  ASG B   2      12.255  44.115  32.1010  0.00  0.00     0.000 C
ATOM     16  C2  ASG B   2      13.774  43.939  32.2410  0.00  0.00     0.000 C
ATOM     17  C3  ASG B   2      14.456  45.297  32.0530  0.00  0.00     0.000 C
ATOM     18  C4  ASG B   2      14.107  45.868  30.6920  0.00  0.00     0.000 C
ATOM     19  C5  ASG B   2      12.590  45.910  30.5430  0.00  0.00     0.000 C
ATOM     20  O5  ASG B   2      12.033  44.604  30.7910  0.00  0.00     0.000 O
ATOM     21   C  ASG B   2      12.154  46.304  29.1680  0.00  0.00     0.000 C
ATOM     22   O  ASG B   2      10.765  46.114  29.0470  0.00  0.00     0.000 O
ATOM     24  HD  ASG B   2       9.928  46.051  28.8330  0.00  0.00     0.000 HD
BRANCH 16 26
ATOM     24   N  ASG B   2      14.327  43.449  33.4830  0.00  0.00     0.000 N
ATOM     26  HD  ASG B   2      13.480  43.409  33.3070  0.00  0.00     0.000 HD
ATOM     26   C  ASG B   2      15.246  42.469  33.5630  0.00  0.00     0.000 C
ATOM     27   C  ASG B   2      15.947  42.332  34.8710  0.00  0.00     0.000 C
ATOM     28   O  ASG B   2      15.489  41.735  32.6130  0.00  0.00     0.000 OA
ENDBRANCH 16 26
BRANCH 18 29
ATOM     29   O  ASG B   2      14.753  45.000  29.6980  0.00  0.00     0.000 O
ATOM     30   O  ASG B   2      15.106  46.798  28.0590  0.00  0.00     0.000 OA
ATOM     31   O  ASG B   2      16.985  45.929  29.3280  0.00  0.00     0.000 OA
ATOM     32   O  ASG B   2      15.932  44.561  27.6350  0.00  0.00     0.000 OA
ATOM     33   S  ASG B   2      15.763  45.631  28.6190  0.00  0.00     0.000 S
ENDBRANCH 18 29
BRANCH 15 34
ATOM     34  O4  ASG B   3      11.535  42.926  32.2620  0.00  0.00     0.000 O
BRANCH 34 38
ATOM     35  C1  GCT B   3      10.505  39.297  30.8010  0.00  0.00     0.000 C
ATOM     36  C2  GCT B   3      11.685  39.268  31.7490  0.00  0.00     0.000 C
ATOM     37  C3  GCT B   3      11.743  40.541  32.5810  0.00  0.00     0.000 C
ATOM     38  C4  GCT B   3      11.874  41.749  31.6450  0.00  0.00     0.000 C
ATOM     39  C5  GCT B   3      11.115  41.537  30.3160  0.00  0.00     0.000 C
ATOM     40  O5  GCT B   3      10.060  40.633  30.5920  0.00  0.00     0.000 O
ATOM     41   O  GCT B   3      11.498  38.138  32.5900  0.00  0.00     0.000 O
ATOM     43  HD  GCT B   3      11.613  37.290  32.4570  0.00  0.00     0.000 HD
ATOM     43   O  GCT B   3      12.840  40.431  33.5130  0.00  0.00     0.000 O
ATOM     45  HD  GCT B   3      12.955  39.583  33.3800  0.00  0.00     0.000 HD
BRANCH 39 45
ATOM     45   C  GCT B   3      11.893  41.047  29.1140  0.00  0.00     0.000 C
ATOM     46   O  GCT B   3      11.284  40.832  28.0180  0.00  0.00     0.000 OA
ATOM     47   O  GCT B   3      13.117  40.885  29.2440  0.00  0.00     0.000 OA
ENDBRANCH 39 45
BRANCH 35 48
ATOM     48  O3  ASG B   4      10.628  38.324  29.9240  0.00  0.00     0.000 O
BRANCH 48 51
ATOM     49  C1  ASG B   4       9.078  34.998  29.4500  0.00  0.00     0.000 C
ATOM     50  C2  ASG B   4      10.155  36.094  29.5210  0.00  0.00     0.000 C
ATOM     51  C3  ASG B   4       9.601  37.372  30.1440  0.00  0.00     0.000 C
ATOM     52  C4  ASG B   4       8.298  37.788  29.4830  0.00  0.00     0.000 C
ATOM     53  C5  ASG B   4       7.337  36.604  29.5400  0.00  0.00     0.000 C
ATOM     54  O5  ASG B   4       7.910  35.496  28.8180  0.00  0.00     0.000 O
BRANCH 50 57
ATOM     55   N  ASG B   4      11.414  35.906  30.2040  0.00  0.00     0.000 N
ATOM     57  HD  ASG B   4      11.669  35.195  29.7810  0.00  0.00     0.000 HD
ATOM     57   O  ASG B   4      12.402  34.842  28.5000  0.00  0.00     0.000 OA
ATOM     58   C  ASG B   4      12.484  35.382  29.5990  0.00  0.00     0.000 C
ATOM     59   C  ASG B   4      13.765  35.453  30.3710  0.00  0.00     0.000 C
ENDBRANCH 50 57
BRANCH 52 60
ATOM     60   O  ASG B   4       8.714  38.180  28.1110  0.00  0.00     0.000 O
ATOM     61   O  ASG B   4       6.643  39.518  27.7260  0.00  0.00     0.000 OA
ATOM     62   O  ASG B   4       8.378  39.525  26.0960  0.00  0.00     0.000 OA
ATOM     63   O  ASG B   4       7.200  37.491  26.5360  0.00  0.00     0.000 OA
ATOM     64   S  ASG B   4       7.663  38.780  27.0600  0.00  0.00     0.000 S
ENDBRANCH 52 60
ATOM     65   O  ASG B   4       5.035  35.865  29.3580  0.00  0.00     0.000 O
ATOM     67  HD  ASG B   4       5.283  35.207  28.8520  0.00  0.00     0.000 HD
ATOM     67   O  ASG B   4       5.035  35.865  29.3580  0.00  0.00     0.000 O
ATOM     69  HD  ASG B   4       5.283  35.207  28.8520  0.00  0.00     0.000 HD
ENDBRANCH 48 51
ENDBRANCH 35 48
ENDBRANCH 34 38
ENDBRANCH 15 34
ENDBRANCH 14 17
ENDBRANCH 1 14
TORSDOF 12
ENDMDL
MODEL 23
REMARK VINA RESULT:      -7.8      4.712      8.475
ROOT
ATOM      1  C1  GAD B   1       7.873  35.006  29.2730  0.00  0.00     0.000 C
ATOM      2  C2  GAD B   1       6.641  35.017  28.3630  0.00  0.00     0.000 C
ATOM      3  C3  GAD B   1       5.740  33.818  28.6810  0.00  0.00     0.000 C
ATOM      4  C4  GAD B   1       6.489  32.569  29.1530  0.00  0.00     0.000 C
ATOM      5  C5  GAD B   1       7.808  32.533  29.4300  0.00  0.00     0.000 C
ATOM      6  O5  GAD B   1       8.557  33.745  29.2190  0.00  0.00     0.000 O
ATOM      7   O  GAD B   1       5.927  36.306  28.4400  0.00  0.00     0.000 O
ATOM      9  HD  GAD B   1       6.676  36.538  28.8080  0.00  0.00     0.000 HD
ATOM      9   O  GAD B   1       4.970  33.411  27.5280  0.00  0.00     0.000 O
ATOM     11  HD  GAD B   1       5.719  33.644  27.8950  0.00  0.00     0.000 HD
ENDROOT
BRANCH 5 11
ATOM     11   C  GAD B   1       8.522  31.361  29.9880  0.00  0.00     0.000 C
ATOM     12   O  GAD B   1       8.358  30.251  29.3920  0.00  0.00     0.000 OA
ATOM     13   O  GAD B   1       9.201  31.475  31.0740  0.00  0.00     0.000 OA
ENDBRANCH 5 11
BRANCH 1 14
ATOM     14  O3  ASG B   2       9.023  35.645  28.9890  0.00  0.00     0.000 O
BRANCH 14 17
ATOM     15  C1  ASG B   2      11.430  38.045  30.6410  0.00  0.00     0.000 C
ATOM     16  C2  ASG B   2      10.318  37.604  29.6790  0.00  0.00     0.000 C
ATOM     17  C3  ASG B   2      10.058  36.106  29.8660  0.00  0.00     0.000 C
ATOM     18  C4  ASG B   2      11.331  35.323  29.6070  0.00  0.00     0.000 C
ATOM     19  C5  ASG B   2      12.444  35.874  30.4940  0.00  0.00     0.000 C
ATOM     20  O5  ASG B   2      12.578  37.294  30.2910  0.00  0.00     0.000 O
ATOM     21   C  ASG B   2      13.778  35.272  30.1890  0.00  0.00     0.000 C
ATOM     22   O  ASG B   2      14.776  35.975  30.8870  0.00  0.00     0.000 O
ATOM     24  HD  ASG B   2      15.486  36.309  31.2540  0.00  0.00     0.000 HD
BRANCH 16 26
ATOM     24   N  ASG B   2       9.547  38.166  28.5940  0.00  0.00     0.000 N
ATOM     26  HD  ASG B   2       9.823  37.345  28.5880  0.00  0.00     0.000 HD
ATOM     26   C  ASG B   2       8.305  38.665  28.7340  0.00  0.00     0.000 C
ATOM     27   C  ASG B   2       7.804  39.502  27.6070  0.00  0.00     0.000 C
ATOM     28   O  ASG B   2       7.629  38.442  29.7300  0.00  0.00     0.000 OA
ENDBRANCH 16 26
BRANCH 18 29
ATOM     29   O  ASG B   2      11.622  35.462  28.1740  0.00  0.00     0.000 O
ATOM     30   O  ASG B   2      12.727  33.274  27.9800  0.00  0.00     0.000 OA
ATOM     31   O  ASG B   2      10.501  33.593  27.0650  0.00  0.00     0.000 OA
ATOM     32   O  ASG B   2      12.401  34.669  26.0280  0.00  0.00     0.000 OA
ATOM     33   S  ASG B   2      11.818  34.150  27.2660  0.00  0.00     0.000 S
ENDBRANCH 18 29
BRANCH 15 34
ATOM     34  O4  ASG B   3      11.742  39.406  30.5530  0.00  0.00     0.000 O
BRANCH 34 38
ATOM     35  C1  GCT B   3      14.413  42.005  32.1260  0.00  0.00     0.000 C
ATOM     36  C2  GCT B   3      14.422  41.953  30.6130  0.00  0.00     0.000 C
ATOM     37  C3  GCT B   3      13.143  41.317  30.0860  0.00  0.00     0.000 C
ATOM     38  C4  GCT B   3      13.021  39.894  30.6420  0.00  0.00     0.000 C
ATOM     39  C5  GCT B   3      13.600  39.778  32.0710  0.00  0.00     0.000 C
ATOM     40  O5  GCT B   3      13.489  41.062  32.6580  0.00  0.00     0.000 O
ATOM     41   O  GCT B   3      14.526  43.296  30.1640  0.00  0.00     0.000 O
ATOM     43  HD  GCT B   3      15.194  43.846  30.1260  0.00  0.00     0.000 HD
ATOM     43   O  GCT B   3      13.172  41.356  28.6440  0.00  0.00     0.000 O
ATOM     45  HD  GCT B   3      13.840  41.905  28.6050  0.00  0.00     0.000 HD
BRANCH 39 45
ATOM     45   C  GCT B   3      15.018  39.274  32.2330  0.00  0.00     0.000 C
ATOM     46   O  GCT B   3      15.679  38.917  31.2080  0.00  0.00     0.000 OA
ATOM     47   O  GCT B   3      15.492  39.242  33.3810  0.00  0.00     0.000 OA
ENDBRANCH 39 45
BRANCH 35 48
ATOM     48  O3  ASG B   4      15.619  42.308  32.5570  0.00  0.00     0.000 O
BRANCH 48 51
ATOM     49  C1  ASG B   4      16.163  45.453  34.4300  0.00  0.00     0.000 C
ATOM     50  C2  ASG B   4      15.989  44.488  33.2450  0.00  0.00     0.000 C
ATOM     51  C3  ASG B   4      15.504  43.119  33.7140  0.00  0.00     0.000 C
ATOM     52  C4  ASG B   4      16.360  42.594  34.8550  0.00  0.00     0.000 C
ATOM     53  C5  ASG B   4      16.387  43.652  35.9540  0.00  0.00     0.000 C
ATOM     54  O5  ASG B   4      16.974  44.860  35.4310  0.00  0.00     0.000 O
BRANCH 50 57
ATOM     55   N  ASG B   4      15.191  45.562  32.6990  0.00  0.00     0.000 N
ATOM     57  HD  ASG B   4      15.839  46.019  32.3480  0.00  0.00     0.000 HD
ATOM     57   O  ASG B   4      16.629  46.052  31.0530  0.00  0.00     0.000 OA
ATOM     58   C  ASG B   4      15.527  46.199  31.5730  0.00  0.00     0.000 C
ATOM     59   C  ASG B   4      14.493  47.135  31.0250  0.00  0.00     0.000 C
ENDBRANCH 50 57
BRANCH 52 60
ATOM     60   O  ASG B   4      17.675  42.336  34.2130  0.00  0.00     0.000 O
ATOM     61   O  ASG B   4      17.953  40.140  35.3680  0.00  0.00     0.000 OA
ATOM     62   O  ASG B   4      19.542  40.830  33.7340  0.00  0.00     0.000 OA
ATOM     63   O  ASG B   4      19.340  42.078  35.7640  0.00  0.00     0.000 OA
ATOM     64   S  ASG B   4      18.675  41.218  34.7800  0.00  0.00     0.000 S
ENDBRANCH 52 60
ATOM     65   O  ASG B   4      16.860  44.126  38.2850  0.00  0.00     0.000 O
ATOM     67  HD  ASG B   4      17.297  44.837  38.0550  0.00  0.00     0.000 HD
ATOM     67   O  ASG B   4      16.860  44.126  38.2850  0.00  0.00     0.000 O
ATOM     69  HD  ASG B   4      17.297  44.837  38.0550  0.00  0.00     0.000 HD
ENDBRANCH 48 51
ENDBRANCH 35 48
ENDBRANCH 34 38
ENDBRANCH 15 34
ENDBRANCH 14 17
ENDBRANCH 1 14
TORSDOF 12
ENDMDL
MODEL 24
REMARK VINA RESULT:      -7.8     25.481     30.198
ROOT
ATOM      1  C1  GAD B   1       6.767  62.537  31.9880  0.00  0.00     0.000 C
ATOM      2  C2  GAD B   1       6.235  61.629  33.1010  0.00  0.00     0.000 C
ATOM      3  C3  GAD B   1       7.054  60.334  33.1610  0.00  0.00     0.000 C
ATOM      4  C4  GAD B   1       7.598  59.863  31.8090  0.00  0.00     0.000 C
ATOM      5  C5  GAD B   1       7.520  60.579  30.6690  0.00  0.00     0.000 C
ATOM      6  O5  GAD B   1       6.838  61.846  30.7320  0.00  0.00     0.000 O
ATOM      7   O  GAD B   1       6.186  62.336  34.3950  0.00  0.00     0.000 O
ATOM      9  HD  GAD B   1       6.279  63.016  33.8670  0.00  0.00     0.000 HD
ATOM      9   O  GAD B   1       6.274  59.236  33.6830  0.00  0.00     0.000 O
ATOM     11  HD  GAD B   1       6.366  59.916  33.1550  0.00  0.00     0.000 HD
ENDROOT
BRANCH 5 11
ATOM     11   C  GAD B   1       8.135  60.181  29.3810  0.00  0.00     0.000 C
ATOM     12   O  GAD B   1       9.197  60.790  29.0390  0.00  0.00     0.000 OA
ATOM     13   O  GAD B   1       7.554  59.317  28.6270  0.00  0.00     0.000 OA
ENDBRANCH 5 11
BRANCH 1 14
ATOM     14  O3  ASG B   2       6.048  63.518  31.4100  0.00  0.00     0.000 O
BRANCH 14 17
ATOM     15  C1  ASG B   2       4.561  66.876  32.2990  0.00  0.00     0.000 C
ATOM     16  C2  ASG B   2       4.559  65.375  31.9800  0.00  0.00     0.000 C
ATOM     17  C3  ASG B   2       5.996  64.917  31.7110  0.00  0.00     0.000 C
ATOM     18  C4  ASG B   2       6.585  65.709  30.5590  0.00  0.00     0.000 C
ATOM     19  C5  ASG B   2       6.455  67.199  30.8600  0.00  0.00     0.000 C
ATOM     20  O5  ASG B   2       5.082  67.524  31.1540  0.00  0.00     0.000 O
ATOM     21   C  ASG B   2       6.859  68.060  29.7060  0.00  0.00     0.000 C
ATOM     22   O  ASG B   2       6.513  69.395  29.9780  0.00  0.00     0.000 O
ATOM     24  HD  ASG B   2       6.361  70.247  30.0110  0.00  0.00     0.000 HD
BRANCH 16 26
ATOM     24   N  ASG B   2       3.884  64.572  32.9730  0.00  0.00     0.000 N
ATOM     26  HD  ASG B   2       3.673  65.398  32.8250  0.00  0.00     0.000 HD
ATOM     26   C  ASG B   2       3.213  63.439  32.6960  0.00  0.00     0.000 C
ATOM     27   C  ASG B   2       2.880  62.572  33.8620  0.00  0.00     0.000 C
ATOM     28   O  ASG B   2       2.896  63.141  31.5510  0.00  0.00     0.000 OA
ENDBRANCH 16 26
BRANCH 18 29
ATOM     29   O  ASG B   2       5.847  65.304  29.3550  0.00  0.00     0.000 O
ATOM     30   O  ASG B   2       7.717  65.737  27.8180  0.00  0.00     0.000 OA
ATOM     31   O  ASG B   2       7.108  63.453  28.3720  0.00  0.00     0.000 OA
ATOM     32   O  ASG B   2       5.639  64.798  27.0010  0.00  0.00     0.000 OA
ATOM     33   S  ASG B   2       6.648  64.786  28.0610  0.00  0.00     0.000 S
ENDBRANCH 18 29
BRANCH 15 34
ATOM     34  O4  ASG B   3       3.290  67.395  32.5670  0.00  0.00     0.000 O
BRANCH 34 38
ATOM     35  C1  GCT B   3       2.639  67.350  36.5590  0.00  0.00     0.000 C
ATOM     36  C2  GCT B   3       1.530  68.002  35.7620  0.00  0.00     0.000 C
ATOM     37  C3  GCT B   3       1.614  67.608  34.2940  0.00  0.00     0.000 C
ATOM     38  C4  GCT B   3       2.971  68.048  33.7310  0.00  0.00     0.000 C
ATOM     39  C5  GCT B   3       4.095  67.956  34.7870  0.00  0.00     0.000 C
ATOM     40  O5  GCT B   3       3.705  66.950  35.7060  0.00  0.00     0.000 O
ATOM     41   O  GCT B   3       0.308  67.548  36.3240  0.00  0.00     0.000 O
ATOM     43  HD  GCT B   3      -0.115  67.767  37.0480  0.00  0.00     0.000 HD
ATOM     43   O  GCT B   3       0.499  68.198  33.5940  0.00  0.00     0.000 O
ATOM     45  HD  GCT B   3       0.076  68.417  34.3180  0.00  0.00     0.000 HD
BRANCH 39 45
ATOM     45   C  GCT B   3       4.473  69.208  35.5480  0.00  0.00     0.000 C
ATOM     46   O  GCT B   3       5.355  69.146  36.4600  0.00  0.00     0.000 OA
ATOM     47   O  GCT B   3       3.905  70.267  35.2350  0.00  0.00     0.000 OA
ENDBRANCH 39 45
BRANCH 35 48
ATOM     48  O3  ASG B   4       2.704  67.907  37.7500  0.00  0.00     0.000 O
BRANCH 48 51
ATOM     49  C1  ASG B   4       1.856  66.897  41.2060  0.00  0.00     0.000 C
ATOM     50  C2  ASG B   4       2.027  67.781  39.9600  0.00  0.00     0.000 C
ATOM     51  C3  ASG B   4       2.358  66.943  38.7290  0.00  0.00     0.000 C
ATOM     52  C4  ASG B   4       3.508  65.988  39.0070  0.00  0.00     0.000 C
ATOM     53  C5  ASG B   4       3.152  65.163  40.2410  0.00  0.00     0.000 C
ATOM     54  O5  ASG B   4       2.981  66.048  41.3660  0.00  0.00     0.000 O
BRANCH 50 57
ATOM     55   N  ASG B   4       1.076  68.719  39.4090  0.00  0.00     0.000 N
ATOM     57  HD  ASG B   4       0.913  69.159  40.1380  0.00  0.00     0.000 HD
ATOM     57   O  ASG B   4       1.498  70.326  40.9110  0.00  0.00     0.000 OA
ATOM     58   C  ASG B   4       0.959  69.969  39.8680  0.00  0.00     0.000 C
ATOM     59   C  ASG B   4       0.088  70.878  39.0570  0.00  0.00     0.000 C
ENDBRANCH 50 57
BRANCH 52 60
ATOM     60   O  ASG B   4       4.675  66.890  39.1810  0.00  0.00     0.000 O
ATOM     61   O  ASG B   4       6.272  65.217  38.2430  0.00  0.00     0.000 OA
ATOM     62   O  ASG B   4       7.035  67.404  38.7940  0.00  0.00     0.000 OA
ATOM     63   O  ASG B   4       6.268  65.963  40.5410  0.00  0.00     0.000 OA
ATOM     64   S  ASG B   4       6.176  66.331  39.1250  0.00  0.00     0.000 S
ENDBRANCH 52 60
ATOM     65   O  ASG B   4       3.637  63.179  41.5480  0.00  0.00     0.000 O
ATOM     67  HD  ASG B   4       3.625  63.650  42.2740  0.00  0.00     0.000 HD
ATOM     67   O  ASG B   4       3.637  63.179  41.5480  0.00  0.00     0.000 O
ATOM     69  HD  ASG B   4       3.625  63.650  42.2740  0.00  0.00     0.000 HD
ENDBRANCH 48 51
ENDBRANCH 35 48
ENDBRANCH 34 38
ENDBRANCH 15 34
ENDBRANCH 14 17
ENDBRANCH 1 14
TORSDOF 12
ENDMDL
MODEL 25
REMARK VINA RESULT:      -7.7      2.617      3.783
ROOT
ATOM      1  C1  GAD B   1      13.824  39.828  31.4690  0.00  0.00     0.000 C
ATOM      2  C2  GAD B   1      12.815  38.780  31.9480  0.00  0.00     0.000 C
ATOM      3  C3  GAD B   1      11.385  39.272  31.6950  0.00  0.00     0.000 C
ATOM      4  C4  GAD B   1      11.209  40.789  31.7920  0.00  0.00     0.000 C
ATOM      5  C5  GAD B   1      12.225  41.665  31.9290  0.00  0.00     0.000 C
ATOM      6  O5  GAD B   1      13.553  41.119  32.0360  0.00  0.00     0.000 O
ATOM      7   O  GAD B   1      13.082  37.461  31.3430  0.00  0.00     0.000 O
ATOM      9  HD  GAD B   1      13.834  37.852  31.1630  0.00  0.00     0.000 HD
ATOM      9   O  GAD B   1      10.452  38.698  32.6370  0.00  0.00     0.000 O
ATOM     11  HD  GAD B   1      11.203  39.090  32.4570  0.00  0.00     0.000 HD
ENDROOT
BRANCH 5 11
ATOM     11   C  GAD B   1      12.075  43.139  31.9180  0.00  0.00     0.000 C
ATOM     12   O  GAD B   1      11.455  43.646  30.9330  0.00  0.00     0.000 OA
ATOM     13   O  GAD B   1      12.630  43.851  32.8340  0.00  0.00     0.000 OA
ENDBRANCH 5 11
BRANCH 1 14
ATOM     14  O3  ASG B   2      15.096  39.901  31.9040  0.00  0.00     0.000 O
BRANCH 14 17
ATOM     15  C1  ASG B   2      17.586  38.231  34.2050  0.00  0.00     0.000 C
ATOM     16  C2  ASG B   2      16.696  39.365  33.6770  0.00  0.00     0.000 C
ATOM     17  C3  ASG B   2      15.945  38.877  32.4340  0.00  0.00     0.000 C
ATOM     18  C4  ASG B   2      16.934  38.434  31.3720  0.00  0.00     0.000 C
ATOM     19  C5  ASG B   2      17.879  37.398  31.9720  0.00  0.00     0.000 C
ATOM     20  O5  ASG B   2      18.495  37.925  33.1650  0.00  0.00     0.000 O
ATOM     21   C  ASG B   2      18.993  37.026  31.0470  0.00  0.00     0.000 C
ATOM     22   O  ASG B   2      19.931  36.240  31.7400  0.00  0.00     0.000 O
ATOM     24  HD  ASG B   2      20.583  35.751  32.0350  0.00  0.00     0.000 HD
BRANCH 16 26
ATOM     24   N  ASG B   2      15.684  39.907  34.5540  0.00  0.00     0.000 N
ATOM     26  HD  ASG B   2      16.338  39.421  34.8470  0.00  0.00     0.000 HD
ATOM     26   C  ASG B   2      15.443  41.223  34.7030  0.00  0.00     0.000 C
ATOM     27   C  ASG B   2      14.159  41.583  35.3700  0.00  0.00     0.000 C
ATOM     28   O  ASG B   2      16.234  42.071  34.3110  0.00  0.00     0.000 OA
ENDBRANCH 16 26
BRANCH 18 29
ATOM     29   O  ASG B   2      17.630  39.646  30.9200  0.00  0.00     0.000 O
ATOM     30   O  ASG B   2      17.903  38.869  28.6040  0.00  0.00     0.000 OA
ATOM     31   O  ASG B   2      16.266  40.585  29.1200  0.00  0.00     0.000 OA
ATOM     32   O  ASG B   2      18.628  41.086  29.2550  0.00  0.00     0.000 OA
ATOM     33   S  ASG B   2      17.589  40.062  29.3680  0.00  0.00     0.000 S
ENDBRANCH 18 29
BRANCH 15 34
ATOM     34  O4  ASG B   3      18.314  38.575  35.3490  0.00  0.00     0.000 O
BRANCH 34 38
ATOM     35  C1  GCT B   3      21.803  39.705  37.0560  0.00  0.00     0.000 C
ATOM     36  C2  GCT B   3      20.951  40.859  36.5730  0.00  0.00     0.000 C
ATOM     37  C3  GCT B   3      19.511  40.416  36.3550  0.00  0.00     0.000 C
ATOM     38  C4  GCT B   3      19.483  39.293  35.3110  0.00  0.00     0.000 C
ATOM     39  C5  GCT B   3      20.734  38.390  35.3960  0.00  0.00     0.000 C
ATOM     40  O5  GCT B   3      21.193  38.460  36.7350  0.00  0.00     0.000 O
ATOM     41   O  GCT B   3      21.012  41.856  37.5840  0.00  0.00     0.000 O
ATOM     43  HD  GCT B   3      21.625  42.428  37.7990  0.00  0.00     0.000 HD
ATOM     43   O  GCT B   3      18.730  41.565  35.9650  0.00  0.00     0.000 O
ATOM     45  HD  GCT B   3      19.343  42.137  36.1800  0.00  0.00     0.000 HD
BRANCH 39 45
ATOM     45   C  GCT B   3      21.887  38.669  34.4570  0.00  0.00     0.000 C
ATOM     46   O  GCT B   3      21.810  39.639  33.6400  0.00  0.00     0.000 OA
ATOM     47   O  GCT B   3      22.885  37.933  34.5330  0.00  0.00     0.000 OA
ENDBRANCH 39 45
BRANCH 35 48
ATOM     48  O3  ASG B   4      23.073  40.042  36.9820  0.00  0.00     0.000 O
BRANCH 48 51
ATOM     49  C1  ASG B   4      25.664  41.115  39.3960  0.00  0.00     0.000 C
ATOM     50  C2  ASG B   4      24.825  41.053  38.1090  0.00  0.00     0.000 C
ATOM     51  C3  ASG B   4      23.591  40.174  38.2950  0.00  0.00     0.000 C
ATOM     52  C4  ASG B   4      23.961  38.826  38.8910  0.00  0.00     0.000 C
ATOM     53  C5  ASG B   4      24.745  39.074  40.1760  0.00  0.00     0.000 C
ATOM     54  O5  ASG B   4      25.947  39.806  39.8620  0.00  0.00     0.000 O
BRANCH 50 57
ATOM     55   N  ASG B   4      24.375  42.337  37.6230  0.00  0.00     0.000 N
ATOM     57  HD  ASG B   4      25.155  42.686  37.4810  0.00  0.00     0.000 HD
ATOM     57   O  ASG B   4      26.196  42.721  36.3780  0.00  0.00     0.000 OA
ATOM     58   C  ASG B   4      25.055  43.031  36.7050  0.00  0.00     0.000 C
ATOM     59   C  ASG B   4      24.354  44.233  36.1500  0.00  0.00     0.000 C
ENDBRANCH 50 57
BRANCH 52 60
ATOM     60   O  ASG B   4      24.740  38.169  37.8090  0.00  0.00     0.000 O
ATOM     61   O  ASG B   4      23.460  36.035  38.0070  0.00  0.00     0.000 OA
ATOM     62   O  ASG B   4      25.074  36.293  36.2760  0.00  0.00     0.000 OA
ATOM     63   O  ASG B   4      25.801  36.281  38.5540  0.00  0.00     0.000 OA
ATOM     64   S  ASG B   4      24.717  36.578  37.6130  0.00  0.00     0.000 S
ENDBRANCH 52 60
ATOM     65   O  ASG B   4      25.558  38.129  42.2570  0.00  0.00     0.000 O
ATOM     67  HD  ASG B   4      26.339  38.474  42.1120  0.00  0.00     0.000 HD
ATOM     67   O  ASG B   4      25.558  38.129  42.2570  0.00  0.00     0.000 O
ATOM     69  HD  ASG B   4      26.339  38.474  42.1120  0.00  0.00     0.000 HD
ENDBRANCH 48 51
ENDBRANCH 35 48
ENDBRANCH 34 38
ENDBRANCH 15 34
ENDBRANCH 14 17
ENDBRANCH 1 14
TORSDOF 12
ENDMDL
MODEL 26
REMARK VINA RESULT:      -7.7      2.833      5.322
ROOT
ATOM      1  C1  GAD B   1      12.576  39.764  31.3340  0.00  0.00     0.000 C
ATOM      2  C2  GAD B   1      12.437  40.909  30.3270  0.00  0.00     0.000 C
ATOM      3  C3  GAD B   1      11.099  40.801  29.5870  0.00  0.00     0.000 C
ATOM      4  C4  GAD B   1      10.601  39.368  29.3810  0.00  0.00     0.000 C
ATOM      5  C5  GAD B   1      11.178  38.278  29.9260  0.00  0.00     0.000 C
ATOM      6  O5  GAD B   1      12.367  38.487  30.7120  0.00  0.00     0.000 O
ATOM      7   O  GAD B   1      12.628  42.221  30.9760  0.00  0.00     0.000 O
ATOM      9  HD  GAD B   1      12.951  41.710  31.5960  0.00  0.00     0.000 HD
ATOM      9   O  GAD B   1      11.171  41.393  28.2710  0.00  0.00     0.000 O
ATOM     11  HD  GAD B   1      11.494  40.882  28.8910  0.00  0.00     0.000 HD
ENDROOT
BRANCH 5 11
ATOM     11   C  GAD B   1      10.645  36.900  29.8210  0.00  0.00     0.000 C
ATOM     12   O  GAD B   1       9.381  36.769  29.8470  0.00  0.00     0.000 OA
ATOM     13   O  GAD B   1      11.449  35.897  29.7890  0.00  0.00     0.000 OA
ENDBRANCH 5 11
BRANCH 1 14
ATOM     14  O3  ASG B   2      13.752  39.334  31.8270  0.00  0.00     0.000 O
BRANCH 14 17
ATOM     15  C1  ASG B   2      17.492  39.827  32.0570  0.00  0.00     0.000 C
ATOM     16  C2  ASG B   2      16.180  39.040  31.9290  0.00  0.00     0.000 C
ATOM     17  C3  ASG B   2      15.003  40.021  31.9470  0.00  0.00     0.000 C
ATOM     18  C4  ASG B   2      15.021  40.828  33.2320  0.00  0.00     0.000 C
ATOM     19  C5  ASG B   2      16.385  41.493  33.3840  0.00  0.00     0.000 C
ATOM     20  O5  ASG B   2      17.429  40.504  33.2980  0.00  0.00     0.000 O
ATOM     21   C  ASG B   2      16.552  42.176  34.7030  0.00  0.00     0.000 C
ATOM     22   O  ASG B   2      17.892  42.576  34.8540  0.00  0.00     0.000 O
ATOM     24  HD  ASG B   2      18.672  42.878  35.0800  0.00  0.00     0.000 HD
BRANCH 16 26
ATOM     24   N  ASG B   2      16.038  38.197  30.7640  0.00  0.00     0.000 N
ATOM     26  HD  ASG B   2      16.810  38.472  31.0460  0.00  0.00     0.000 HD
ATOM     26   C  ASG B   2      15.490  36.968  30.7870  0.00  0.00     0.000 C
ATOM     27   C  ASG B   2      15.116  36.393  29.4640  0.00  0.00     0.000 C
ATOM     28   O  ASG B   2      15.311  36.362  31.8360  0.00  0.00     0.000 OA
ENDBRANCH 16 26
BRANCH 18 29
ATOM     29   O  ASG B   2      14.722  39.886  34.3190  0.00  0.00     0.000 O
ATOM     30   O  ASG B   2      13.844  41.607  35.8400  0.00  0.00     0.000 OA
ATOM     31   O  ASG B   2      12.320  40.071  34.7410  0.00  0.00     0.000 OA
ATOM     32   O  ASG B   2      13.808  39.269  36.4690  0.00  0.00     0.000 OA
ATOM     33   S  ASG B   2      13.591  40.247  35.4030  0.00  0.00     0.000 S
ENDBRANCH 18 29
BRANCH 15 34
ATOM     34  O4  ASG B   3      18.634  39.020  32.0450  0.00  0.00     0.000 O
BRANCH 34 38
ATOM     35  C1  GCT B   3      20.852  36.977  34.7420  0.00  0.00     0.000 C
ATOM     36  C2  GCT B   3      20.373  36.138  33.5760  0.00  0.00     0.000 C
ATOM     37  C3  GCT B   3      19.941  37.022  32.4150  0.00  0.00     0.000 C
ATOM     38  C4  GCT B   3      18.805  37.943  32.8780  0.00  0.00     0.000 C
ATOM     39  C5  GCT B   3      18.963  38.359  34.3580  0.00  0.00     0.000 C
ATOM     40  O5  GCT B   3      20.349  38.305  34.6480  0.00  0.00     0.000 O
ATOM     41   O  GCT B   3      21.469  35.320  33.1910  0.00  0.00     0.000 O
ATOM     43  HD  GCT B   3      21.808  34.602  33.5380  0.00  0.00     0.000 HD
ATOM     43   O  GCT B   3      19.561  36.175  31.3090  0.00  0.00     0.000 O
ATOM     45  HD  GCT B   3      19.900  35.458  31.6560  0.00  0.00     0.000 HD
BRANCH 39 45
ATOM     45   C  GCT B   3      18.201  37.581  35.4090  0.00  0.00     0.000 C
ATOM     46   O  GCT B   3      18.211  37.981  36.6150  0.00  0.00     0.000 OA
ATOM     47   O  GCT B   3      17.576  36.573  35.0410  0.00  0.00     0.000 OA
ENDBRANCH 39 45
BRANCH 35 48
ATOM     48  O3  ASG B   4      20.966  36.214  35.8080  0.00  0.00     0.000 O
BRANCH 48 51
ATOM     49  C1  ASG B   4      23.901  35.754  38.0130  0.00  0.00     0.000 C
ATOM     50  C2  ASG B   4      22.838  35.459  36.9420  0.00  0.00     0.000 C
ATOM     51  C3  ASG B   4      22.021  36.706  36.6160  0.00  0.00     0.000 C
ATOM     52  C4  ASG B   4      21.499  37.368  37.8810  0.00  0.00     0.000 C
ATOM     53  C5  ASG B   4      22.685  37.628  38.8050  0.00  0.00     0.000 C
ATOM     54  O5  ASG B   4      23.304  36.371  39.1420  0.00  0.00     0.000 O
BRANCH 50 57
ATOM     55   N  ASG B   4      23.566  34.956  35.8000  0.00  0.00     0.000 N
ATOM     57  HD  ASG B   4      23.821  34.205  36.1480  0.00  0.00     0.000 HD
ATOM     57   O  ASG B   4      23.282  32.798  36.3250  0.00  0.00     0.000 OA
ATOM     58   C  ASG B   4      23.644  33.652  35.5210  0.00  0.00     0.000 C
ATOM     59   C  ASG B   4      24.247  33.308  34.1940  0.00  0.00     0.000 C
ENDBRANCH 50 57
BRANCH 52 60
ATOM     60   O  ASG B   4      20.511  36.389  38.4030  0.00  0.00     0.000 O
ATOM     61   O  ASG B   4      19.274  38.131  39.6940  0.00  0.00     0.000 OA
ATOM     62   O  ASG B   4      18.432  35.906  39.5970  0.00  0.00     0.000 OA
ATOM     63   O  ASG B   4      20.518  36.316  40.6920  0.00  0.00     0.000 OA
ATOM     64   S  ASG B   4      19.572  36.738  39.6540  0.00  0.00     0.000 S
ENDBRANCH 52 60
ATOM     65   O  ASG B   4      23.508  38.845  40.7340  0.00  0.00     0.000 O
ATOM     67  HD  ASG B   4      23.853  38.116  41.0510  0.00  0.00     0.000 HD
ATOM     67   O  ASG B   4      23.508  38.845  40.7340  0.00  0.00     0.000 O
ATOM     69  HD  ASG B   4      23.853  38.116  41.0510  0.00  0.00     0.000 HD
ENDBRANCH 48 51
ENDBRANCH 35 48
ENDBRANCH 34 38
ENDBRANCH 15 34
ENDBRANCH 14 17
ENDBRANCH 1 14
TORSDOF 12
ENDMDL
MODEL 27
REMARK VINA RESULT:      -7.7     29.380     36.187
ROOT
ATOM      1  C1  GAD B   1      16.048  26.705  71.3750  0.00  0.00     0.000 C
ATOM      2  C2  GAD B   1      16.206  26.804  72.8960  0.00  0.00     0.000 C
ATOM      3  C3  GAD B   1      16.743  28.188  73.2800  0.00  0.00     0.000 C
ATOM      4  C4  GAD B   1      17.677  28.817  72.2430  0.00  0.00     0.000 C
ATOM      5  C5  GAD B   1      17.907  28.304  71.0180  0.00  0.00     0.000 C
ATOM      6  O5  GAD B   1      17.262  27.058  70.6950  0.00  0.00     0.000 O
ATOM      7   O  GAD B   1      14.950  26.464  73.5900  0.00  0.00     0.000 O
ATOM      9  HD  GAD B   1      14.765  26.149  72.8050  0.00  0.00     0.000 HD
ATOM      9   O  GAD B   1      17.489  28.143  74.5170  0.00  0.00     0.000 O
ATOM     11  HD  GAD B   1      17.304  27.829  73.7320  0.00  0.00     0.000 HD
ENDROOT
BRANCH 5 11
ATOM     11   C  GAD B   1      18.724  28.959  69.9700  0.00  0.00     0.000 C
ATOM     12   O  GAD B   1      18.285  28.903  68.7790  0.00  0.00     0.000 OA
ATOM     13   O  GAD B   1      19.862  29.479  70.2680  0.00  0.00     0.000 OA
ENDBRANCH 5 11
BRANCH 1 14
ATOM     14  O3  ASG B   2      16.004  25.542  70.6980  0.00  0.00     0.000 O
BRANCH 14 17
ATOM     15  C1  ASG B   2      17.657  23.949  67.6970  0.00  0.00     0.000 C
ATOM     16  C2  ASG B   2      16.537  24.640  68.4870  0.00  0.00     0.000 C
ATOM     17  C3  ASG B   2      17.016  24.894  69.9190  0.00  0.00     0.000 C
ATOM     18  C4  ASG B   2      17.404  23.583  70.5760  0.00  0.00     0.000 C
ATOM     19  C5  ASG B   2      18.427  22.869  69.6980  0.00  0.00     0.000 C
ATOM     20  O5  ASG B   2      17.912  22.725  68.3590  0.00  0.00     0.000 O
ATOM     21   C  ASG B   2      18.744  21.491  70.1820  0.00  0.00     0.000 C
ATOM     22   O  ASG B   2      19.520  20.824  69.2160  0.00  0.00     0.000 O
ATOM     24  HD  ASG B   2      19.996  20.299  68.7200  0.00  0.00     0.000 HD
BRANCH 16 26
ATOM     24   N  ASG B   2      15.155  24.998  68.2660  0.00  0.00     0.000 N
ATOM     26  HD  ASG B   2      15.435  24.684  69.0220  0.00  0.00     0.000 HD
ATOM     26   C  ASG B   2      14.741  26.236  67.9380  0.00  0.00     0.000 C
ATOM     27   C  ASG B   2      13.349  26.346  67.4180  0.00  0.00     0.000 C
ATOM     28   O  ASG B   2      15.471  27.213  68.0600  0.00  0.00     0.000 OA
ENDBRANCH 16 26
BRANCH 18 29
ATOM     29   O  ASG B   2      16.162  22.816  70.7430  0.00  0.00     0.000 O
ATOM     30   O  ASG B   2      16.814  21.844  72.9040  0.00  0.00     0.000 OA
ATOM     31   O  ASG B   2      15.146  23.606  72.8220  0.00  0.00     0.000 OA
ATOM     32   O  ASG B   2      14.625  21.407  71.9630  0.00  0.00     0.000 OA
ATOM     33   S  ASG B   2      15.666  22.403  72.2150  0.00  0.00     0.000 S
ENDBRANCH 18 29
BRANCH 15 34
ATOM     34  O4  ASG B   3      17.321  23.676  66.3670  0.00  0.00     0.000 O
BRANCH 34 38
ATOM     35  C1  GCT B   3      18.050  27.310  64.7470  0.00  0.00     0.000 C
ATOM     36  C2  GCT B   3      17.169  26.422  63.8950  0.00  0.00     0.000 C
ATOM     37  C3  GCT B   3      16.585  25.286  64.7230  0.00  0.00     0.000 C
ATOM     38  C4  GCT B   3      17.729  24.451  65.3110  0.00  0.00     0.000 C
ATOM     39  C5  GCT B   3      18.962  25.318  65.6550  0.00  0.00     0.000 C
ATOM     40  O5  GCT B   3      18.477  26.623  65.9180  0.00  0.00     0.000 O
ATOM     41   O  GCT B   3      16.130  27.249  63.3910  0.00  0.00     0.000 O
ATOM     43  HD  GCT B   3      16.112  27.837  62.7560  0.00  0.00     0.000 HD
ATOM     43   O  GCT B   3      15.701  24.513  63.8830  0.00  0.00     0.000 O
ATOM     45  HD  GCT B   3      15.683  25.101  63.2470  0.00  0.00     0.000 HD
BRANCH 39 45
ATOM     45   C  GCT B   3      20.090  25.395  64.6500  0.00  0.00     0.000 C
ATOM     46   O  GCT B   3      21.116  26.099  64.9120  0.00  0.00     0.000 OA
ATOM     47   O  GCT B   3      19.972  24.746  63.5980  0.00  0.00     0.000 OA
ENDBRANCH 39 45
BRANCH 35 48
ATOM     48  O3  ASG B   4      18.742  28.113  63.9660  0.00  0.00     0.000 O
BRANCH 48 51
ATOM     49  C1  ASG B   4      17.785  31.388  62.5340  0.00  0.00     0.000 C
ATOM     50  C2  ASG B   4      18.119  29.889  62.6170  0.00  0.00     0.000 C
ATOM     51  C3  ASG B   4      18.212  29.424  64.0680  0.00  0.00     0.000 C
ATOM     52  C4  ASG B   4      19.118  30.334  64.8810  0.00  0.00     0.000 C
ATOM     53  C5  ASG B   4      18.619  31.767  64.7190  0.00  0.00     0.000 C
ATOM     54  O5  ASG B   4      18.689  32.138  63.3290  0.00  0.00     0.000 O
BRANCH 50 57
ATOM     55   N  ASG B   4      19.254  29.308  61.9380  0.00  0.00     0.000 N
ATOM     57  HD  ASG B   4      18.815  28.867  61.3360  0.00  0.00     0.000 HD
ATOM     57   O  ASG B   4      18.218  29.112  59.9630  0.00  0.00     0.000 OA
ATOM     58   C  ASG B   4      19.250  29.059  60.6250  0.00  0.00     0.000 C
ATOM     59   C  ASG B   4      20.568  28.661  60.0370  0.00  0.00     0.000 C
ENDBRANCH 50 57
BRANCH 52 60
ATOM     60   O  ASG B   4      20.467  30.082  64.3100  0.00  0.00     0.000 O
ATOM     61   O  ASG B   4      21.297  29.015  66.4080  0.00  0.00     0.000 OA
ATOM     62   O  ASG B   4      22.677  29.046  64.4680  0.00  0.00     0.000 OA
ATOM     63   O  ASG B   4      22.110  31.113  65.5270  0.00  0.00     0.000 OA
ATOM     64   S  ASG B   4      21.717  29.728  65.2490  0.00  0.00     0.000 S
ENDBRANCH 52 60
ATOM     65   O  ASG B   4      18.671  34.030  65.5900  0.00  0.00     0.000 O
ATOM     67  HD  ASG B   4      18.789  34.339  64.7900  0.00  0.00     0.000 HD
ATOM     67   O  ASG B   4      18.671  34.030  65.5900  0.00  0.00     0.000 O
ATOM     69  HD  ASG B   4      18.789  34.339  64.7900  0.00  0.00     0.000 HD
ENDBRANCH 48 51
ENDBRANCH 35 48
ENDBRANCH 34 38
ENDBRANCH 15 34
ENDBRANCH 14 17
ENDBRANCH 1 14
TORSDOF 12
ENDMDL
MODEL 28
REMARK VINA RESULT:      -7.7     22.828     28.124
ROOT
ATOM      1  C1  GAD B   1      21.576  26.713  53.2420  0.00  0.00     0.000 C
ATOM      2  C2  GAD B   1      23.077  27.000  53.3390  0.00  0.00     0.000 C
ATOM      3  C3  GAD B   1      23.839  26.181  52.2900  0.00  0.00     0.000 C
ATOM      4  C4  GAD B   1      23.209  24.823  51.9660  0.00  0.00     0.000 C
ATOM      5  C5  GAD B   1      22.008  24.415  52.4220  0.00  0.00     0.000 C
ATOM      6  O5  GAD B   1      21.303  25.306  53.3070  0.00  0.00     0.000 O
ATOM      7   O  GAD B   1      23.356  28.447  53.2460  0.00  0.00     0.000 O
ATOM      9  HD  GAD B   1      22.504  28.478  53.4020  0.00  0.00     0.000 HD
ATOM      9   O  GAD B   1      25.193  25.904  52.7130  0.00  0.00     0.000 O
ATOM     11  HD  GAD B   1      24.341  25.935  52.8690  0.00  0.00     0.000 HD
ENDROOT
BRANCH 5 11
ATOM     11   C  GAD B   1      21.343  23.150  52.0300  0.00  0.00     0.000 C
ATOM     12   O  GAD B   1      20.657  23.168  50.9610  0.00  0.00     0.000 OA
ATOM     13   O  GAD B   1      21.406  22.122  52.7990  0.00  0.00     0.000 OA
ENDBRANCH 5 11
BRANCH 1 14
ATOM     14  O3  ASG B   2      20.703  26.932  54.2440  0.00  0.00     0.000 O
BRANCH 14 17
ATOM     15  C1  ASG B   2      20.080  26.902  57.9710  0.00  0.00     0.000 C
ATOM     16  C2  ASG B   2      19.772  26.647  56.4880  0.00  0.00     0.000 C
ATOM     17  C3  ASG B   2      20.942  27.150  55.6390  0.00  0.00     0.000 C
ATOM     18  C4  ASG B   2      21.169  28.628  55.8920  0.00  0.00     0.000 C
ATOM     19  C5  ASG B   2      21.347  28.856  57.3900  0.00  0.00     0.000 C
ATOM     20  O5  ASG B   2      20.228  28.302  58.1090  0.00  0.00     0.000 O
ATOM     21   C  ASG B   2      21.411  30.305  57.7520  0.00  0.00     0.000 C
ATOM     22   O  ASG B   2      21.360  30.439  59.1510  0.00  0.00     0.000 O
ATOM     24  HD  ASG B   2      21.340  30.669  59.9850  0.00  0.00     0.000 HD
BRANCH 16 26
ATOM     24   N  ASG B   2      19.478  25.278  56.1310  0.00  0.00     0.000 N
ATOM     26  HD  ASG B   2      19.392  25.574  56.9410  0.00  0.00     0.000 HD
ATOM     26   C  ASG B   2      18.542  24.919  55.2330  0.00  0.00     0.000 C
ATOM     27   C  ASG B   2      18.611  23.514  54.7410  0.00  0.00     0.000 C
ATOM     28   O  ASG B   2      17.687  25.705  54.8440  0.00  0.00     0.000 OA
ENDBRANCH 16 26
BRANCH 18 29
ATOM     29   O  ASG B   2      19.999  29.329  55.3440  0.00  0.00     0.000 O
ATOM     30   O  ASG B   2      21.223  31.400  54.8390  0.00  0.00     0.000 OA
ATOM     31   O  ASG B   2      20.569  29.910  53.0380  0.00  0.00     0.000 OA
ATOM     32   O  ASG B   2      18.889  31.168  54.2380  0.00  0.00     0.000 OA
ATOM     33   S  ASG B   2      20.203  30.526  54.2920  0.00  0.00     0.000 S
ENDBRANCH 18 29
BRANCH 15 34
ATOM     34  O4  ASG B   3      19.070  26.471  58.8370  0.00  0.00     0.000 O
BRANCH 34 38
ATOM     35  C1  GCT B   3      19.981  28.736  62.0620  0.00  0.00     0.000 C
ATOM     36  C2  GCT B   3      20.551  27.335  62.1130  0.00  0.00     0.000 C
ATOM     37  C3  GCT B   3      20.554  26.702  60.7290  0.00  0.00     0.000 C
ATOM     38  C4  GCT B   3      19.117  26.646  60.1970  0.00  0.00     0.000 C
ATOM     39  C5  GCT B   3      18.277  27.855  60.6670  0.00  0.00     0.000 C
ATOM     40  O5  GCT B   3      19.188  28.916  60.8940  0.00  0.00     0.000 O
ATOM     41   O  GCT B   3      21.879  27.458  62.6020  0.00  0.00     0.000 O
ATOM     43  HD  GCT B   3      22.195  27.590  63.3970  0.00  0.00     0.000 HD
ATOM     43   O  GCT B   3      21.169  25.399  60.8210  0.00  0.00     0.000 O
ATOM     45  HD  GCT B   3      21.485  25.532  61.6170  0.00  0.00     0.000 HD
BRANCH 39 45
ATOM     45   C  GCT B   3      17.392  27.687  61.8830  0.00  0.00     0.000 C
ATOM     46   O  GCT B   3      17.348  26.563  62.4760  0.00  0.00     0.000 OA
ATOM     47   O  GCT B   3      16.743  28.674  62.2660  0.00  0.00     0.000 OA
ENDBRANCH 39 45
BRANCH 35 48
ATOM     48  O3  ASG B   4      19.746  29.155  63.2870  0.00  0.00     0.000 O
BRANCH 48 51
ATOM     49  C1  ASG B   4      21.381  32.472  63.3920  0.00  0.00     0.000 C
ATOM     50  C2  ASG B   4      21.186  30.964  63.1650  0.00  0.00     0.000 C
ATOM     51  C3  ASG B   4      19.717  30.572  63.2930  0.00  0.00     0.000 C
ATOM     52  C4  ASG B   4      19.112  31.116  64.5770  0.00  0.00     0.000 C
ATOM     53  C5  ASG B   4      19.358  32.622  64.6160  0.00  0.00     0.000 C
ATOM     54  O5  ASG B   4      20.777  32.868  64.6130  0.00  0.00     0.000 O
BRANCH 50 57
ATOM     55   N  ASG B   4      22.229  30.678  64.1230  0.00  0.00     0.000 N
ATOM     57  HD  ASG B   4      22.661  30.094  63.6510  0.00  0.00     0.000 HD
ATOM     57   O  ASG B   4      23.742  30.073  62.5860  0.00  0.00     0.000 OA
ATOM     58   C  ASG B   4      23.470  30.352  63.7500  0.00  0.00     0.000 C
ATOM     59   C  ASG B   4      24.485  30.298  64.8500  0.00  0.00     0.000 C
ENDBRANCH 50 57
BRANCH 52 60
ATOM     60   O  ASG B   4      19.807  30.348  65.6420  0.00  0.00     0.000 O
ATOM     61   O  ASG B   4      17.867  28.816  65.9840  0.00  0.00     0.000 OA
ATOM     62   O  ASG B   4      19.906  28.425  67.1490  0.00  0.00     0.000 OA
ATOM     63   O  ASG B   4      18.656  30.408  67.6200  0.00  0.00     0.000 OA
ATOM     64   S  ASG B   4      19.002  29.381  66.6340  0.00  0.00     0.000 S
ENDBRANCH 52 60
ATOM     65   O  ASG B   4      18.732  34.741  65.6160  0.00  0.00     0.000 O
ATOM     67  HD  ASG B   4      19.568  34.942  65.7200  0.00  0.00     0.000 HD
ATOM     67   O  ASG B   4      18.732  34.741  65.6160  0.00  0.00     0.000 O
ATOM     69  HD  ASG B   4      19.568  34.942  65.7200  0.00  0.00     0.000 HD
ENDBRANCH 48 51
ENDBRANCH 35 48
ENDBRANCH 34 38
ENDBRANCH 15 34
ENDBRANCH 14 17
ENDBRANCH 1 14
TORSDOF 12
ENDMDL
MODEL 29
REMARK VINA RESULT:      -7.6     18.318     22.974
ROOT
ATOM      1  C1  GAD B   1      18.807  52.660  57.4180  0.00  0.00     0.000 C
ATOM      2  C2  GAD B   1      17.544  53.253  58.0480  0.00  0.00     0.000 C
ATOM      3  C3  GAD B   1      17.157  52.457  59.3010  0.00  0.00     0.000 C
ATOM      4  C4  GAD B   1      17.510  50.968  59.2410  0.00  0.00     0.000 C
ATOM      5  C5  GAD B   1      18.239  50.400  58.2600  0.00  0.00     0.000 C
ATOM      6  O5  GAD B   1      18.667  51.251  57.1800  0.00  0.00     0.000 O
ATOM      7   O  GAD B   1      17.701  54.696  58.3140  0.00  0.00     0.000 O
ATOM      9  HD  GAD B   1      18.371  54.578  57.7780  0.00  0.00     0.000 HD
ATOM      9   O  GAD B   1      15.736  52.522  59.5530  0.00  0.00     0.000 O
ATOM     11  HD  GAD B   1      16.406  52.404  59.0170  0.00  0.00     0.000 HD
ENDROOT
BRANCH 5 11
ATOM     11   C  GAD B   1      18.675  48.984  58.2460  0.00  0.00     0.000 C
ATOM     12   O  GAD B   1      19.353  48.601  57.2430  0.00  0.00     0.000 OA
ATOM     13   O  GAD B   1      18.300  48.183  59.1800  0.00  0.00     0.000 OA
ENDBRANCH 5 11
BRANCH 1 14
ATOM     14  O3  ASG B   2      19.163  52.844  56.1320  0.00  0.00     0.000 O
BRANCH 14 17
ATOM     15  C1  ASG B   2      19.365  50.853  52.9270  0.00  0.00     0.000 C
ATOM     16  C2  ASG B   2      19.896  51.567  54.1780  0.00  0.00     0.000 C
ATOM     17  C3  ASG B   2      18.718  52.168  54.9510  0.00  0.00     0.000 C
ATOM     18  C4  ASG B   2      17.957  53.136  54.0650  0.00  0.00     0.000 C
ATOM     19  C5  ASG B   2      17.555  52.423  52.7780  0.00  0.00     0.000 C
ATOM     20  O5  ASG B   2      18.716  51.844  52.1510  0.00  0.00     0.000 O
ATOM     21   C  ASG B   2      16.944  53.345  51.7720  0.00  0.00     0.000 C
ATOM     22   O  ASG B   2      16.799  52.668  50.5480  0.00  0.00     0.000 O
ATOM     24  HD  ASG B   2      16.649  52.381  49.7450  0.00  0.00     0.000 HD
BRANCH 16 26
ATOM     24   N  ASG B   2      20.741  50.742  55.0100  0.00  0.00     0.000 N
ATOM     26  HD  ASG B   2      20.661  50.610  54.1580  0.00  0.00     0.000 HD
ATOM     26   C  ASG B   2      21.782  51.209  55.7240  0.00  0.00     0.000 C
ATOM     27   C  ASG B   2      22.317  50.299  56.7750  0.00  0.00     0.000 C
ATOM     28   O  ASG B   2      22.258  52.319  55.5180  0.00  0.00     0.000 OA
ENDBRANCH 16 26
BRANCH 18 29
ATOM     29   O  ASG B   2      18.853  54.277  53.8290  0.00  0.00     0.000 O
ATOM     30   O  ASG B   2      17.047  55.945  53.7890  0.00  0.00     0.000 OA
ATOM     31   O  ASG B   2      18.524  55.804  55.7110  0.00  0.00     0.000 OA
ATOM     32   O  ASG B   2      19.363  56.627  53.5980  0.00  0.00     0.000 OA
ATOM     33   S  ASG B   2      18.402  55.754  54.2730  0.00  0.00     0.000 S
ENDBRANCH 18 29
BRANCH 15 34
ATOM     34  O4  ASG B   3      20.367  50.262  52.1500  0.00  0.00     0.000 O
BRANCH 34 38
ATOM     35  C1  GCT B   3      22.651  50.363  48.8120  0.00  0.00     0.000 C
ATOM     36  C2  GCT B   3      23.300  50.999  50.0230  0.00  0.00     0.000 C
ATOM     37  C3  GCT B   3      22.611  50.552  51.3040  0.00  0.00     0.000 C
ATOM     38  C4  GCT B   3      21.133  50.958  51.2500  0.00  0.00     0.000 C
ATOM     39  C5  GCT B   3      20.566  50.890  49.8130  0.00  0.00     0.000 C
ATOM     40  O5  GCT B   3      21.333  49.921  49.1210  0.00  0.00     0.000 O
ATOM     41   O  GCT B   3      24.656  50.578  50.0200  0.00  0.00     0.000 O
ATOM     43  HD  GCT B   3      25.341  50.827  49.5510  0.00  0.00     0.000 HD
ATOM     43   O  GCT B   3      23.310  51.130  52.4270  0.00  0.00     0.000 O
ATOM     45  HD  GCT B   3      23.994  51.378  51.9580  0.00  0.00     0.000 HD
BRANCH 39 45
ATOM     45   C  GCT B   3      20.516  52.165  48.9990  0.00  0.00     0.000 C
ATOM     46   O  GCT B   3      20.016  52.143  47.8300  0.00  0.00     0.000 OA
ATOM     47   O  GCT B   3      20.960  53.201  49.5190  0.00  0.00     0.000 OA
ENDBRANCH 39 45
BRANCH 35 48
ATOM     48  O3  ASG B   4      23.083  50.960  47.7230  0.00  0.00     0.000 O
BRANCH 48 51
ATOM     49  C1  ASG B   4      24.413  49.064  44.8370  0.00  0.00     0.000 C
ATOM     50  C2  ASG B   4      24.374  49.819  46.1760  0.00  0.00     0.000 C
ATOM     51  C3  ASG B   4      22.938  50.077  46.6240  0.00  0.00     0.000 C
ATOM     52  C4  ASG B   4      22.116  50.699  45.5070  0.00  0.00     0.000 C
ATOM     53  C5  ASG B   4      22.231  49.802  44.2780  0.00  0.00     0.000 C
ATOM     54  O5  ASG B   4      23.612  49.730  43.8730  0.00  0.00     0.000 O
BRANCH 50 57
ATOM     55   N  ASG B   4      25.142  48.917  47.0030  0.00  0.00     0.000 N
ATOM     57  HD  ASG B   4      25.920  49.080  46.6590  0.00  0.00     0.000 HD
ATOM     57   O  ASG B   4      27.050  50.078  46.8350  0.00  0.00     0.000 OA
ATOM     58   C  ASG B   4      26.405  49.174  47.3570  0.00  0.00     0.000 C
ATOM     59   C  ASG B   4      26.989  48.256  48.3860  0.00  0.00     0.000 C
ENDBRANCH 50 57
BRANCH 52 60
ATOM     60   O  ASG B   4      22.715  52.049  45.3460  0.00  0.00     0.000 O
ATOM     61   O  ASG B   4      20.530  53.085  44.7270  0.00  0.00     0.000 OA
ATOM     62   O  ASG B   4      22.455  54.457  45.0090  0.00  0.00     0.000 OA
ATOM     63   O  ASG B   4      22.411  52.863  43.2270  0.00  0.00     0.000 OA
ATOM     64   S  ASG B   4      21.939  53.217  44.5690  0.00  0.00     0.000 S
ENDBRANCH 52 60
ATOM     65   O  ASG B   4      21.301  49.217  42.1160  0.00  0.00     0.000 O
ATOM     67  HD  ASG B   4      22.095  49.223  41.7690  0.00  0.00     0.000 HD
ATOM     67   O  ASG B   4      21.301  49.217  42.1160  0.00  0.00     0.000 O
ATOM     69  HD  ASG B   4      22.095  49.223  41.7690  0.00  0.00     0.000 HD
ENDBRANCH 48 51
ENDBRANCH 35 48
ENDBRANCH 34 38
ENDBRANCH 15 34
ENDBRANCH 14 17
ENDBRANCH 1 14
TORSDOF 12
ENDMDL
MODEL 30
REMARK VINA RESULT:      -7.6      2.473     10.106
ROOT
ATOM      1  C1  GAD B   1      23.344  37.251  39.6680  0.00  0.00     0.000 C
ATOM      2  C2  GAD B   1      23.981  35.889  39.9620  0.00  0.00     0.000 C
ATOM      3  C3  GAD B   1      25.240  36.070  40.8180  0.00  0.00     0.000 C
ATOM      4  C4  GAD B   1      26.001  37.374  40.5610  0.00  0.00     0.000 C
ATOM      5  C5  GAD B   1      25.552  38.372  39.7750  0.00  0.00     0.000 C
ATOM      6  O5  GAD B   1      24.295  38.166  39.1030  0.00  0.00     0.000 O
ATOM      7   O  GAD B   1      23.007  34.959  40.5650  0.00  0.00     0.000 O
ATOM      9  HD  GAD B   1      22.460  35.560  40.2660  0.00  0.00     0.000 HD
ATOM      9   O  GAD B   1      26.189  35.002  40.6000  0.00  0.00     0.000 O
ATOM     11  HD  GAD B   1      25.642  35.603  40.3010  0.00  0.00     0.000 HD
ENDROOT
BRANCH 5 11
ATOM     11   C  GAD B   1      26.228  39.679  39.6040  0.00  0.00     0.000 C
ATOM     12   O  GAD B   1      25.634  40.700  40.0710  0.00  0.00     0.000 OA
ATOM     13   O  GAD B   1      27.325  39.757  38.9360  0.00  0.00     0.000 OA
ENDBRANCH 5 11
BRANCH 1 14
ATOM     14  O3  ASG B   2      22.506  37.483  38.6400  0.00  0.00     0.000 O
BRANCH 14 17
ATOM     15  C1  ASG B   2      21.880  37.080  34.9360  0.00  0.00     0.000 C
ATOM     16  C2  ASG B   2      21.951  37.817  36.2810  0.00  0.00     0.000 C
ATOM     17  C3  ASG B   2      22.420  36.840  37.3630  0.00  0.00     0.000 C
ATOM     18  C4  ASG B   2      21.466  35.664  37.4480  0.00  0.00     0.000 C
ATOM     19  C5  ASG B   2      21.325  35.035  36.0650  0.00  0.00     0.000 C
ATOM     20  O5  ASG B   2      20.937  36.038  35.1050  0.00  0.00     0.000 O
ATOM     21   C  ASG B   2      20.276  33.971  36.0170  0.00  0.00     0.000 C
ATOM     22   O  ASG B   2      20.057  33.593  34.6800  0.00  0.00     0.000 O
ATOM     24  HD  ASG B   2      19.823  33.263  33.9140  0.00  0.00     0.000 HD
BRANCH 16 26
ATOM     24   N  ASG B   2      22.772  39.006  36.2880  0.00  0.00     0.000 N
ATOM     26  HD  ASG B   2      22.421  38.690  35.5620  0.00  0.00     0.000 HD
ATOM     26   C  ASG B   2      22.477  40.120  36.9840  0.00  0.00     0.000 C
ATOM     27   C  ASG B   2      23.586  41.101  37.1490  0.00  0.00     0.000 C
ATOM     28   O  ASG B   2      21.361  40.310  37.4520  0.00  0.00     0.000 OA
ENDBRANCH 16 26
BRANCH 18 29
ATOM     29   O  ASG B   2      20.196  36.193  37.9650  0.00  0.00     0.000 O
ATOM     30   O  ASG B   2      19.617  34.151  39.2060  0.00  0.00     0.000 OA
ATOM     31   O  ASG B   2      20.370  36.124  40.4030  0.00  0.00     0.000 OA
ATOM     32   O  ASG B   2      18.204  36.114  39.3300  0.00  0.00     0.000 OA
ATOM     33   S  ASG B   2      19.573  35.597  39.3210  0.00  0.00     0.000 S
ENDBRANCH 18 29
BRANCH 15 34
ATOM     34  O4  ASG B   3      21.464  37.889  33.8730  0.00  0.00     0.000 O
BRANCH 34 38
ATOM     35  C1  GCT B   3      18.157  39.778  32.5110  0.00  0.00     0.000 C
ATOM     36  C2  GCT B   3      19.313  40.705  32.8170  0.00  0.00     0.000 C
ATOM     37  C3  GCT B   3      20.622  39.931  32.8950  0.00  0.00     0.000 C
ATOM     38  C4  GCT B   3      20.515  38.872  33.9990  0.00  0.00     0.000 C
ATOM     39  C5  GCT B   3      19.084  38.299  34.1170  0.00  0.00     0.000 C
ATOM     40  O5  GCT B   3      18.488  38.433  32.8390  0.00  0.00     0.000 O
ATOM     41   O  GCT B   3      19.363  41.651  31.7580  0.00  0.00     0.000 O
ATOM     43  HD  GCT B   3      18.882  42.348  31.5800  0.00  0.00     0.000 HD
ATOM     43   O  GCT B   3      21.697  40.867  33.1190  0.00  0.00     0.000 O
ATOM     45  HD  GCT B   3      21.216  41.565  32.9400  0.00  0.00     0.000 HD
BRANCH 39 45
ATOM     45   C  GCT B   3      18.160  38.883  35.1630  0.00  0.00     0.000 C
ATOM     46   O  GCT B   3      17.009  38.372  35.3390  0.00  0.00     0.000 OA
ATOM     47   O  GCT B   3      18.576  39.845  35.8300  0.00  0.00     0.000 OA
ENDBRANCH 39 45
BRANCH 35 48
ATOM     48  O3  ASG B   4      17.024  40.417  32.7090  0.00  0.00     0.000 O
BRANCH 48 51
ATOM     49  C1  ASG B   4      14.317  40.439  30.1870  0.00  0.00     0.000 C
ATOM     50  C2  ASG B   4      15.588  40.854  30.9460  0.00  0.00     0.000 C
ATOM     51  C3  ASG B   4      16.002  39.787  31.9560  0.00  0.00     0.000 C
ATOM     52  C4  ASG B   4      14.830  39.375  32.8320  0.00  0.00     0.000 C
ATOM     53  C5  ASG B   4      13.681  38.954  31.9210  0.00  0.00     0.000 C
ATOM     54  O5  ASG B   4      13.295  40.074  31.1000  0.00  0.00     0.000 O
BRANCH 50 57
ATOM     55   N  ASG B   4      16.469  41.059  29.8200  0.00  0.00     0.000 N
ATOM     57  HD  ASG B   4      16.120  41.798  29.5340  0.00  0.00     0.000 HD
ATOM     57   O  ASG B   4      16.243  43.287  29.8010  0.00  0.00     0.000 OA
ATOM     58   C  ASG B   4      16.814  42.279  29.3960  0.00  0.00     0.000 C
ATOM     59   C  ASG B   4      17.897  42.324  28.3630  0.00  0.00     0.000 C
ENDBRANCH 50 57
BRANCH 52 60
ATOM     60   O  ASG B   4      14.561  40.589  33.6460  0.00  0.00     0.000 O
ATOM     61   O  ASG B   4      14.121  39.262  35.7140  0.00  0.00     0.000 OA
ATOM     62   O  ASG B   4      14.163  41.640  35.8180  0.00  0.00     0.000 OA
ATOM     63   O  ASG B   4      12.454  40.559  34.5420  0.00  0.00     0.000 OA
ATOM     64   S  ASG B   4      13.822  40.494  35.0650  0.00  0.00     0.000 S
ENDBRANCH 52 60
ATOM     65   O  ASG B   4      11.568  37.775  31.7550  0.00  0.00     0.000 O
ATOM     67  HD  ASG B   4      11.229  38.439  31.3150  0.00  0.00     0.000 HD
ATOM     67   O  ASG B   4      11.568  37.775  31.7550  0.00  0.00     0.000 O
ATOM     69  HD  ASG B   4      11.229  38.439  31.3150  0.00  0.00     0.000 HD
ENDBRANCH 48 51
ENDBRANCH 35 48
ENDBRANCH 34 38
ENDBRANCH 15 34
ENDBRANCH 14 17
ENDBRANCH 1 14
TORSDOF 12
ENDMDL
MODEL 31
REMARK VINA RESULT:      -7.6      5.416     12.094
ROOT
ATOM      1  C1  GAD B   1      14.555  43.372  33.2980  0.00  0.00     0.000 C
ATOM      2  C2  GAD B   1      16.068  43.347  33.5360  0.00  0.00     0.000 C
ATOM      3  C3  GAD B   1      16.617  44.778  33.5830  0.00  0.00     0.000 C
ATOM      4  C4  GAD B   1      15.872  45.774  32.6900  0.00  0.00     0.000 C
ATOM      5  C5  GAD B   1      14.731  45.494  32.0290  0.00  0.00     0.000 C
ATOM      6  O5  GAD B   1      14.216  44.154  32.1420  0.00  0.00     0.000 O
ATOM      7   O  GAD B   1      16.410  42.564  34.7390  0.00  0.00     0.000 O
ATOM      9  HD  GAD B   1      15.594  42.296  34.6250  0.00  0.00     0.000 HD
ATOM      9   O  GAD B   1      18.002  44.828  33.1700  0.00  0.00     0.000 O
ATOM     11  HD  GAD B   1      17.186  44.561  33.0560  0.00  0.00     0.000 HD
ENDROOT
BRANCH 5 11
ATOM     11   C  GAD B   1      13.945  46.479  31.2500  0.00  0.00     0.000 C
ATOM     12   O  GAD B   1      14.403  46.810  30.1120  0.00  0.00     0.000 OA
ATOM     13   O  GAD B   1      12.896  47.019  31.7620  0.00  0.00     0.000 OA
ENDBRANCH 5 11
BRANCH 1 14
ATOM     14  O3  ASG B   2      13.854  42.334  32.8040  0.00  0.00     0.000 O
BRANCH 14 17
ATOM     15  C1  ASG B   2      13.637  39.640  30.1630  0.00  0.00     0.000 C
ATOM     16  C2  ASG B   2      13.131  40.781  31.0570  0.00  0.00     0.000 C
ATOM     17  C3  ASG B   2      14.277  41.264  31.9510  0.00  0.00     0.000 C
ATOM     18  C4  ASG B   2      14.797  40.115  32.7940  0.00  0.00     0.000 C
ATOM     19  C5  ASG B   2      15.173  38.955  31.8770  0.00  0.00     0.000 C
ATOM     20  O5  ASG B   2      14.054  38.608  31.0370  0.00  0.00     0.000 O
ATOM     21   C  ASG B   2      15.540  37.717  32.6300  0.00  0.00     0.000 C
ATOM     22   O  ASG B   2      15.664  36.643  31.7300  0.00  0.00     0.000 O
ATOM     24  HD  ASG B   2      15.776  35.901  31.2980  0.00  0.00     0.000 HD
BRANCH 16 26
ATOM     24   N  ASG B   2      12.531  41.889  30.3510  0.00  0.00     0.000 N
ATOM     26  HD  ASG B   2      12.568  41.092  30.0140  0.00  0.00     0.000 HD
ATOM     26   C  ASG B   2      11.478  42.592  30.8080  0.00  0.00     0.000 C
ATOM     27   C  ASG B   2      11.214  43.892  30.1300  0.00  0.00     0.000 C
ATOM     28   O  ASG B   2      10.781  42.183  31.7290  0.00  0.00     0.000 OA
ENDBRANCH 16 26
BRANCH 18 29
ATOM     29   O  ASG B   2      13.724  39.771  33.7370  0.00  0.00     0.000 O
ATOM     30   O  ASG B   2      15.252  39.062  35.5280  0.00  0.00     0.000 OA
ATOM     31   O  ASG B   2      14.072  41.177  35.7080  0.00  0.00     0.000 OA
ATOM     32   O  ASG B   2      12.857  39.095  35.8880  0.00  0.00     0.000 OA
ATOM     33   S  ASG B   2      14.012  39.787  35.3180  0.00  0.00     0.000 S
ENDBRANCH 18 29
BRANCH 15 34
ATOM     34  O4  ASG B   3      12.663  39.128  29.3000  0.00  0.00     0.000 O
BRANCH 34 38
ATOM     35  C1  GCT B   3       9.413  36.841  28.5440  0.00  0.00     0.000 C
ATOM     36  C2  GCT B   3       9.473  37.378  29.9580  0.00  0.00     0.000 C
ATOM     37  C3  GCT B   3      10.442  38.548  30.0520  0.00  0.00     0.000 C
ATOM     38  C4  GCT B   3      11.840  38.081  29.6270  0.00  0.00     0.000 C
ATOM     39  C5  GCT B   3      11.779  37.007  28.5170  0.00  0.00     0.000 C
ATOM     40  O5  GCT B   3      10.571  37.224  27.8100  0.00  0.00     0.000 O
ATOM     41   O  GCT B   3       8.157  37.800  30.2850  0.00  0.00     0.000 O
ATOM     43  HD  GCT B   3       7.445  37.361  30.5070  0.00  0.00     0.000 HD
ATOM     43   O  GCT B   3      10.409  39.065  31.3990  0.00  0.00     0.000 O
ATOM     45  HD  GCT B   3       9.696  38.626  31.6210  0.00  0.00     0.000 HD
BRANCH 39 45
ATOM     45   C  GCT B   3      11.869  35.551  28.9200  0.00  0.00     0.000 C
ATOM     46   O  GCT B   3      11.975  35.245  30.1490  0.00  0.00     0.000 OA
ATOM     47   O  GCT B   3      11.822  34.698  28.0180  0.00  0.00     0.000 OA
ENDBRANCH 39 45
BRANCH 35 48
ATOM     48  O3  ASG B   4       8.785  35.685  28.5450  0.00  0.00     0.000 O
BRANCH 48 51
ATOM     49  C1  ASG B   4       5.514  34.409  27.3770  0.00  0.00     0.000 C
ATOM     50  C2  ASG B   4       6.827  34.507  28.1720  0.00  0.00     0.000 C
ATOM     51  C3  ASG B   4       7.513  35.851  27.9430  0.00  0.00     0.000 C
ATOM     52  C4  ASG B   4       7.630  36.163  26.4600  0.00  0.00     0.000 C
ATOM     53  C5  ASG B   4       6.237  36.065  25.8430  0.00  0.00     0.000 C
ATOM     54  O5  ASG B   4       5.740  34.723  26.0120  0.00  0.00     0.000 O
BRANCH 50 57
ATOM     55   N  ASG B   4       7.531  34.254  29.4080  0.00  0.00     0.000 N
ATOM     57  HD  ASG B   4       7.029  33.610  29.6970  0.00  0.00     0.000 HD
ATOM     57   O  ASG B   4       6.918  32.104  29.5430  0.00  0.00     0.000 OA
ATOM     58   C  ASG B   4       7.608  33.034  29.9490  0.00  0.00     0.000 C
ATOM     59   C  ASG B   4       8.548  32.897  31.1070  0.00  0.00     0.000 C
ENDBRANCH 50 57
BRANCH 52 60
ATOM     60   O  ASG B   4       8.598  35.150  25.9660  0.00  0.00     0.000 O
ATOM     61   O  ASG B   4       9.849  36.823  24.6000  0.00  0.00     0.000 OA
ATOM     62   O  ASG B   4      10.658  34.590  24.7730  0.00  0.00     0.000 OA
ATOM     63   O  ASG B   4       8.569  34.992  23.6810  0.00  0.00     0.000 OA
ATOM     64   S  ASG B   4       9.530  35.438  24.6940  0.00  0.00     0.000 S
ENDBRANCH 52 60
ATOM     65   O  ASG B   4       4.827  36.623  23.9510  0.00  0.00     0.000 O
ATOM     67  HD  ASG B   4       4.525  35.812  23.9330  0.00  0.00     0.000 HD
ATOM     67   O  ASG B   4       4.827  36.623  23.9510  0.00  0.00     0.000 O
ATOM     69  HD  ASG B   4       4.525  35.812  23.9330  0.00  0.00     0.000 HD
ENDBRANCH 48 51
ENDBRANCH 35 48
ENDBRANCH 34 38
ENDBRANCH 15 34
ENDBRANCH 14 17
ENDBRANCH 1 14
TORSDOF 12
ENDMDL
MODEL 32
REMARK VINA RESULT:      -7.5     25.634     30.460
ROOT
ATOM      1  C1  GAD B   1       4.425  64.731  42.9230  0.00  0.00     0.000 C
ATOM      2  C2  GAD B   1       5.373  63.682  42.3330  0.00  0.00     0.000 C
ATOM      3  C3  GAD B   1       5.842  62.720  43.4310  0.00  0.00     0.000 C
ATOM      4  C4  GAD B   1       5.966  63.353  44.8200  0.00  0.00     0.000 C
ATOM      5  C5  GAD B   1       5.556  64.600  45.1250  0.00  0.00     0.000 C
ATOM      6  O5  GAD B   1       5.011  65.394  44.0540  0.00  0.00     0.000 O
ATOM      7   O  GAD B   1       4.758  62.985  41.1870  0.00  0.00     0.000 O
ATOM      9  HD  GAD B   1       4.218  63.660  41.2470  0.00  0.00     0.000 HD
ATOM      9   O  GAD B   1       7.141  62.162  43.1290  0.00  0.00     0.000 O
ATOM     11  HD  GAD B   1       6.601  62.836  43.1890  0.00  0.00     0.000 HD
ENDROOT
BRANCH 5 11
ATOM     11   C  GAD B   1       5.572  65.184  46.4860  0.00  0.00     0.000 C
ATOM     12   O  GAD B   1       6.191  64.533  47.3840  0.00  0.00     0.000 OA
ATOM     13   O  GAD B   1       4.912  66.259  46.7360  0.00  0.00     0.000 OA
ENDBRANCH 5 11
BRANCH 1 14
ATOM     14  O3  ASG B   2       4.174  65.923  42.3510  0.00  0.00     0.000 O
BRANCH 14 17
ATOM     15  C1  ASG B   2       3.860  67.355  38.8680  0.00  0.00     0.000 C
ATOM     16  C2  ASG B   2       4.534  67.063  40.2150  0.00  0.00     0.000 C
ATOM     17  C3  ASG B   2       3.587  66.226  41.0800  0.00  0.00     0.000 C
ATOM     18  C4  ASG B   2       2.281  66.969  41.2860  0.00  0.00     0.000 C
ATOM     19  C5  ASG B   2       1.705  67.350  39.9250  0.00  0.00     0.000 C
ATOM     20  O5  ASG B   2       2.684  68.084  39.1640  0.00  0.00     0.000 O
ATOM     21   C  ASG B   2       0.501  68.231  40.0330  0.00  0.00     0.000 C
ATOM     22   O  ASG B   2       0.159  68.711  38.7550  0.00  0.00     0.000 O
ATOM     24  HD  ASG B   2      -0.165  69.075  38.0400  0.00  0.00     0.000 HD
BRANCH 16 26
ATOM     24   N  ASG B   2       5.848  66.472  40.0960  0.00  0.00     0.000 N
ATOM     26  HD  ASG B   2       5.514  66.986  39.4840  0.00  0.00     0.000 HD
ATOM     26   C  ASG B   2       6.853  66.692  40.9630  0.00  0.00     0.000 C
ATOM     27   C  ASG B   2       8.006  65.750  40.8820  0.00  0.00     0.000 C
ATOM     28   O  ASG B   2       6.819  67.613  41.7700  0.00  0.00     0.000 OA
ENDBRANCH 16 26
BRANCH 18 29
ATOM     29   O  ASG B   2       2.593  68.137  42.1200  0.00  0.00     0.000 O
ATOM     30   O  ASG B   2       0.403  68.177  43.2370  0.00  0.00     0.000 OA
ATOM     31   O  ASG B   2       2.363  67.399  44.4400  0.00  0.00     0.000 OA
ATOM     32   O  ASG B   2       2.142  69.738  43.8720  0.00  0.00     0.000 OA
ATOM     33   S  ASG B   2       1.817  68.359  43.5100  0.00  0.00     0.000 S
ENDBRANCH 18 29
BRANCH 15 34
ATOM     34  O4  ASG B   3       4.649  68.114  37.9970  0.00  0.00     0.000 O
BRANCH 34 38
ATOM     35  C1  GCT B   3       6.486  65.831  35.2070  0.00  0.00     0.000 C
ATOM     36  C2  GCT B   3       6.597  67.320  34.9560  0.00  0.00     0.000 C
ATOM     37  C3  GCT B   3       6.287  68.107  36.2210  0.00  0.00     0.000 C
ATOM     38  C4  GCT B   3       4.863  67.776  36.6850  0.00  0.00     0.000 C
ATOM     39  C5  GCT B   3       4.481  66.309  36.3810  0.00  0.00     0.000 C
ATOM     40  O5  GCT B   3       5.691  65.572  36.3590  0.00  0.00     0.000 O
ATOM     41   O  GCT B   3       7.935  67.560  34.5420  0.00  0.00     0.000 O
ATOM     43  HD  GCT B   3       8.343  67.426  33.7900  0.00  0.00     0.000 HD
ATOM     43   O  GCT B   3       6.475  69.511  35.9460  0.00  0.00     0.000 O
ATOM     45  HD  GCT B   3       6.883  69.377  35.1940  0.00  0.00     0.000 HD
BRANCH 39 45
ATOM     45   C  GCT B   3       3.694  66.016  35.1230  0.00  0.00     0.000 C
ATOM     46   O  GCT B   3       3.385  66.969  34.3400  0.00  0.00     0.000 OA
ATOM     47   O  GCT B   3       3.388  64.835  34.8950  0.00  0.00     0.000 OA
ENDBRANCH 39 45
BRANCH 35 48
ATOM     48  O3  ASG B   4       6.497  65.194  34.0560  0.00  0.00     0.000 O
BRANCH 48 51
ATOM     49  C1  ASG B   4       8.629  62.188  33.7320  0.00  0.00     0.000 C
ATOM     50  C2  ASG B   4       8.216  63.668  33.7820  0.00  0.00     0.000 C
ATOM     51  C3  ASG B   4       6.786  63.826  34.2890  0.00  0.00     0.000 C
ATOM     52  C4  ASG B   4       5.831  62.914  33.5360  0.00  0.00     0.000 C
ATOM     53  C5  ASG B   4       6.367  61.488  33.6260  0.00  0.00     0.000 C
ATOM     54  O5  ASG B   4       7.668  61.434  33.0100  0.00  0.00     0.000 O
BRANCH 50 57
ATOM     55   N  ASG B   4       9.249  64.203  34.6400  0.00  0.00     0.000 N
ATOM     57  HD  ASG B   4       9.904  64.154  34.0750  0.00  0.00     0.000 HD
ATOM     57   O  ASG B   4      10.504  64.992  32.9610  0.00  0.00     0.000 OA
ATOM     58   C  ASG B   4      10.271  64.921  34.1640  0.00  0.00     0.000 C
ATOM     59   C  ASG B   4      11.133  65.583  35.1950  0.00  0.00     0.000 C
ENDBRANCH 50 57
BRANCH 52 60
ATOM     60   O  ASG B   4       5.816  63.484  32.1640  0.00  0.00     0.000 O
ATOM     61   O  ASG B   4       3.341  63.238  31.9500  0.00  0.00     0.000 OA
ATOM     62   O  ASG B   4       4.577  64.330  30.2320  0.00  0.00     0.000 OA
ATOM     63   O  ASG B   4       4.954  62.005  30.6420  0.00  0.00     0.000 OA
ATOM     64   S  ASG B   4       4.550  63.299  31.1980  0.00  0.00     0.000 S
ENDBRANCH 52 60
ATOM     65   O  ASG B   4       5.868  59.128  33.3790  0.00  0.00     0.000 O
ATOM     67  HD  ASG B   4       6.601  59.016  32.9320  0.00  0.00     0.000 HD
ATOM     67   O  ASG B   4       5.868  59.128  33.3790  0.00  0.00     0.000 O
ATOM     69  HD  ASG B   4       6.601  59.016  32.9320  0.00  0.00     0.000 HD
ENDBRANCH 48 51
ENDBRANCH 35 48
ENDBRANCH 34 38
ENDBRANCH 15 34
ENDBRANCH 14 17
ENDBRANCH 1 14
TORSDOF 12
ENDMDL
MODEL 33
REMARK VINA RESULT:      -7.5     37.849     42.170
ROOT
ATOM      1  C1  GAD B   1       4.872  48.220  76.7130  0.00  0.00     0.000 C
ATOM      2  C2  GAD B   1       3.893  47.292  75.9890  0.00  0.00     0.000 C
ATOM      3  C3  GAD B   1       3.651  46.028  76.8220  0.00  0.00     0.000 C
ATOM      4  C4  GAD B   1       4.853  45.579  77.6580  0.00  0.00     0.000 C
ATOM      5  C5  GAD B   1       5.988  46.292  77.8000  0.00  0.00     0.000 C
ATOM      6  O5  GAD B   1       6.080  47.533  77.0750  0.00  0.00     0.000 O
ATOM      7   O  GAD B   1       2.643  47.995  75.6410  0.00  0.00     0.000 O
ATOM      9  HD  GAD B   1       3.143  48.679  75.8200  0.00  0.00     0.000 HD
ATOM      9   O  GAD B   1       3.300  44.901  75.9880  0.00  0.00     0.000 O
ATOM     11  HD  GAD B   1       3.800  45.585  76.1670  0.00  0.00     0.000 HD
ENDROOT
BRANCH 5 11
ATOM     11   C  GAD B   1       7.113  45.919  78.6890  0.00  0.00     0.000 C
ATOM     12   O  GAD B   1       6.957  46.126  79.9320  0.00  0.00     0.000 OA
ATOM     13   O  GAD B   1       8.215  45.485  78.1880  0.00  0.00     0.000 OA
ENDBRANCH 5 11
BRANCH 1 14
ATOM     14  O3  ASG B   2       5.596  49.175  76.0990  0.00  0.00     0.000 O
BRANCH 14 17
ATOM     15  C1  ASG B   2       7.232  50.461  72.9450  0.00  0.00     0.000 C
ATOM     16  C2  ASG B   2       7.072  50.225  74.4540  0.00  0.00     0.000 C
ATOM     17  C3  ASG B   2       5.790  49.425  74.7030  0.00  0.00     0.000 C
ATOM     18  C4  ASG B   2       4.594  50.177  74.1490  0.00  0.00     0.000 C
ATOM     19  C5  ASG B   2       4.847  50.502  72.6800  0.00  0.00     0.000 C
ATOM     20  O5  ASG B   2       6.098  51.203  72.5380  0.00  0.00     0.000 O
ATOM     21   C  ASG B   2       3.794  51.387  72.0930  0.00  0.00     0.000 C
ATOM     22   O  ASG B   2       4.202  51.813  70.8170  0.00  0.00     0.000 O
ATOM     24  HD  ASG B   2       4.320  52.148  70.0270  0.00  0.00     0.000 HD
BRANCH 16 26
ATOM     24   N  ASG B   2       8.151  49.541  75.1280  0.00  0.00     0.000 N
ATOM     26  HD  ASG B   2       8.256  49.924  74.3580  0.00  0.00     0.000 HD
ATOM     26   C  ASG B   2       8.619  49.885  76.3420  0.00  0.00     0.000 C
ATOM     27   C  ASG B   2       9.482  48.878  77.0220  0.00  0.00     0.000 C
ATOM     28   O  ASG B   2       8.348  50.964  76.8550  0.00  0.00     0.000 OA
ENDBRANCH 16 26
BRANCH 18 29
ATOM     29   O  ASG B   2       4.436  51.378  74.9790  0.00  0.00     0.000 O
ATOM     30   O  ASG B   2       2.037  51.634  74.5090  0.00  0.00     0.000 OA
ATOM     31   O  ASG B   2       2.767  50.820  76.6770  0.00  0.00     0.000 OA
ATOM     32   O  ASG B   2       3.157  53.123  76.0550  0.00  0.00     0.000 OA
ATOM     33   S  ASG B   2       2.996  51.745  75.5920  0.00  0.00     0.000 S
ENDBRANCH 18 29
BRANCH 15 34
ATOM     34  O4  ASG B   3       8.382  51.183  72.6090  0.00  0.00     0.000 O
BRANCH 34 38
ATOM     35  C1  GCT B   3       9.440  53.920  69.8240  0.00  0.00     0.000 C
ATOM     36  C2  GCT B   3       9.734  54.344  71.2470  0.00  0.00     0.000 C
ATOM     37  C3  GCT B   3       9.729  53.142  72.1820  0.00  0.00     0.000 C
ATOM     38  C4  GCT B   3       8.353  52.467  72.1280  0.00  0.00     0.000 C
ATOM     39  C5  GCT B   3       7.718  52.558  70.7220  0.00  0.00     0.000 C
ATOM     40  O5  GCT B   3       8.789  52.654  69.7990  0.00  0.00     0.000 O
ATOM     41   O  GCT B   3      11.019  54.949  71.2300  0.00  0.00     0.000 O
ATOM     43  HD  GCT B   3      11.291  55.728  70.9670  0.00  0.00     0.000 HD
ATOM     43   O  GCT B   3      10.083  53.590  73.5080  0.00  0.00     0.000 O
ATOM     45  HD  GCT B   3      10.354  54.369  73.2440  0.00  0.00     0.000 HD
BRANCH 39 45
ATOM     45   C  GCT B   3       6.724  53.666  70.4510  0.00  0.00     0.000 C
ATOM     46   O  GCT B   3       6.553  54.580  71.3180  0.00  0.00     0.000 OA
ATOM     47   O  GCT B   3       6.114  53.644  69.3690  0.00  0.00     0.000 OA
ENDBRANCH 39 45
BRANCH 35 48
ATOM     48  O3  ASG B   4       9.191  54.987  69.0960  0.00  0.00     0.000 O
BRANCH 48 51
ATOM     49  C1  ASG B   4      10.784  55.464  65.7910  0.00  0.00     0.000 C
ATOM     50  C2  ASG B   4      10.578  55.500  67.3140  0.00  0.00     0.000 C
ATOM     51  C3  ASG B   4       9.370  54.663  67.7280  0.00  0.00     0.000 C
ATOM     52  C4  ASG B   4       8.146  55.018  66.9010  0.00  0.00     0.000 C
ATOM     53  C5  ASG B   4       8.515  54.888  65.4260  0.00  0.00     0.000 C
ATOM     54  O5  ASG B   4       9.581  55.808  65.1230  0.00  0.00     0.000 O
BRANCH 50 57
ATOM     55   N  ASG B   4      11.915  55.036  67.6050  0.00  0.00     0.000 N
ATOM     57  HD  ASG B   4      12.331  55.781  67.4530  0.00  0.00     0.000 HD
ATOM     57   O  ASG B   4      12.692  57.049  68.2040  0.00  0.00     0.000 OA
ATOM     58   C  ASG B   4      12.849  55.834  68.1310  0.00  0.00     0.000 C
ATOM     59   C  ASG B   4      14.109  55.155  68.5720  0.00  0.00     0.000 C
ENDBRANCH 50 57
BRANCH 52 60
ATOM     60   O  ASG B   4       7.821  56.401  67.3370  0.00  0.00     0.000 O
ATOM     61   O  ASG B   4       5.363  55.967  67.3210  0.00  0.00     0.000 OA
ATOM     62   O  ASG B   4       6.193  58.052  68.1170  0.00  0.00     0.000 OA
ATOM     63   O  ASG B   4       6.493  57.480  65.8140  0.00  0.00     0.000 OA
ATOM     64   S  ASG B   4       6.340  56.996  67.1890  0.00  0.00     0.000 S
ENDBRANCH 52 60
ATOM     65   O  ASG B   4       7.694  54.691  63.1520  0.00  0.00     0.000 O
ATOM     67  HD  ASG B   4       8.258  55.294  62.8930  0.00  0.00     0.000 HD
ATOM     67   O  ASG B   4       7.694  54.691  63.1520  0.00  0.00     0.000 O
ATOM     69  HD  ASG B   4       8.258  55.294  62.8930  0.00  0.00     0.000 HD
ENDBRANCH 48 51
ENDBRANCH 35 48
ENDBRANCH 34 38
ENDBRANCH 15 34
ENDBRANCH 14 17
ENDBRANCH 1 14
TORSDOF 12
ENDMDL
MODEL 34
REMARK VINA RESULT:      -7.5     29.150     35.463
ROOT
ATOM      1  C1  GAD B   1      19.917  32.532  66.7870  0.00  0.00     0.000 C
ATOM      2  C2  GAD B   1      19.647  32.235  68.2660  0.00  0.00     0.000 C
ATOM      3  C3  GAD B   1      20.173  33.382  69.1370  0.00  0.00     0.000 C
ATOM      4  C4  GAD B   1      21.415  34.084  68.5810  0.00  0.00     0.000 C
ATOM      5  C5  GAD B   1      21.936  33.851  67.3600  0.00  0.00     0.000 C
ATOM      6  O5  GAD B   1      21.300  32.839  66.5550  0.00  0.00     0.000 O
ATOM      7   O  GAD B   1      18.220  31.944  68.5040  0.00  0.00     0.000 O
ATOM      9  HD  GAD B   1      18.238  31.862  67.6420  0.00  0.00     0.000 HD
ATOM      9   O  GAD B   1      20.532  32.922  70.4600  0.00  0.00     0.000 O
ATOM     11  HD  GAD B   1      20.550  32.840  69.5980  0.00  0.00     0.000 HD
ENDROOT
BRANCH 5 11
ATOM     11   C  GAD B   1      23.071  34.598  66.7700  0.00  0.00     0.000 C
ATOM     12   O  GAD B   1      22.875  35.146  65.6410  0.00  0.00     0.000 OA
ATOM     13   O  GAD B   1      24.215  34.605  67.3580  0.00  0.00     0.000 OA
ENDBRANCH 5 11
BRANCH 1 14
ATOM     14  O3  ASG B   2      19.964  31.588  65.8280  0.00  0.00     0.000 O
BRANCH 14 17
ATOM     15  C1  ASG B   2      18.165  28.532  64.5230  0.00  0.00     0.000 C
ATOM     16  C2  ASG B   2      19.329  29.332  65.1250  0.00  0.00     0.000 C
ATOM     17  C3  ASG B   2      18.909  30.798  65.2660  0.00  0.00     0.000 C
ATOM     18  C4  ASG B   2      18.521  31.358  63.9110  0.00  0.00     0.000 C
ATOM     19  C5  ASG B   2      17.451  30.464  63.2910  0.00  0.00     0.000 C
ATOM     20  O5  ASG B   2      17.911  29.099  63.2510  0.00  0.00     0.000 O
ATOM     21   C  ASG B   2      17.124  30.844  61.8820  0.00  0.00     0.000 C
ATOM     22   O  ASG B   2      16.299  29.857  61.3130  0.00  0.00     0.000 O
ATOM     24  HD  ASG B   2      15.793  29.337  60.8400  0.00  0.00     0.000 HD
BRANCH 16 26
ATOM     24   N  ASG B   2      20.716  29.171  65.4940  0.00  0.00     0.000 N
ATOM     26  HD  ASG B   2      20.403  29.917  65.1860  0.00  0.00     0.000 HD
ATOM     26   C  ASG B   2      21.134  28.847  66.7320  0.00  0.00     0.000 C
ATOM     27   C  ASG B   2      22.548  28.392  66.8490  0.00  0.00     0.000 C
ATOM     28   O  ASG B   2      20.391  28.923  67.7030  0.00  0.00     0.000 OA
ENDBRANCH 16 26
BRANCH 18 29
ATOM     29   O  ASG B   2      19.752  31.410  63.1120  0.00  0.00     0.000 O
ATOM     30   O  ASG B   2      19.131  33.467  61.9180  0.00  0.00     0.000 OA
ATOM     31   O  ASG B   2      20.827  33.539  63.6530  0.00  0.00     0.000 OA
ATOM     32   O  ASG B   2      21.290  32.432  61.5540  0.00  0.00     0.000 OA
ATOM     33   S  ASG B   2      20.273  32.816  62.5320  0.00  0.00     0.000 S
ENDBRANCH 18 29
BRANCH 15 34
ATOM     34  O4  ASG B   3      18.445  27.171  64.3580  0.00  0.00     0.000 O
BRANCH 34 38
ATOM     35  C1  GCT B   3      17.915  25.892  68.1590  0.00  0.00     0.000 C
ATOM     36  C2  GCT B   3      18.683  24.924  67.2850  0.00  0.00     0.000 C
ATOM     37  C3  GCT B   3      19.219  25.624  66.0440  0.00  0.00     0.000 C
ATOM     38  C4  GCT B   3      18.045  26.205  65.2460  0.00  0.00     0.000 C
ATOM     39  C5  GCT B   3      16.901  26.686  66.1670  0.00  0.00     0.000 C
ATOM     40  O5  GCT B   3      17.495  27.025  67.4080  0.00  0.00     0.000 O
ATOM     41   O  GCT B   3      19.756  24.432  68.0750  0.00  0.00     0.000 O
ATOM     43  HD  GCT B   3      19.788  23.846  68.7110  0.00  0.00     0.000 HD
ATOM     43   O  GCT B   3      19.999  24.677  65.2830  0.00  0.00     0.000 O
ATOM     45  HD  GCT B   3      20.030  24.091  65.9200  0.00  0.00     0.000 HD
BRANCH 39 45
ATOM     45   C  GCT B   3      15.733  25.754  66.4100  0.00  0.00     0.000 C
ATOM     46   O  GCT B   3      15.756  24.580  65.9220  0.00  0.00     0.000 OA
ATOM     47   O  GCT B   3      14.790  26.177  67.0990  0.00  0.00     0.000 OA
ENDBRANCH 39 45
BRANCH 35 48
ATOM     48  O3  ASG B   4      17.249  25.218  69.0720  0.00  0.00     0.000 O
BRANCH 48 51
ATOM     49  C1  ASG B   4      18.295  26.940  72.1750  0.00  0.00     0.000 C
ATOM     50  C2  ASG B   4      18.389  26.241  70.8090  0.00  0.00     0.000 C
ATOM     51  C3  ASG B   4      17.008  26.063  70.1840  0.00  0.00     0.000 C
ATOM     52  C4  ASG B   4      16.035  25.434  71.1680  0.00  0.00     0.000 C
ATOM     53  C5  ASG B   4      16.036  26.275  72.4410  0.00  0.00     0.000 C
ATOM     54  O5  ASG B   4      17.361  26.272  73.0070  0.00  0.00     0.000 O
BRANCH 50 57
ATOM     55   N  ASG B   4      19.415  27.226  71.0590  0.00  0.00     0.000 N
ATOM     57  HD  ASG B   4      20.063  26.677  71.2270  0.00  0.00     0.000 HD
ATOM     57   O  ASG B   4      21.112  25.894  70.4590  0.00  0.00     0.000 OA
ATOM     58   C  ASG B   4      20.700  27.009  70.7630  0.00  0.00     0.000 C
ATOM     59   C  ASG B   4      21.602  28.199  70.8800  0.00  0.00     0.000 C
ENDBRANCH 50 57
BRANCH 52 60
ATOM     60   O  ASG B   4      16.559  24.054  71.3390  0.00  0.00     0.000 O
ATOM     61   O  ASG B   4      14.729  23.051  69.9690  0.00  0.00     0.000 OA
ATOM     62   O  ASG B   4      16.508  21.679  70.7560  0.00  0.00     0.000 OA
ATOM     63   O  ASG B   4      15.021  22.681  72.3380  0.00  0.00     0.000 OA
ATOM     64   S  ASG B   4      15.651  22.772  71.0170  0.00  0.00     0.000 S
ENDBRANCH 52 60
ATOM     65   O  ASG B   4      14.878  26.814  74.5020  0.00  0.00     0.000 O
ATOM     67  HD  ASG B   4      15.624  26.761  74.9380  0.00  0.00     0.000 HD
ATOM     67   O  ASG B   4      14.878  26.814  74.5020  0.00  0.00     0.000 O
ATOM     69  HD  ASG B   4      15.624  26.761  74.9380  0.00  0.00     0.000 HD
ENDBRANCH 48 51
ENDBRANCH 35 48
ENDBRANCH 34 38
ENDBRANCH 15 34
ENDBRANCH 14 17
ENDBRANCH 1 14
TORSDOF 12
ENDMDL
MODEL 35
REMARK VINA RESULT:      -7.5     37.634     41.723
ROOT
ATOM      1  C1  GAD B   1       4.919  50.856  74.5740  0.00  0.00     0.000 C
ATOM      2  C2  GAD B   1       4.879  50.030  75.8640  0.00  0.00     0.000 C
ATOM      3  C3  GAD B   1       3.621  49.154  75.8890  0.00  0.00     0.000 C
ATOM      4  C4  GAD B   1       2.407  49.765  75.1840  0.00  0.00     0.000 C
ATOM      5  C5  GAD B   1       2.444  50.899  74.4560  0.00  0.00     0.000 C
ATOM      6  O5  GAD B   1       3.703  51.595  74.3840  0.00  0.00     0.000 O
ATOM      7   O  GAD B   1       6.121  49.253  76.0430  0.00  0.00     0.000 O
ATOM      9  HD  GAD B   1       6.389  49.805  75.4320  0.00  0.00     0.000 HD
ATOM      9   O  GAD B   1       3.198  48.871  77.2420  0.00  0.00     0.000 O
ATOM     11  HD  GAD B   1       3.466  49.424  76.6310  0.00  0.00     0.000 HD
ENDROOT
BRANCH 5 11
ATOM     11   C  GAD B   1       1.302  51.442  73.6840  0.00  0.00     0.000 C
ATOM     12   O  GAD B   1       1.562  52.355  72.8390  0.00  0.00     0.000 OA
ATOM     13   O  GAD B   1       0.105  51.047  73.9360  0.00  0.00     0.000 OA
ENDBRANCH 5 11
BRANCH 1 14
ATOM     14  O3  ASG B   2       5.633  51.988  74.4290  0.00  0.00     0.000 O
BRANCH 14 17
ATOM     15  C1  ASG B   2       6.274  54.586  71.7610  0.00  0.00     0.000 C
ATOM     16  C2  ASG B   2       6.580  53.367  72.6440  0.00  0.00     0.000 C
ATOM     17  C3  ASG B   2       5.397  53.120  73.5840  0.00  0.00     0.000 C
ATOM     18  C4  ASG B   2       5.147  54.349  74.4370  0.00  0.00     0.000 C
ATOM     19  C5  ASG B   2       4.972  55.561  73.5260  0.00  0.00     0.000 C
ATOM     20  O5  ASG B   2       6.104  55.680  72.6420  0.00  0.00     0.000 O
ATOM     21   C  ASG B   2       4.886  56.847  74.2830  0.00  0.00     0.000 C
ATOM     22   O  ASG B   2       4.941  57.924  73.3800  0.00  0.00     0.000 O
ATOM     24  HD  ASG B   2       4.961  58.673  72.9470  0.00  0.00     0.000 HD
BRANCH 16 26
ATOM     24   N  ASG B   2       7.693  52.483  72.9020  0.00  0.00     0.000 N
ATOM     26  HD  ASG B   2       7.162  52.755  73.5310  0.00  0.00     0.000 HD
ATOM     26   C  ASG B   2       7.832  51.266  72.3460  0.00  0.00     0.000 C
ATOM     27   C  ASG B   2       9.184  50.647  72.4520  0.00  0.00     0.000 C
ATOM     28   O  ASG B   2       6.899  50.703  71.7860  0.00  0.00     0.000 OA
ENDBRANCH 16 26
BRANCH 18 29
ATOM     29   O  ASG B   2       6.302  54.475  75.3360  0.00  0.00     0.000 O
ATOM     30   O  ASG B   2       4.989  55.322  77.2340  0.00  0.00     0.000 OA
ATOM     31   O  ASG B   2       5.827  53.044  77.2610  0.00  0.00     0.000 OA
ATOM     32   O  ASG B   2       7.362  54.900  77.4650  0.00  0.00     0.000 OA
ATOM     33   S  ASG B   2       6.087  54.425  76.9280  0.00  0.00     0.000 S
ENDBRANCH 18 29
BRANCH 15 34
ATOM     34  O4  ASG B   3       7.296  54.895  70.8570  0.00  0.00     0.000 O
BRANCH 34 38
ATOM     35  C1  GCT B   3       6.995  55.626  66.8890  0.00  0.00     0.000 C
ATOM     36  C2  GCT B   3       8.027  56.477  67.5960  0.00  0.00     0.000 C
ATOM     37  C3  GCT B   3       8.399  55.873  68.9430  0.00  0.00     0.000 C
ATOM     38  C4  GCT B   3       7.141  55.773  69.8140  0.00  0.00     0.000 C
ATOM     39  C5  GCT B   3       5.876  55.478  68.9760  0.00  0.00     0.000 C
ATOM     40  O5  GCT B   3       6.311  54.790  67.8160  0.00  0.00     0.000 O
ATOM     41   O  GCT B   3       9.164  56.521  66.7450  0.00  0.00     0.000 O
ATOM     43  HD  GCT B   3       9.330  56.964  66.0200  0.00  0.00     0.000 HD
ATOM     43   O  GCT B   3       9.433  56.682  69.5410  0.00  0.00     0.000 O
ATOM     45  HD  GCT B   3       9.598  57.125  68.8150  0.00  0.00     0.000 HD
BRANCH 39 45
ATOM     45   C  GCT B   3       4.997  56.640  68.5680  0.00  0.00     0.000 C
ATOM     46   O  GCT B   3       5.370  57.828  68.8200  0.00  0.00     0.000 OA
ATOM     47   O  GCT B   3       3.933  56.381  67.9800  0.00  0.00     0.000 OA
ENDBRANCH 39 45
BRANCH 35 48
ATOM     48  O3  ASG B   4       6.503  56.296  65.8690  0.00  0.00     0.000 O
BRANCH 48 51
ATOM     49  C1  ASG B   4       6.294  54.934  62.4350  0.00  0.00     0.000 C
ATOM     50  C2  ASG B   4       6.846  55.674  63.6650  0.00  0.00     0.000 C
ATOM     51  C3  ASG B   4       6.011  55.378  64.9080  0.00  0.00     0.000 C
ATOM     52  C4  ASG B   4       4.530  55.585  64.6390  0.00  0.00     0.000 C
ATOM     53  C5  ASG B   4       4.147  54.749  63.4210  0.00  0.00     0.000 C
ATOM     54  O5  ASG B   4       4.909  55.197  62.2830  0.00  0.00     0.000 O
BRANCH 50 57
ATOM     55   N  ASG B   4       8.206  55.188  63.7060  0.00  0.00     0.000 N
ATOM     57  HD  ASG B   4       8.500  55.611  63.0110  0.00  0.00     0.000 HD
ATOM     57   O  ASG B   4       9.080  56.973  62.6750  0.00  0.00     0.000 OA
ATOM     58   C  ASG B   4       9.241  55.928  63.2970  0.00  0.00     0.000 C
ATOM     59   C  ASG B   4      10.597  55.369  63.6030  0.00  0.00     0.000 C
ENDBRANCH 50 57
BRANCH 52 60
ATOM     60   O  ASG B   4       4.415  57.053  64.4420  0.00  0.00     0.000 O
ATOM     61   O  ASG B   4       2.040  57.100  65.2090  0.00  0.00     0.000 OA
ATOM     62   O  ASG B   4       3.168  59.139  64.7200  0.00  0.00     0.000 OA
ATOM     63   O  ASG B   4       2.757  57.581  62.9530  0.00  0.00     0.000 OA
ATOM     64   S  ASG B   4       2.986  57.778  64.3870  0.00  0.00     0.000 S
ENDBRANCH 52 60
ATOM     65   O  ASG B   4       2.340  53.756  62.1450  0.00  0.00     0.000 O
ATOM     67  HD  ASG B   4       2.692  54.052  61.4110  0.00  0.00     0.000 HD
ATOM     67   O  ASG B   4       2.340  53.756  62.1450  0.00  0.00     0.000 O
ATOM     69  HD  ASG B   4       2.692  54.052  61.4110  0.00  0.00     0.000 HD
ENDBRANCH 48 51
ENDBRANCH 35 48
ENDBRANCH 34 38
ENDBRANCH 15 34
ENDBRANCH 14 17
ENDBRANCH 1 14
TORSDOF 12
ENDMDL
MODEL 36
REMARK VINA RESULT:      -7.5     10.284     15.130
ROOT
ATOM      1  C1  GAD B   1      11.081  37.418  29.3500  0.00  0.00     0.000 C
ATOM      2  C2  GAD B   1      10.701  38.174  30.6270  0.00  0.00     0.000 C
ATOM      3  C3  GAD B   1      11.960  38.500  31.4400  0.00  0.00     0.000 C
ATOM      4  C4  GAD B   1      13.080  37.463  31.3180  0.00  0.00     0.000 C
ATOM      5  C5  GAD B   1      13.064  36.426  30.4580  0.00  0.00     0.000 C
ATOM      6  O5  GAD B   1      11.889  36.267  29.6400  0.00  0.00     0.000 O
ATOM      7   O  GAD B   1       9.892  39.370  30.3230  0.00  0.00     0.000 O
ATOM      9  HD  GAD B   1       9.824  38.958  29.5640  0.00  0.00     0.000 HD
ATOM      9   O  GAD B   1      11.667  38.607  32.8510  0.00  0.00     0.000 O
ATOM     11  HD  GAD B   1      11.599  38.196  32.0930  0.00  0.00     0.000 HD
ENDROOT
BRANCH 5 11
ATOM     11   C  GAD B   1      14.187  35.480  30.2560  0.00  0.00     0.000 C
ATOM     12   O  GAD B   1      15.321  35.984  29.9860  0.00  0.00     0.000 OA
ATOM     13   O  GAD B   1      13.975  34.212  30.2770  0.00  0.00     0.000 OA
ENDBRANCH 5 11
BRANCH 1 14
ATOM     14  O3  ASG B   2      10.227  36.646  28.6520  0.00  0.00     0.000 O
BRANCH 14 17
ATOM     15  C1  ASG B   2       8.393  33.342  28.6680  0.00  0.00     0.000 C
ATOM     16  C2  ASG B   2       9.346  34.422  28.1370  0.00  0.00     0.000 C
ATOM     17  C3  ASG B   2       9.347  35.610  29.1030  0.00  0.00     0.000 C
ATOM     18  C4  ASG B   2       7.942  36.162  29.2470  0.00  0.00     0.000 C
ATOM     19  C5  ASG B   2       7.002  35.032  29.6550  0.00  0.00     0.000 C
ATOM     20  O5  ASG B   2       7.110  33.939  28.7220  0.00  0.00     0.000 O
ATOM     21   C  ASG B   2       5.565  35.446  29.6600  0.00  0.00     0.000 C
ATOM     22   O  ASG B   2       4.753  34.311  29.8340  0.00  0.00     0.000 O
ATOM     24  HD  ASG B   2       4.138  33.710  29.9360  0.00  0.00     0.000 HD
BRANCH 16 26
ATOM     24   N  ASG B   2      10.689  33.961  27.8700  0.00  0.00     0.000 N
ATOM     26  HD  ASG B   2      10.007  33.428  27.8600  0.00  0.00     0.000 HD
ATOM     26   C  ASG B   2      11.454  34.414  26.8600  0.00  0.00     0.000 C
ATOM     27   C  ASG B   2      12.906  34.089  26.9400  0.00  0.00     0.000 C
ATOM     28   O  ASG B   2      10.980  35.056  25.9310  0.00  0.00     0.000 OA
ENDBRANCH 16 26
BRANCH 18 29
ATOM     29   O  ASG B   2       7.591  36.754  27.9490  0.00  0.00     0.000 O
ATOM     30   O  ASG B   2       6.178  38.522  28.9090  0.00  0.00     0.000 OA
ATOM     31   O  ASG B   2       8.371  39.071  28.0220  0.00  0.00     0.000 OA
ATOM     32   O  ASG B   2       6.587  38.426  26.5230  0.00  0.00     0.000 OA
ATOM     33   S  ASG B   2       7.160  38.300  27.8630  0.00  0.00     0.000 S
ENDBRANCH 18 29
BRANCH 15 34
ATOM     34  O4  ASG B   3       8.323  32.205  27.8560  0.00  0.00     0.000 O
BRANCH 34 38
ATOM     35  C1  GCT B   3       8.679  28.176  27.8920  0.00  0.00     0.000 C
ATOM     36  C2  GCT B   3       9.115  28.844  29.1770  0.00  0.00     0.000 C
ATOM     37  C3  GCT B   3       8.562  30.260  29.2670  0.00  0.00     0.000 C
ATOM     38  C4  GCT B   3       9.071  31.076  28.0730  0.00  0.00     0.000 C
ATOM     39  C5  GCT B   3       9.219  30.212  26.8000  0.00  0.00     0.000 C
ATOM     40  O5  GCT B   3       8.293  29.147  26.9250  0.00  0.00     0.000 O
ATOM     41   O  GCT B   3       8.607  28.048  30.2380  0.00  0.00     0.000 O
ATOM     43  HD  GCT B   3       8.865  27.292  30.5710  0.00  0.00     0.000 HD
ATOM     43   O  GCT B   3       8.949  30.824  30.5380  0.00  0.00     0.000 O
ATOM     45  HD  GCT B   3       9.206  30.067  30.8710  0.00  0.00     0.000 HD
BRANCH 39 45
ATOM     45   C  GCT B   3      10.584  29.651  26.4660  0.00  0.00     0.000 C
ATOM     46   O  GCT B   3      10.734  28.949  25.4170  0.00  0.00     0.000 OA
ATOM     47   O  GCT B   3      11.522  29.915  27.2370  0.00  0.00     0.000 OA
ENDBRANCH 39 45
BRANCH 35 48
ATOM     48  O3  ASG B   4       9.375  27.073  27.7170  0.00  0.00     0.000 O
BRANCH 48 51
ATOM     49  C1  ASG B   4       8.958  23.490  28.5410  0.00  0.00     0.000 C
ATOM     50  C2  ASG B   4       9.632  24.809  28.1250  0.00  0.00     0.000 C
ATOM     51  C3  ASG B   4       8.704  25.999  28.3520  0.00  0.00     0.000 C
ATOM     52  C4  ASG B   4       7.333  25.752  27.7430  0.00  0.00     0.000 C
ATOM     53  C5  ASG B   4       6.798  24.434  28.2950  0.00  0.00     0.000 C
ATOM     54  O5  ASG B   4       7.690  23.367  27.9170  0.00  0.00     0.000 O
BRANCH 50 57
ATOM     55   N  ASG B   4      10.653  25.651  27.5450  0.00  0.00     0.000 N
ATOM     57  HD  ASG B   4      11.341  25.192  27.8040  0.00  0.00     0.000 HD
ATOM     57   O  ASG B   4      12.157  24.006  27.3250  0.00  0.00     0.000 OA
ATOM     58   C  ASG B   4      11.809  25.159  27.0900  0.00  0.00     0.000 C
ATOM     59   C  ASG B   4      12.666  26.121  26.3260  0.00  0.00     0.000 C
ENDBRANCH 50 57
BRANCH 52 60
ATOM     60   O  ASG B   4       7.599  25.747  26.2810  0.00  0.00     0.000 O
ATOM     61   O  ASG B   4       5.730  27.332  25.8050  0.00  0.00     0.000 OA
ATOM     62   O  ASG B   4       7.186  26.654  24.0470  0.00  0.00     0.000 OA
ATOM     63   O  ASG B   4       5.781  25.025  25.0910  0.00  0.00     0.000 OA
ATOM     64   S  ASG B   4       6.512  26.287  25.2340  0.00  0.00     0.000 S
ENDBRANCH 52 60
ATOM     65   O  ASG B   4       4.848  23.032  28.6270  0.00  0.00     0.000 O
ATOM     67  HD  ASG B   4       5.290  22.344  28.3420  0.00  0.00     0.000 HD
ATOM     67   O  ASG B   4       4.848  23.032  28.6270  0.00  0.00     0.000 O
ATOM     69  HD  ASG B   4       5.290  22.344  28.3420  0.00  0.00     0.000 HD
ENDBRANCH 48 51
ENDBRANCH 35 48
ENDBRANCH 34 38
ENDBRANCH 15 34
ENDBRANCH 14 17
ENDBRANCH 1 14
TORSDOF 12
ENDMDL
MODEL 37
REMARK VINA RESULT:      -7.5     17.627     22.535
ROOT
ATOM      1  C1  GAD B   1      19.020  50.593  56.5840  0.00  0.00     0.000 C
ATOM      2  C2  GAD B   1      19.220  49.415  57.5430  0.00  0.00     0.000 C
ATOM      3  C3  GAD B   1      18.192  49.482  58.6790  0.00  0.00     0.000 C
ATOM      4  C4  GAD B   1      17.782  50.901  59.0820  0.00  0.00     0.000 C
ATOM      5  C5  GAD B   1      18.148  52.014  58.4170  0.00  0.00     0.000 C
ATOM      6  O5  GAD B   1      19.019  51.847  57.2820  0.00  0.00     0.000 O
ATOM      7   O  GAD B   1      19.196  48.127  56.8250  0.00  0.00     0.000 O
ATOM      9  HD  GAD B   1      19.299  48.661  56.1510  0.00  0.00     0.000 HD
ATOM      9   O  GAD B   1      18.688  48.851  59.8810  0.00  0.00     0.000 O
ATOM     11  HD  GAD B   1      18.792  49.385  59.2070  0.00  0.00     0.000 HD
ENDROOT
BRANCH 5 11
ATOM     11   C  GAD B   1      17.671  53.381  58.7340  0.00  0.00     0.000 C
ATOM     12   O  GAD B   1      18.258  54.345  58.1510  0.00  0.00     0.000 OA
ATOM     13   O  GAD B   1      16.760  53.557  59.6250  0.00  0.00     0.000 OA
ENDBRANCH 5 11
BRANCH 1 14
ATOM     14  O3  ASG B   2      19.973  51.054  55.7520  0.00  0.00     0.000 O
BRANCH 14 17
ATOM     15  C1  ASG B   2      22.114  50.535  52.6820  0.00  0.00     0.000 C
ATOM     16  C2  ASG B   2      21.769  51.040  54.0900  0.00  0.00     0.000 C
ATOM     17  C3  ASG B   2      20.342  50.608  54.4420  0.00  0.00     0.000 C
ATOM     18  C4  ASG B   2      19.366  51.162  53.4210  0.00  0.00     0.000 C
ATOM     19  C5  ASG B   2      19.814  50.742  52.0250  0.00  0.00     0.000 C
ATOM     20  O5  ASG B   2      21.182  51.140  51.8050  0.00  0.00     0.000 O
ATOM     21   C  ASG B   2      19.006  51.381  50.9410  0.00  0.00     0.000 C
ATOM     22   O  ASG B   2      19.606  51.119  49.6960  0.00  0.00     0.000 O
ATOM     24  HD  ASG B   2      19.860  51.036  48.8720  0.00  0.00     0.000 HD
BRANCH 16 26
ATOM     24   N  ASG B   2      22.652  50.623  55.1540  0.00  0.00     0.000 N
ATOM     26  HD  ASG B   2      22.895  50.618  54.3230  0.00  0.00     0.000 HD
ATOM     26   C  ASG B   2      23.037  51.418  56.1690  0.00  0.00     0.000 C
ATOM     27   C  ASG B   2      23.658  50.735  57.3380  0.00  0.00     0.000 C
ATOM     28   O  ASG B   2      22.884  52.633  56.1290  0.00  0.00     0.000 OA
ENDBRANCH 16 26
BRANCH 18 29
ATOM     29   O  ASG B   2      19.357  52.620  53.6020  0.00  0.00     0.000 O
ATOM     30   O  ASG B   2      17.116  52.928  52.6380  0.00  0.00     0.000 OA
ATOM     31   O  ASG B   2      17.440  53.117  55.0360  0.00  0.00     0.000 OA
ATOM     32   O  ASG B   2      18.333  54.808  53.5580  0.00  0.00     0.000 OA
ATOM     33   S  ASG B   2      17.958  53.403  53.7190  0.00  0.00     0.000 S
ENDBRANCH 18 29
BRANCH 15 34
ATOM     34  O4  ASG B   3      23.405  50.874  52.2640  0.00  0.00     0.000 O
BRANCH 34 38
ATOM     35  C1  GCT B   3      25.548  49.892  48.9760  0.00  0.00     0.000 C
ATOM     36  C2  GCT B   3      25.632  51.355  49.3510  0.00  0.00     0.000 C
ATOM     37  C3  GCT B   3      25.189  51.572  50.7910  0.00  0.00     0.000 C
ATOM     38  C4  GCT B   3      23.742  51.089  50.9520  0.00  0.00     0.000 C
ATOM     39  C5  GCT B   3      23.435  49.868  50.0550  0.00  0.00     0.000 C
ATOM     40  O5  GCT B   3      24.666  49.197  49.8510  0.00  0.00     0.000 O
ATOM     41   O  GCT B   3      26.991  51.735  49.1920  0.00  0.00     0.000 O
ATOM     43  HD  GCT B   3      27.466  51.912  48.4890  0.00  0.00     0.000 HD
ATOM     43   O  GCT B   3      25.354  52.968  51.1180  0.00  0.00     0.000 O
ATOM     45  HD  GCT B   3      25.829  53.144  50.4160  0.00  0.00     0.000 HD
BRANCH 39 45
ATOM     45   C  GCT B   3      22.768  50.107  48.7180  0.00  0.00     0.000 C
ATOM     46   O  GCT B   3      22.579  49.129  47.9280  0.00  0.00     0.000 OA
ATOM     47   O  GCT B   3      22.415  51.267  48.4470  0.00  0.00     0.000 OA
ENDBRANCH 39 45
BRANCH 35 48
ATOM     48  O3  ASG B   4      25.678  49.768  47.6730  0.00  0.00     0.000 O
BRANCH 48 51
ATOM     49  C1  ASG B   4      28.596  47.678  46.7760  0.00  0.00     0.000 C
ATOM     50  C2  ASG B   4      27.779  48.864  47.3150  0.00  0.00     0.000 C
ATOM     51  C3  ASG B   4      26.293  48.524  47.3860  0.00  0.00     0.000 C
ATOM     52  C4  ASG B   4      25.798  47.942  46.0730  0.00  0.00     0.000 C
ATOM     53  C5  ASG B   4      26.689  46.756  45.7130  0.00  0.00     0.000 C
ATOM     54  O5  ASG B   4      28.045  47.216  45.5540  0.00  0.00     0.000 O
BRANCH 50 57
ATOM     55   N  ASG B   4      28.791  48.790  48.3440  0.00  0.00     0.000 N
ATOM     57  HD  ASG B   4      29.381  49.294  47.9610  0.00  0.00     0.000 HD
ATOM     57   O  ASG B   4      29.710  50.772  47.8540  0.00  0.00     0.000 OA
ATOM     58   C  ASG B   4      29.620  49.805  48.6040  0.00  0.00     0.000 C
ATOM     59   C  ASG B   4      30.462  49.655  49.8340  0.00  0.00     0.000 C
ENDBRANCH 50 57
BRANCH 52 60
ATOM     60   O  ASG B   4      25.884  49.088  45.1300  0.00  0.00     0.000 O
ATOM     61   O  ASG B   4      23.420  49.117  44.7370  0.00  0.00     0.000 OA
ATOM     62   O  ASG B   4      24.792  50.812  43.7820  0.00  0.00     0.000 OA
ATOM     63   O  ASG B   4      25.064  48.548  43.0610  0.00  0.00     0.000 OA
ATOM     64   S  ASG B   4      24.672  49.452  44.1470  0.00  0.00     0.000 S
ENDBRANCH 52 60
ATOM     65   O  ASG B   4      26.936  44.757  44.3640  0.00  0.00     0.000 O
ATOM     67  HD  ASG B   4      27.742  44.994  44.1540  0.00  0.00     0.000 HD
ATOM     67   O  ASG B   4      26.936  44.757  44.3640  0.00  0.00     0.000 O
ATOM     69  HD  ASG B   4      27.742  44.994  44.1540  0.00  0.00     0.000 HD
ENDBRANCH 48 51
ENDBRANCH 35 48
ENDBRANCH 34 38
ENDBRANCH 15 34
ENDBRANCH 14 17
ENDBRANCH 1 14
TORSDOF 12
ENDMDL
MODEL 38
REMARK VINA RESULT:      -7.4      2.623      5.265
ROOT
ATOM      1  C1  GAD B   1      14.014  42.543  30.5400  0.00  0.00     0.000 C
ATOM      2  C2  GAD B   1      12.547  42.963  30.3980  0.00  0.00     0.000 C
ATOM      3  C3  GAD B   1      12.451  44.479  30.1920  0.00  0.00     0.000 C
ATOM      4  C4  GAD B   1      13.545  45.287  30.8940  0.00  0.00     0.000 C
ATOM      5  C5  GAD B   1      14.609  44.741  31.5170  0.00  0.00     0.000 C
ATOM      6  O5  GAD B   1      14.684  43.304  31.5570  0.00  0.00     0.000 O
ATOM      7   O  GAD B   1      11.869  42.196  29.3350  0.00  0.00     0.000 O
ATOM      9  HD  GAD B   1      12.574  41.703  29.4360  0.00  0.00     0.000 HD
ATOM      9   O  GAD B   1      11.194  45.002  30.6760  0.00  0.00     0.000 O
ATOM     11  HD  GAD B   1      11.899  44.509  30.7760  0.00  0.00     0.000 HD
ENDROOT
BRANCH 5 11
ATOM     11   C  GAD B   1      15.728  45.513  32.1080  0.00  0.00     0.000 C
ATOM     12   O  GAD B   1      16.715  45.766  31.3500  0.00  0.00     0.000 OA
ATOM     13   O  GAD B   1      15.708  45.828  33.3540  0.00  0.00     0.000 OA
ENDBRANCH 5 11
BRANCH 1 14
ATOM     14  O3  ASG B   2      14.415  41.400  31.1270  0.00  0.00     0.000 O
BRANCH 14 17
ATOM     15  C1  ASG B   2      16.631  40.144  33.9180  0.00  0.00     0.000 C
ATOM     16  C2  ASG B   2      16.180  40.362  32.4670  0.00  0.00     0.000 C
ATOM     17  C3  ASG B   2      14.877  41.166  32.4620  0.00  0.00     0.000 C
ATOM     18  C4  ASG B   2      13.810  40.429  33.2490  0.00  0.00     0.000 C
ATOM     19  C5  ASG B   2      14.343  40.120  34.6440  0.00  0.00     0.000 C
ATOM     20  O5  ASG B   2      15.595  39.414  34.5490  0.00  0.00     0.000 O
ATOM     21   C  ASG B   2      13.422  39.249  35.4370  0.00  0.00     0.000 C
ATOM     22   O  ASG B   2      14.070  38.837  36.6150  0.00  0.00     0.000 O
ATOM     24  HD  ASG B   2      14.340  38.511  37.3710  0.00  0.00     0.000 HD
BRANCH 16 26
ATOM     24   N  ASG B   2      17.145  40.999  31.6000  0.00  0.00     0.000 N
ATOM     26  HD  ASG B   2      17.377  40.582  32.3230  0.00  0.00     0.000 HD
ATOM     26   C  ASG B   2      17.329  40.669  30.3080  0.00  0.00     0.000 C
ATOM     27   C  ASG B   2      18.105  41.642  29.4880  0.00  0.00     0.000 C
ATOM     28   O  ASG B   2      16.884  39.630  29.8380  0.00  0.00     0.000 OA
ENDBRANCH 16 26
BRANCH 18 29
ATOM     29   O  ASG B   2      13.488  39.218  32.4810  0.00  0.00     0.000 O
ATOM     30   O  ASG B   2      11.139  39.142  33.1990  0.00  0.00     0.000 OA
ATOM     31   O  ASG B   2      11.693  39.841  30.9420  0.00  0.00     0.000 OA
ATOM     32   O  ASG B   2      11.994  37.535  31.6020  0.00  0.00     0.000 OA
ATOM     33   S  ASG B   2      11.972  38.934  32.0300  0.00  0.00     0.000 S
ENDBRANCH 18 29
BRANCH 15 34
ATOM     34  O4  ASG B   3      17.822  39.419  34.0330  0.00  0.00     0.000 O
BRANCH 34 38
ATOM     35  C1  GCT B   3      20.491  37.178  36.0870  0.00  0.00     0.000 C
ATOM     36  C2  GCT B   3      19.092  36.600  36.0600  0.00  0.00     0.000 C
ATOM     37  C3  GCT B   3      18.268  37.227  34.9450  0.00  0.00     0.000 C
ATOM     38  C4  GCT B   3      18.187  38.742  35.1690  0.00  0.00     0.000 C
ATOM     39  C5  GCT B   3      19.479  39.305  35.8030  0.00  0.00     0.000 C
ATOM     40  O5  GCT B   3      20.530  38.435  35.4200  0.00  0.00     0.000 O
ATOM     41   O  GCT B   3      19.237  35.204  35.8410  0.00  0.00     0.000 O
ATOM     43  HD  GCT B   3      19.470  34.555  36.3640  0.00  0.00     0.000 HD
ATOM     43   O  GCT B   3      16.972  36.594  34.9190  0.00  0.00     0.000 O
ATOM     45  HD  GCT B   3      17.205  35.944  35.4420  0.00  0.00     0.000 HD
BRANCH 39 45
ATOM     45   C  GCT B   3      19.516  39.504  37.3030  0.00  0.00     0.000 C
ATOM     46   O  GCT B   3      18.666  38.908  38.0360  0.00  0.00     0.000 OA
ATOM     47   O  GCT B   3      20.400  40.243  37.7660  0.00  0.00     0.000 OA
ENDBRANCH 39 45
BRANCH 35 48
ATOM     48  O3  ASG B   4      21.087  36.822  37.2050  0.00  0.00     0.000 O
BRANCH 48 51
ATOM     49  C1  ASG B   4      24.370  35.188  37.6970  0.00  0.00     0.000 C
ATOM     50  C2  ASG B   4      22.845  35.381  37.6440  0.00  0.00     0.000 C
ATOM     51  C3  ASG B   4      22.478  36.698  36.9660  0.00  0.00     0.000 C
ATOM     52  C4  ASG B   4      23.257  37.859  37.5610  0.00  0.00     0.000 C
ATOM     53  C5  ASG B   4      24.743  37.519  37.4930  0.00  0.00     0.000 C
ATOM     54  O5  ASG B   4      24.991  36.329  38.2670  0.00  0.00     0.000 O
BRANCH 50 57
ATOM     55   N  ASG B   4      21.524  35.189  38.1980  0.00  0.00     0.000 N
ATOM     57  HD  ASG B   4      21.471  34.333  38.0730  0.00  0.00     0.000 HD
ATOM     57   O  ASG B   4      21.872  33.057  38.7900  0.00  0.00     0.000 OA
ATOM     58   C  ASG B   4      21.171  34.064  38.8280  0.00  0.00     0.000 C
ATOM     59   C  ASG B   4      19.849  34.102  39.5300  0.00  0.00     0.000 C
ENDBRANCH 50 57
BRANCH 52 60
ATOM     60   O  ASG B   4      22.711  37.973  38.9390  0.00  0.00     0.000 O
ATOM     61   O  ASG B   4      23.284  40.397  39.1040  0.00  0.00     0.000 OA
ATOM     62   O  ASG B   4      22.059  39.346  40.8550  0.00  0.00     0.000 OA
ATOM     63   O  ASG B   4      24.309  38.657  40.4300  0.00  0.00     0.000 OA
ATOM     64   S  ASG B   4      23.073  39.220  39.8790  0.00  0.00     0.000 S
ENDBRANCH 52 60
ATOM     65   O  ASG B   4      27.012  38.369  37.5970  0.00  0.00     0.000 O
ATOM     67  HD  ASG B   4      27.233  37.722  38.1300  0.00  0.00     0.000 HD
ATOM     67   O  ASG B   4      27.012  38.369  37.5970  0.00  0.00     0.000 O
ATOM     69  HD  ASG B   4      27.233  37.722  38.1300  0.00  0.00     0.000 HD
ENDBRANCH 48 51
ENDBRANCH 35 48
ENDBRANCH 34 38
ENDBRANCH 15 34
ENDBRANCH 14 17
ENDBRANCH 1 14
TORSDOF 12
ENDMDL
MODEL 39
REMARK VINA RESULT:      -7.4     35.851     40.789
ROOT
ATOM      1  C1  GAD B   1      16.596  49.103  69.1680  0.00  0.00     0.000 C
ATOM      2  C2  GAD B   1      16.354  50.157  68.0830  0.00  0.00     0.000 C
ATOM      3  C3  GAD B   1      17.153  49.808  66.8220  0.00  0.00     0.000 C
ATOM      4  C4  GAD B   1      18.480  49.090  67.0890  0.00  0.00     0.000 C
ATOM      5  C5  GAD B   1      18.871  48.646  68.3000  0.00  0.00     0.000 C
ATOM      6  O5  GAD B   1      17.997  48.910  69.4130  0.00  0.00     0.000 O
ATOM      7   O  GAD B   1      14.914  50.335  67.8160  0.00  0.00     0.000 O
ATOM      9  HD  GAD B   1      14.865  49.907  68.5680  0.00  0.00     0.000 HD
ATOM      9   O  GAD B   1      17.484  50.989  66.0580  0.00  0.00     0.000 O
ATOM     11  HD  GAD B   1      17.436  50.561  66.8090  0.00  0.00     0.000 HD
ENDROOT
BRANCH 5 11
ATOM     11   C  GAD B   1      20.101  47.858  68.5510  0.00  0.00     0.000 C
ATOM     12   O  GAD B   1      20.737  48.111  69.6210  0.00  0.00     0.000 OA
ATOM     13   O  GAD B   1      20.525  47.023  67.6700  0.00  0.00     0.000 OA
ENDBRANCH 5 11
BRANCH 1 14
ATOM     14  O3  ASG B   2      16.392  49.317  70.4810  0.00  0.00     0.000 O
BRANCH 14 17
ATOM     15  C1  ASG B   2      13.654  50.352  72.8700  0.00  0.00     0.000 C
ATOM     16  C2  ASG B   2      14.955  50.500  72.0700  0.00  0.00     0.000 C
ATOM     17  C3  ASG B   2      15.188  49.227  71.2510  0.00  0.00     0.000 C
ATOM     18  C4  ASG B   2      15.259  48.024  72.1710  0.00  0.00     0.000 C
ATOM     19  C5  ASG B   2      14.004  47.983  73.0370  0.00  0.00     0.000 C
ATOM     20  O5  ASG B   2      13.838  49.239  73.7250  0.00  0.00     0.000 O
ATOM     21   C  ASG B   2      14.062  46.925  74.0920  0.00  0.00     0.000 C
ATOM     22   O  ASG B   2      12.979  47.087  74.9750  0.00  0.00     0.000 O
ATOM     24  HD  ASG B   2      12.368  47.065  75.5880  0.00  0.00     0.000 HD
BRANCH 16 26
ATOM     24   N  ASG B   2      15.025  51.667  71.2220  0.00  0.00     0.000 N
ATOM     26  HD  ASG B   2      14.510  51.631  71.9170  0.00  0.00     0.000 HD
ATOM     26   C  ASG B   2      16.149  52.376  71.0080  0.00  0.00     0.000 C
ATOM     27   C  ASG B   2      16.117  53.322  69.8570  0.00  0.00     0.000 C
ATOM     28   O  ASG B   2      17.137  52.248  71.7200  0.00  0.00     0.000 OA
ENDBRANCH 16 26
BRANCH 18 29
ATOM     29   O  ASG B   2      16.490  48.174  72.9590  0.00  0.00     0.000 O
ATOM     30   O  ASG B   2      16.844  45.759  73.2450  0.00  0.00     0.000 OA
ATOM     31   O  ASG B   2      18.246  47.015  71.7120  0.00  0.00     0.000 OA
ATOM     32   O  ASG B   2      18.457  47.351  74.0970  0.00  0.00     0.000 OA
ATOM     33   S  ASG B   2      17.573  46.987  72.9900  0.00  0.00     0.000 S
ENDBRANCH 18 29
BRANCH 15 34
ATOM     34  O4  ASG B   3      13.345  51.470  73.6530  0.00  0.00     0.000 O
BRANCH 34 38
ATOM     35  C1  GCT B   3       9.398  51.420  72.7710  0.00  0.00     0.000 C
ATOM     36  C2  GCT B   3      10.130  52.638  72.2510  0.00  0.00     0.000 C
ATOM     37  C3  GCT B   3      11.632  52.397  72.2240  0.00  0.00     0.000 C
ATOM     38  C4  GCT B   3      12.117  52.081  73.6440  0.00  0.00     0.000 C
ATOM     39  C5  GCT B   3      11.061  51.299  74.4570  0.00  0.00     0.000 C
ATOM     40  O5  GCT B   3      10.275  50.585  73.5190  0.00  0.00     0.000 O
ATOM     41   O  GCT B   3       9.644  52.869  70.9360  0.00  0.00     0.000 O
ATOM     43  HD  GCT B   3       8.907  53.215  70.6420  0.00  0.00     0.000 HD
ATOM     43   O  GCT B   3      12.274  53.558  71.6570  0.00  0.00     0.000 O
ATOM     45  HD  GCT B   3      11.537  53.904  71.3630  0.00  0.00     0.000 HD
BRANCH 39 45
ATOM     45   C  GCT B   3      10.151  52.071  75.3870  0.00  0.00     0.000 C
ATOM     46   O  GCT B   3      10.245  53.338  75.4470  0.00  0.00     0.000 OA
ATOM     47   O  GCT B   3       9.326  51.428  76.0550  0.00  0.00     0.000 OA
ENDBRANCH 39 45
BRANCH 35 48
ATOM     48  O3  ASG B   4       8.149  51.741  73.0310  0.00  0.00     0.000 O
BRANCH 48 51
ATOM     49  C1  ASG B   4       5.196  49.991  71.6480  0.00  0.00     0.000 C
ATOM     50  C2  ASG B   4       6.322  51.028  71.8000  0.00  0.00     0.000 C
ATOM     51  C3  ASG B   4       7.332  50.596  72.8590  0.00  0.00     0.000 C
ATOM     52  C4  ASG B   4       6.639  50.200  74.1520  0.00  0.00     0.000 C
ATOM     53  C5  ASG B   4       5.592  49.139  73.8240  0.00  0.00     0.000 C
ATOM     54  O5  ASG B   4       4.625  49.697  72.9120  0.00  0.00     0.000 O
BRANCH 50 57
ATOM     55   N  ASG B   4       6.771  51.049  70.4260  0.00  0.00     0.000 N
ATOM     57  HD  ASG B   4       6.104  51.490  70.0940  0.00  0.00     0.000 HD
ATOM     57   O  ASG B   4       5.687  52.936  69.8980  0.00  0.00     0.000 OA
ATOM     58   C  ASG B   4       6.501  52.066  69.6030  0.00  0.00     0.000 C
ATOM     59   C  ASG B   4       7.214  52.040  68.2860  0.00  0.00     0.000 C
ENDBRANCH 50 57
BRANCH 52 60
ATOM     60   O  ASG B   4       6.082  51.483  74.6540  0.00  0.00     0.000 O
ATOM     61   O  ASG B   4       5.613  50.542  76.9180  0.00  0.00     0.000 OA
ATOM     62   O  ASG B   4       5.261  52.859  76.5020  0.00  0.00     0.000 OA
ATOM     63   O  ASG B   4       3.914  51.251  75.3540  0.00  0.00     0.000 OA
ATOM     64   S  ASG B   4       5.201  51.543  75.9920  0.00  0.00     0.000 S
ENDBRANCH 52 60
ATOM     65   O  ASG B   4       4.148  47.396  74.6930  0.00  0.00     0.000 O
ATOM     67  HD  ASG B   4       3.486  47.709  74.2310  0.00  0.00     0.000 HD
ATOM     67   O  ASG B   4       4.148  47.396  74.6930  0.00  0.00     0.000 O
ATOM     69  HD  ASG B   4       3.486  47.709  74.2310  0.00  0.00     0.000 HD
ENDBRANCH 48 51
ENDBRANCH 35 48
ENDBRANCH 34 38
ENDBRANCH 15 34
ENDBRANCH 14 17
ENDBRANCH 1 14
TORSDOF 12
ENDMDL
MODEL 40
REMARK VINA RESULT:      -7.4      4.064     11.334
ROOT
ATOM      1  C1  GAD B   1      19.684  39.960  34.8190  0.00  0.00     0.000 C
ATOM      2  C2  GAD B   1      20.422  41.093  35.5400  0.00  0.00     0.000 C
ATOM      3  C3  GAD B   1      21.137  40.549  36.7820  0.00  0.00     0.000 C
ATOM      4  C4  GAD B   1      20.428  39.373  37.4600  0.00  0.00     0.000 C
ATOM      5  C5  GAD B   1      19.352  38.741  36.9510  0.00  0.00     0.000 C
ATOM      6  O5  GAD B   1      18.818  39.244  35.7110  0.00  0.00     0.000 O
ATOM      7   O  GAD B   1      21.330  41.811  34.6250  0.00  0.00     0.000 O
ATOM      9  HD  GAD B   1      20.851  41.387  34.0420  0.00  0.00     0.000 HD
ATOM      9   O  GAD B   1      21.286  41.566  37.7970  0.00  0.00     0.000 O
ATOM     11  HD  GAD B   1      20.807  41.142  37.2140  0.00  0.00     0.000 HD
ENDROOT
BRANCH 5 11
ATOM     11   C  GAD B   1      18.723  37.537  37.5440  0.00  0.00     0.000 C
ATOM     12   O  GAD B   1      17.464  37.425  37.4170  0.00  0.00     0.000 OA
ATOM     13   O  GAD B   1      19.432  36.705  38.2200  0.00  0.00     0.000 OA
ENDBRANCH 5 11
BRANCH 1 14
ATOM     14  O3  ASG B   2      18.656  40.153  33.9710  0.00  0.00     0.000 O
BRANCH 14 17
ATOM     15  C1  ASG B   2      15.374  38.564  32.9810  0.00  0.00     0.000 C
ATOM     16  C2  ASG B   2      16.839  38.990  32.8160  0.00  0.00     0.000 C
ATOM     17  C3  ASG B   2      17.290  39.736  34.0750  0.00  0.00     0.000 C
ATOM     18  C4  ASG B   2      16.404  40.946  34.3060  0.00  0.00     0.000 C
ATOM     19  C5  ASG B   2      14.947  40.497  34.3400  0.00  0.00     0.000 C
ATOM     20  O5  ASG B   2      14.631  39.758  33.1430  0.00  0.00     0.000 O
ATOM     21   C  ASG B   2      13.989  41.644  34.3970  0.00  0.00     0.000 C
ATOM     22   O  ASG B   2      12.679  41.166  34.2110  0.00  0.00     0.000 O
ATOM     24  HD  ASG B   2      11.832  41.017  34.1130  0.00  0.00     0.000 HD
BRANCH 16 26
ATOM     24   N  ASG B   2      17.742  37.912  32.4840  0.00  0.00     0.000 N
ATOM     26  HD  ASG B   2      16.898  37.885  32.2910  0.00  0.00     0.000 HD
ATOM     26   C  ASG B   2      18.814  38.048  31.6810  0.00  0.00     0.000 C
ATOM     27   C  ASG B   2      19.810  36.941  31.7260  0.00  0.00     0.000 C
ATOM     28   O  ASG B   2      18.958  39.027  30.9590  0.00  0.00     0.000 OA
ENDBRANCH 16 26
BRANCH 18 29
ATOM     29   O  ASG B   2      16.687  41.884  33.2110  0.00  0.00     0.000 O
ATOM     30   O  ASG B   2      16.307  43.898  34.5690  0.00  0.00     0.000 OA
ATOM     31   O  ASG B   2      18.567  43.257  33.9570  0.00  0.00     0.000 OA
ATOM     32   O  ASG B   2      17.044  44.080  32.2700  0.00  0.00     0.000 OA
ATOM     33   S  ASG B   2      17.189  43.374  33.5430  0.00  0.00     0.000 S
ENDBRANCH 18 29
BRANCH 15 34
ATOM     34  O4  ASG B   3      14.864  37.867  31.8810  0.00  0.00     0.000 O
BRANCH 34 38
ATOM     35  C1  GCT B   3      11.612  37.334  29.5340  0.00  0.00     0.000 C
ATOM     36  C2  GCT B   3      12.741  38.086  28.8620  0.00  0.00     0.000 C
ATOM     37  C3  GCT B   3      14.051  37.875  29.6060  0.00  0.00     0.000 C
ATOM     38  C4  GCT B   3      13.898  38.373  31.0480  0.00  0.00     0.000 C
ATOM     39  C5  GCT B   3      12.470  38.144  31.5920  0.00  0.00     0.000 C
ATOM     40  O5  GCT B   3      11.941  37.035  30.8860  0.00  0.00     0.000 O
ATOM     41   O  GCT B   3      12.836  37.573  27.5410  0.00  0.00     0.000 O
ATOM     43  HD  GCT B   3      12.357  37.704  26.8310  0.00  0.00     0.000 HD
ATOM     43   O  GCT B   3      15.103  38.553  28.8870  0.00  0.00     0.000 O
ATOM     45  HD  GCT B   3      14.624  38.684  28.1770  0.00  0.00     0.000 HD
BRANCH 39 45
ATOM     45   C  GCT B   3      11.485  39.292  31.5310  0.00  0.00     0.000 C
ATOM     46   O  GCT B   3      11.885  40.443  31.1710  0.00  0.00     0.000 OA
ATOM     47   O  GCT B   3      10.302  39.055  31.8280  0.00  0.00     0.000 OA
ENDBRANCH 39 45
BRANCH 35 48
ATOM     48  O3  ASG B   4      10.463  37.739  29.0380  0.00  0.00     0.000 O
BRANCH 48 51
ATOM     49  C1  ASG B   4       8.724  34.666  27.9330  0.00  0.00     0.000 C
ATOM     50  C2  ASG B   4       9.818  35.739  28.0670  0.00  0.00     0.000 C
ATOM     51  C3  ASG B   4       9.502  36.711  29.2010  0.00  0.00     0.000 C
ATOM     52  C4  ASG B   4       8.083  37.245  29.0890  0.00  0.00     0.000 C
ATOM     53  C5  ASG B   4       7.133  36.053  29.0110  0.00  0.00     0.000 C
ATOM     54  O5  ASG B   4       7.446  35.275  27.8390  0.00  0.00     0.000 O
BRANCH 50 57
ATOM     55   N  ASG B   4      10.612  34.532  28.0490  0.00  0.00     0.000 N
ATOM     57  HD  ASG B   4      10.717  34.477  27.1910  0.00  0.00     0.000 HD
ATOM     57   O  ASG B   4      11.655  35.017  26.1270  0.00  0.00     0.000 OA
ATOM     58   C  ASG B   4      11.553  34.311  27.1260  0.00  0.00     0.000 C
ATOM     59   C  ASG B   4      12.431  33.122  27.3670  0.00  0.00     0.000 C
ENDBRANCH 50 57
BRANCH 52 60
ATOM     60   O  ASG B   4       8.124  38.084  27.8640  0.00  0.00     0.000 O
ATOM     61   O  ASG B   4       5.946  39.185  28.3910  0.00  0.00     0.000 OA
ATOM     62   O  ASG B   4       7.221  39.917  26.5190  0.00  0.00     0.000 OA
ATOM     63   O  ASG B   4       6.311  37.706  26.5160  0.00  0.00     0.000 OA
ATOM     64   S  ASG B   4       6.812  38.826  27.3180  0.00  0.00     0.000 S
ENDBRANCH 52 60
ATOM     65   O  ASG B   4       4.843  35.284  29.2220  0.00  0.00     0.000 O
ATOM     67  HD  ASG B   4       4.919  34.842  28.4820  0.00  0.00     0.000 HD
ATOM     67   O  ASG B   4       4.843  35.284  29.2220  0.00  0.00     0.000 O
ATOM     69  HD  ASG B   4       4.919  34.842  28.4820  0.00  0.00     0.000 HD
ENDBRANCH 48 51
ENDBRANCH 35 48
ENDBRANCH 34 38
ENDBRANCH 15 34
ENDBRANCH 14 17
ENDBRANCH 1 14
TORSDOF 12
ENDMDL
MODEL 41
REMARK VINA RESULT:      -7.4      4.199     11.444
ROOT
ATOM      1  C1  GAD B   1      18.565  38.677  35.8400  0.00  0.00     0.000 C
ATOM      2  C2  GAD B   1      18.287  37.372  36.5930  0.00  0.00     0.000 C
ATOM      3  C3  GAD B   1      19.501  36.987  37.4460  0.00  0.00     0.000 C
ATOM      4  C4  GAD B   1      20.851  37.406  36.8560  0.00  0.00     0.000 C
ATOM      5  C5  GAD B   1      20.993  38.184  35.7650  0.00  0.00     0.000 C
ATOM      6  O5  GAD B   1      19.790  38.604  35.0940  0.00  0.00     0.000 O
ATOM      7   O  GAD B   1      17.041  37.459  37.3780  0.00  0.00     0.000 O
ATOM      9  HD  GAD B   1      16.931  38.148  36.8640  0.00  0.00     0.000 HD
ATOM      9   O  GAD B   1      19.578  35.558  37.6470  0.00  0.00     0.000 O
ATOM     11  HD  GAD B   1      19.468  36.246  37.1330  0.00  0.00     0.000 HD
ENDROOT
BRANCH 5 11
ATOM     11   C  GAD B   1      22.289  38.682  35.2480  0.00  0.00     0.000 C
ATOM     12   O  GAD B   1      22.607  38.340  34.0670  0.00  0.00     0.000 OA
ATOM     13   O  GAD B   1      23.072  39.359  36.0110  0.00  0.00     0.000 OA
ENDBRANCH 5 11
BRANCH 1 14
ATOM     14  O3  ASG B   2      17.908  39.058  34.7290  0.00  0.00     0.000 O
BRANCH 14 17
ATOM     15  C1  ASG B   2      15.082  38.106  32.4080  0.00  0.00     0.000 C
ATOM     16  C2  ASG B   2      16.530  38.422  32.8100  0.00  0.00     0.000 C
ATOM     17  C3  ASG B   2      16.574  38.759  34.3030  0.00  0.00     0.000 C
ATOM     18  C4  ASG B   2      15.668  39.940  34.5940  0.00  0.00     0.000 C
ATOM     19  C5  ASG B   2      14.269  39.638  34.0680  0.00  0.00     0.000 C
ATOM     20  O5  ASG B   2      14.333  39.278  32.6740  0.00  0.00     0.000 O
ATOM     21   C  ASG B   2      13.348  40.812  34.1620  0.00  0.00     0.000 C
ATOM     22   O  ASG B   2      12.157  40.527  33.4710  0.00  0.00     0.000 O
ATOM     24  HD  ASG B   2      11.381  40.489  33.0900  0.00  0.00     0.000 HD
BRANCH 16 26
ATOM     24   N  ASG B   2      17.548  37.410  32.6470  0.00  0.00     0.000 N
ATOM     26  HD  ASG B   2      16.766  37.342  32.2820  0.00  0.00     0.000 HD
ATOM     26   C  ASG B   2      18.752  37.636  32.0900  0.00  0.00     0.000 C
ATOM     27   C  ASG B   2      19.785  36.585  32.3140  0.00  0.00     0.000 C
ATOM     28   O  ASG B   2      18.981  38.647  31.4390  0.00  0.00     0.000 OA
ENDBRANCH 16 26
BRANCH 18 29
ATOM     29   O  ASG B   2      16.282  41.106  33.9440  0.00  0.00     0.000 O
ATOM     30   O  ASG B   2      15.611  42.692  35.6980  0.00  0.00     0.000 OA
ATOM     31   O  ASG B   2      17.926  41.984  35.5260  0.00  0.00     0.000 OA
ATOM     32   O  ASG B   2      16.971  43.419  33.8310  0.00  0.00     0.000 OA
ATOM     33   S  ASG B   2      16.726  42.374  34.8250  0.00  0.00     0.000 S
ENDBRANCH 18 29
BRANCH 15 34
ATOM     34  O4  ASG B   3      14.933  37.779  31.0560  0.00  0.00     0.000 O
BRANCH 34 38
ATOM     35  C1  GCT B   3      11.473  36.807  29.1980  0.00  0.00     0.000 C
ATOM     36  C2  GCT B   3      12.453  37.558  28.3220  0.00  0.00     0.000 C
ATOM     37  C3  GCT B   3      13.856  37.507  28.9110  0.00  0.00     0.000 C
ATOM     38  C4  GCT B   3      13.839  38.136  30.3090  0.00  0.00     0.000 C
ATOM     39  C5  GCT B   3      12.507  37.872  31.0480  0.00  0.00     0.000 C
ATOM     40  O5  GCT B   3      11.983  36.667  30.5200  0.00  0.00     0.000 O
ATOM     41   O  GCT B   3      12.428  36.923  27.0520  0.00  0.00     0.000 O
ATOM     43  HD  GCT B   3      11.859  36.951  26.4000  0.00  0.00     0.000 HD
ATOM     43   O  GCT B   3      14.759  38.175  28.0060  0.00  0.00     0.000 O
ATOM     45  HD  GCT B   3      14.190  38.203  27.3530  0.00  0.00     0.000 HD
BRANCH 39 45
ATOM     45   C  GCT B   3      11.438  38.943  31.0080  0.00  0.00     0.000 C
ATOM     46   O  GCT B   3      10.337  38.752  31.6140  0.00  0.00     0.000 OA
ATOM     47   O  GCT B   3      11.689  39.987  30.3850  0.00  0.00     0.000 OA
ENDBRANCH 39 45
BRANCH 35 48
ATOM     48  O3  ASG B   4      10.246  37.086  28.8160  0.00  0.00     0.000 O
BRANCH 48 51
ATOM     49  C1  ASG B   4       8.496  33.884  28.2020  0.00  0.00     0.000 C
ATOM     50  C2  ASG B   4       9.537  35.010  28.0770  0.00  0.00     0.000 C
ATOM     51  C3  ASG B   4       9.389  36.027  29.2050  0.00  0.00     0.000 C
ATOM     52  C4  ASG B   4       7.948  36.490  29.3440  0.00  0.00     0.000 C
ATOM     53  C5  ASG B   4       7.066  35.255  29.5020  0.00  0.00     0.000 C
ATOM     54  O5  ASG B   4       7.193  34.430  28.3270  0.00  0.00     0.000 O
BRANCH 50 57
ATOM     55   N  ASG B   4      10.397  33.854  27.9690  0.00  0.00     0.000 N
ATOM     57  HD  ASG B   4      10.337  33.746  27.1110  0.00  0.00     0.000 HD
ATOM     57   O  ASG B   4      11.010  34.267  25.8550  0.00  0.00     0.000 OA
ATOM     58   C  ASG B   4      11.155  33.627  26.8910  0.00  0.00     0.000 C
ATOM     59   C  ASG B   4      12.146  32.511  27.0200  0.00  0.00     0.000 C
ENDBRANCH 50 57
BRANCH 52 60
ATOM     60   O  ASG B   4       7.711  37.264  28.0980  0.00  0.00     0.000 O
ATOM     61   O  ASG B   4       8.220  39.444  29.2020  0.00  0.00     0.000 OA
ATOM     62   O  ASG B   4       7.814  39.369  26.8570  0.00  0.00     0.000 OA
ATOM     63   O  ASG B   4       6.044  38.811  28.3640  0.00  0.00     0.000 OA
ATOM     64   S  ASG B   4       7.490  38.851  28.1310  0.00  0.00     0.000 S
ENDBRANCH 52 60
ATOM     65   O  ASG B   4       4.901  34.399  30.1820  0.00  0.00     0.000 O
ATOM     67  HD  ASG B   4       4.860  33.921  29.4610  0.00  0.00     0.000 HD
ATOM     67   O  ASG B   4       4.901  34.399  30.1820  0.00  0.00     0.000 O
ATOM     69  HD  ASG B   4       4.860  33.921  29.4610  0.00  0.00     0.000 HD
ENDBRANCH 48 51
ENDBRANCH 35 48
ENDBRANCH 34 38
ENDBRANCH 15 34
ENDBRANCH 14 17
ENDBRANCH 1 14
TORSDOF 12
ENDMDL
MODEL 42
REMARK VINA RESULT:      -7.4     24.820     29.533
ROOT
ATOM      1  C1  GAD B   1      10.126  61.360  50.2670  0.00  0.00     0.000 C
ATOM      2  C2  GAD B   1       9.946  62.707  50.9730  0.00  0.00     0.000 C
ATOM      3  C3  GAD B   1      10.354  62.589  52.4460  0.00  0.00     0.000 C
ATOM      4  C4  GAD B   1      10.095  61.214  53.0690  0.00  0.00     0.000 C
ATOM      5  C5  GAD B   1       9.692  60.130  52.3750  0.00  0.00     0.000 C
ATOM      6  O5  GAD B   1       9.450  60.304  50.9660  0.00  0.00     0.000 O
ATOM      7   O  GAD B   1      10.662  63.785  50.2660  0.00  0.00     0.000 O
ATOM      9  HD  GAD B   1      10.673  63.180  49.6460  0.00  0.00     0.000 HD
ATOM      9   O  GAD B   1       9.648  63.542  53.2720  0.00  0.00     0.000 O
ATOM     11  HD  GAD B   1       9.658  62.936  52.6520  0.00  0.00     0.000 HD
ENDROOT
BRANCH 5 11
ATOM     11   C  GAD B   1       9.541  58.772  52.9460  0.00  0.00     0.000 C
ATOM     12   O  GAD B   1      10.603  58.092  53.1040  0.00  0.00     0.000 OA
ATOM     13   O  GAD B   1       8.369  58.298  53.1850  0.00  0.00     0.000 OA
ENDBRANCH 5 11
BRANCH 1 14
ATOM     14  O3  ASG B   2       9.493  61.016  49.1300  0.00  0.00     0.000 O
BRANCH 14 17
ATOM     15  C1  ASG B   2       8.549  62.523  45.7950  0.00  0.00     0.000 C
ATOM     16  C2  ASG B   2       8.318  61.989  47.2160  0.00  0.00     0.000 C
ATOM     17  C3  ASG B   2       9.655  61.522  47.8000  0.00  0.00     0.000 C
ATOM     18  C4  ASG B   2      10.260  60.448  46.9160  0.00  0.00     0.000 C
ATOM     19  C5  ASG B   2      10.358  60.974  45.4880  0.00  0.00     0.000 C
ATOM     20  O5  ASG B   2       9.068  61.441  45.0450  0.00  0.00     0.000 O
ATOM     21   C  ASG B   2      10.789  59.926  44.5130  0.00  0.00     0.000 C
ATOM     22   O  ASG B   2      10.650  60.422  43.2040  0.00  0.00     0.000 O
ATOM     24  HD  ASG B   2      10.619  60.593  42.3560  0.00  0.00     0.000 HD
BRANCH 16 26
ATOM     24   N  ASG B   2       7.652  62.910  48.1070  0.00  0.00     0.000 N
ATOM     26  HD  ASG B   2       7.560  62.951  47.2460  0.00  0.00     0.000 HD
ATOM     26   C  ASG B   2       6.776  62.537  49.0580  0.00  0.00     0.000 C
ATOM     27   C  ASG B   2       6.456  63.562  50.0920  0.00  0.00     0.000 C
ATOM     28   O  ASG B   2       6.275  61.420  49.0700  0.00  0.00     0.000 OA
ENDBRANCH 16 26
BRANCH 18 29
ATOM     29   O  ASG B   2       9.387  59.272  47.0320  0.00  0.00     0.000 O
ATOM     30   O  ASG B   2      11.206  57.642  46.7570  0.00  0.00     0.000 OA
ATOM     31   O  ASG B   2      10.214  57.993  48.9450  0.00  0.00     0.000 OA
ATOM     32   O  ASG B   2       8.943  56.903  47.2010  0.00  0.00     0.000 OA
ATOM     33   S  ASG B   2       9.994  57.868  47.5230  0.00  0.00     0.000 S
ENDBRANCH 18 29
BRANCH 15 34
ATOM     34  O4  ASG B   3       7.384  62.982  45.1710  0.00  0.00     0.000 O
BRANCH 34 38
ATOM     35  C1  GCT B   3       6.016  64.413  41.6440  0.00  0.00     0.000 C
ATOM     36  C2  GCT B   3       5.423  63.078  42.0380  0.00  0.00     0.000 C
ATOM     37  C3  GCT B   3       5.626  62.813  43.5230  0.00  0.00     0.000 C
ATOM     38  C4  GCT B   3       7.128  62.812  43.8340  0.00  0.00     0.000 C
ATOM     39  C5  GCT B   3       7.903  63.816  42.9510  0.00  0.00     0.000 C
ATOM     40  O5  GCT B   3       6.985  64.836  42.5970  0.00  0.00     0.000 O
ATOM     41   O  GCT B   3       4.037  63.147  41.7360  0.00  0.00     0.000 O
ATOM     43  HD  GCT B   3       3.602  63.094  40.9880  0.00  0.00     0.000 HD
ATOM     43   O  GCT B   3       4.983  61.565  43.8600  0.00  0.00     0.000 O
ATOM     45  HD  GCT B   3       4.548  61.511  43.1130  0.00  0.00     0.000 HD
BRANCH 39 45
ATOM     45   C  GCT B   3       8.584  63.300  41.7030  0.00  0.00     0.000 C
ATOM     46   O  GCT B   3       9.040  64.125  40.8500  0.00  0.00     0.000 OA
ATOM     47   O  GCT B   3       8.684  62.069  41.5660  0.00  0.00     0.000 OA
ENDBRANCH 39 45
BRANCH 35 48
ATOM     48  O3  ASG B   4       6.063  64.497  40.3310  0.00  0.00     0.000 O
BRANCH 48 51
ATOM     49  C1  ASG B   4       4.331  67.395  38.8180  0.00  0.00     0.000 C
ATOM     50  C2  ASG B   4       4.544  66.030  39.4930  0.00  0.00     0.000 C
ATOM     51  C3  ASG B   4       5.989  65.861  39.9540  0.00  0.00     0.000 C
ATOM     52  C4  ASG B   4       6.965  66.188  38.8350  0.00  0.00     0.000 C
ATOM     53  C5  ASG B   4       6.639  67.585  38.3150  0.00  0.00     0.000 C
ATOM     54  O5  ASG B   4       5.294  67.594  37.7960  0.00  0.00     0.000 O
BRANCH 50 57
ATOM     55   N  ASG B   4       3.311  66.666  39.8980  0.00  0.00     0.000 N
ATOM     57  HD  ASG B   4       2.775  66.210  39.3930  0.00  0.00     0.000 HD
ATOM     57   O  ASG B   4       2.020  64.895  39.4390  0.00  0.00     0.000 OA
ATOM     58   C  ASG B   4       2.148  66.009  39.9380  0.00  0.00     0.000 C
ATOM     59   C  ASG B   4       1.011  66.742  40.5810  0.00  0.00     0.000 C
ENDBRANCH 50 57
BRANCH 52 60
ATOM     60   O  ASG B   4       6.746  65.096  37.8520  0.00  0.00     0.000 O
ATOM     61   O  ASG B   4       9.193  64.734  37.5160  0.00  0.00     0.000 OA
ATOM     62   O  ASG B   4       7.624  63.279  36.4710  0.00  0.00     0.000 OA
ATOM     63   O  ASG B   4       7.691  65.580  35.8230  0.00  0.00     0.000 OA
ATOM     64   S  ASG B   4       7.923  64.596  36.8850  0.00  0.00     0.000 S
ENDBRANCH 52 60
ATOM     65   O  ASG B   4       7.418  69.493  37.0370  0.00  0.00     0.000 O
ATOM     67  HD  ASG B   4       6.660  69.527  36.6190  0.00  0.00     0.000 HD
ATOM     67   O  ASG B   4       7.418  69.493  37.0370  0.00  0.00     0.000 O
ATOM     69  HD  ASG B   4       6.660  69.527  36.6190  0.00  0.00     0.000 HD
ENDBRANCH 48 51
ENDBRANCH 35 48
ENDBRANCH 34 38
ENDBRANCH 15 34
ENDBRANCH 14 17
ENDBRANCH 1 14
TORSDOF 12
ENDMDL
MODEL 43
REMARK VINA RESULT:      -7.4      7.831     12.191
ROOT
ATOM      1  C1  GAD B   1       7.804  29.639  27.5660  0.00  0.00     0.000 C
ATOM      2  C2  GAD B   1       7.329  28.429  26.7560  0.00  0.00     0.000 C
ATOM      3  C3  GAD B   1       8.291  27.252  26.9550  0.00  0.00     0.000 C
ATOM      4  C4  GAD B   1       9.750  27.656  27.1820  0.00  0.00     0.000 C
ATOM      5  C5  GAD B   1      10.168  28.925  27.3570  0.00  0.00     0.000 C
ATOM      6  O5  GAD B   1       9.173  29.963  27.2770  0.00  0.00     0.000 O
ATOM      7   O  GAD B   1       5.930  28.085  27.0740  0.00  0.00     0.000 O
ATOM      9  HD  GAD B   1       5.960  28.879  27.4190  0.00  0.00     0.000 HD
ATOM      9   O  GAD B   1       8.293  26.369  25.8110  0.00  0.00     0.000 O
ATOM     11  HD  GAD B   1       8.324  27.163  26.1560  0.00  0.00     0.000 HD
ENDROOT
BRANCH 5 11
ATOM     11   C  GAD B   1      11.559  29.317  27.6830  0.00  0.00     0.000 C
ATOM     12   O  GAD B   1      12.236  28.505  28.3870  0.00  0.00     0.000 OA
ATOM     13   O  GAD B   1      12.006  30.469  27.3260  0.00  0.00     0.000 OA
ENDBRANCH 5 11
BRANCH 1 14
ATOM     14  O3  ASG B   2       7.445  30.909  27.3000  0.00  0.00     0.000 O
BRANCH 14 17
ATOM     15  C1  ASG B   2       8.976  34.305  26.6630  0.00  0.00     0.000 C
ATOM     16  C2  ASG B   2       8.194  33.235  27.4380  0.00  0.00     0.000 C
ATOM     17  C3  ASG B   2       8.163  31.943  26.6160  0.00  0.00     0.000 C
ATOM     18  C4  ASG B   2       7.522  32.202  25.2660  0.00  0.00     0.000 C
ATOM     19  C5  ASG B   2       8.250  33.354  24.5820  0.00  0.00     0.000 C
ATOM     20  O5  ASG B   2       8.277  34.505  25.4490  0.00  0.00     0.000 O
ATOM     21   C  ASG B   2       7.583  33.790  23.3160  0.00  0.00     0.000 C
ATOM     22   O  ASG B   2       8.180  34.979  22.8610  0.00  0.00     0.000 O
ATOM     24  HD  ASG B   2       8.450  35.701  22.4660  0.00  0.00     0.000 HD
BRANCH 16 26
ATOM     24   N  ASG B   2       8.670  33.006  28.7820  0.00  0.00     0.000 N
ATOM     26  HD  ASG B   2       8.784  33.761  28.3740  0.00  0.00     0.000 HD
ATOM     26   C  ASG B   2       7.872  32.690  29.8190  0.00  0.00     0.000 C
ATOM     27   C  ASG B   2       8.555  32.159  31.0330  0.00  0.00     0.000 C
ATOM     28   O  ASG B   2       6.657  32.831  29.7640  0.00  0.00     0.000 OA
ENDBRANCH 16 26
BRANCH 18 29
ATOM     29   O  ASG B   2       6.107  32.496  25.5270  0.00  0.00     0.000 O
ATOM     30   O  ASG B   2       5.320  31.638  23.3620  0.00  0.00     0.000 OA
ATOM     31   O  ASG B   2       4.927  30.359  25.3870  0.00  0.00     0.000 OA
ATOM     32   O  ASG B   2       3.745  32.435  25.0190  0.00  0.00     0.000 OA
ATOM     33   S  ASG B   2       4.962  31.663  24.7670  0.00  0.00     0.000 S
ENDBRANCH 18 29
BRANCH 15 34
ATOM     34  O4  ASG B   3       9.068  35.529  27.3330  0.00  0.00     0.000 O
BRANCH 34 38
ATOM     35  C1  GCT B   3      11.288  37.875  29.7680  0.00  0.00     0.000 C
ATOM     36  C2  GCT B   3      11.352  38.268  28.3080  0.00  0.00     0.000 C
ATOM     37  C3  GCT B   3      10.195  37.657  27.5310  0.00  0.00     0.000 C
ATOM     38  C4  GCT B   3      10.261  36.129  27.6490  0.00  0.00     0.000 C
ATOM     39  C5  GCT B   3      10.805  35.676  29.0230  0.00  0.00     0.000 C
ATOM     40  O5  GCT B   3      10.492  36.708  29.9420  0.00  0.00     0.000 O
ATOM     41   O  GCT B   3      11.277  39.686  28.2690  0.00  0.00     0.000 O
ATOM     43  HD  GCT B   3      11.861  40.304  28.4370  0.00  0.00     0.000 HD
ATOM     43   O  GCT B   3      10.264  38.118  26.1660  0.00  0.00     0.000 O
ATOM     45  HD  GCT B   3      10.847  38.735  26.3330  0.00  0.00     0.000 HD
BRANCH 39 45
ATOM     45   C  GCT B   3      12.274  35.332  29.1370  0.00  0.00     0.000 C
ATOM     46   O  GCT B   3      12.733  34.900  30.2400  0.00  0.00     0.000 OA
ATOM     47   O  GCT B   3      12.981  35.476  28.1260  0.00  0.00     0.000 OA
ENDBRANCH 39 45
BRANCH 35 48
ATOM     48  O3  ASG B   4      12.424  38.190  30.3540  0.00  0.00     0.000 O
BRANCH 48 51
ATOM     49  C1  ASG B   4      11.300  40.228  33.2300  0.00  0.00     0.000 C
ATOM     50  C2  ASG B   4      11.437  39.719  31.7850  0.00  0.00     0.000 C
ATOM     51  C3  ASG B   4      12.189  38.392  31.7370  0.00  0.00     0.000 C
ATOM     52  C4  ASG B   4      13.489  38.467  32.5220  0.00  0.00     0.000 C
ATOM     53  C5  ASG B   4      13.163  38.943  33.9340  0.00  0.00     0.000 C
ATOM     54  O5  ASG B   4      12.568  40.254  33.8650  0.00  0.00     0.000 O
BRANCH 50 57
ATOM     55   N  ASG B   4      11.745  41.129  31.7250  0.00  0.00     0.000 N
ATOM     57  HD  ASG B   4      11.422  41.284  30.9370  0.00  0.00     0.000 HD
ATOM     57   O  ASG B   4      10.085  41.629  30.3080  0.00  0.00     0.000 OA
ATOM     58   C  ASG B   4      10.974  42.001  31.0680  0.00  0.00     0.000 C
ATOM     59   C  ASG B   4      11.305  43.446  31.2790  0.00  0.00     0.000 C
ENDBRANCH 50 57
BRANCH 52 60
ATOM     60   O  ASG B   4      14.320  39.408  31.7290  0.00  0.00     0.000 O
ATOM     61   O  ASG B   4      16.080  37.691  31.2970  0.00  0.00     0.000 OA
ATOM     62   O  ASG B   4      16.231  39.830  30.2600  0.00  0.00     0.000 OA
ATOM     63   O  ASG B   4      16.405  39.673  32.6400  0.00  0.00     0.000 OA
ATOM     64   S  ASG B   4      15.860  39.094  31.4080  0.00  0.00     0.000 S
ENDBRANCH 52 60
ATOM     65   O  ASG B   4      13.934  39.134  36.2260  0.00  0.00     0.000 O
ATOM     67  HD  ASG B   4      13.670  39.958  36.2490  0.00  0.00     0.000 HD
ATOM     67   O  ASG B   4      13.934  39.134  36.2260  0.00  0.00     0.000 O
ATOM     69  HD  ASG B   4      13.670  39.958  36.2490  0.00  0.00     0.000 HD
ENDBRANCH 48 51
ENDBRANCH 35 48
ENDBRANCH 34 38
ENDBRANCH 15 34
ENDBRANCH 14 17
ENDBRANCH 1 14
TORSDOF 12
ENDMDL
MODEL 44
REMARK VINA RESULT:      -7.4     23.907     28.949
ROOT
ATOM      1  C1  GAD B   1      19.927  29.504  61.8120  0.00  0.00     0.000 C
ATOM      2  C2  GAD B   1      19.933  30.948  62.3240  0.00  0.00     0.000 C
ATOM      3  C3  GAD B   1      18.818  31.145  63.3580  0.00  0.00     0.000 C
ATOM      4  C4  GAD B   1      17.571  30.289  63.1180  0.00  0.00     0.000 C
ATOM      5  C5  GAD B   1      17.484  29.320  62.1840  0.00  0.00     0.000 C
ATOM      6  O5  GAD B   1      18.629  29.120  61.3340  0.00  0.00     0.000 O
ATOM      7   O  GAD B   1      21.263  31.331  62.8370  0.00  0.00     0.000 O
ATOM      9  HD  GAD B   1      21.482  30.616  62.4000  0.00  0.00     0.000 HD
ATOM      9   O  GAD B   1      18.362  32.516  63.3930  0.00  0.00     0.000 O
ATOM     11  HD  GAD B   1      18.581  31.800  62.9560  0.00  0.00     0.000 HD
ENDROOT
BRANCH 5 11
ATOM     11   C  GAD B   1      16.323  28.416  62.0140  0.00  0.00     0.000 C
ATOM     12   O  GAD B   1      15.271  28.919  61.5090  0.00  0.00     0.000 OA
ATOM     13   O  GAD B   1      16.378  27.205  62.4430  0.00  0.00     0.000 OA
ENDBRANCH 5 11
BRANCH 1 14
ATOM     14  O3  ASG B   2      20.474  29.119  60.6430  0.00  0.00     0.000 O
BRANCH 14 17
ATOM     15  C1  ASG B   2      19.710  27.034  57.5860  0.00  0.00     0.000 C
ATOM     16  C2  ASG B   2      20.422  27.409  58.8930  0.00  0.00     0.000 C
ATOM     17  C3  ASG B   2      19.842  28.726  59.4190  0.00  0.00     0.000 C
ATOM     18  C4  ASG B   2      20.016  29.819  58.3830  0.00  0.00     0.000 C
ATOM     19  C5  ASG B   2      19.404  29.357  57.0640  0.00  0.00     0.000 C
ATOM     20  O5  ASG B   2      19.968  28.088  56.6770  0.00  0.00     0.000 O
ATOM     21   C  ASG B   2      19.674  30.302  55.9370  0.00  0.00     0.000 C
ATOM     22   O  ASG B   2      19.271  29.712  54.7260  0.00  0.00     0.000 O
ATOM     24  HD  ASG B   2      19.068  29.477  53.9180  0.00  0.00     0.000 HD
BRANCH 16 26
ATOM     24   N  ASG B   2      20.370  26.439  59.9620  0.00  0.00     0.000 N
ATOM     26  HD  ASG B   2      20.227  26.224  59.1350  0.00  0.00     0.000 HD
ATOM     26   C  ASG B   2      21.408  26.151  60.7690  0.00  0.00     0.000 C
ATOM     27   C  ASG B   2      21.083  25.395  62.0110  0.00  0.00     0.000 C
ATOM     28   O  ASG B   2      22.552  26.492  60.4940  0.00  0.00     0.000 OA
ENDBRANCH 16 26
BRANCH 18 29
ATOM     29   O  ASG B   2      21.459  30.075  58.2830  0.00  0.00     0.000 O
ATOM     30   O  ASG B   2      21.204  32.461  57.7470  0.00  0.00     0.000 OA
ATOM     31   O  ASG B   2      21.965  31.790  59.9520  0.00  0.00     0.000 OA
ATOM     32   O  ASG B   2      23.403  31.488  58.0330  0.00  0.00     0.000 OA
ATOM     33   S  ASG B   2      22.028  31.558  58.5280  0.00  0.00     0.000 S
ENDBRANCH 18 29
BRANCH 15 34
ATOM     34  O4  ASG B   3      20.164  25.837  57.0230  0.00  0.00     0.000 O
BRANCH 34 38
ATOM     35  C1  GCT B   3      19.854  21.882  56.2310  0.00  0.00     0.000 C
ATOM     36  C2  GCT B   3      18.663  22.696  55.7750  0.00  0.00     0.000 C
ATOM     37  C3  GCT B   3      19.016  24.175  55.6980  0.00  0.00     0.000 C
ATOM     38  C4  GCT B   3      19.462  24.660  57.0830  0.00  0.00     0.000 C
ATOM     39  C5  GCT B   3      20.214  23.561  57.8670  0.00  0.00     0.000 C
ATOM     40  O5  GCT B   3      20.801  22.705  56.9030  0.00  0.00     0.000 O
ATOM     41   O  GCT B   3      18.309  22.207  54.4900  0.00  0.00     0.000 O
ATOM     43  HD  GCT B   3      17.889  21.493  54.2360  0.00  0.00     0.000 HD
ATOM     43   O  GCT B   3      17.872  24.895  55.1930  0.00  0.00     0.000 O
ATOM     45  HD  GCT B   3      17.452  24.181  54.9390  0.00  0.00     0.000 HD
BRANCH 39 45
ATOM     45   C  GCT B   3      19.438  22.731  58.8660  0.00  0.00     0.000 C
ATOM     46   O  GCT B   3      18.184  22.902  58.9840  0.00  0.00     0.000 OA
ATOM     47   O  GCT B   3      20.066  21.892  59.5320  0.00  0.00     0.000 OA
ENDBRANCH 39 45
BRANCH 35 48
ATOM     48  O3  ASG B   4      19.457  20.666  56.5410  0.00  0.00     0.000 O
BRANCH 48 51
ATOM     49  C1  ASG B   4      21.883  18.815  54.4490  0.00  0.00     0.000 C
ATOM     50  C2  ASG B   4      20.879  19.895  54.8840  0.00  0.00     0.000 C
ATOM     51  C3  ASG B   4      20.540  19.769  56.3670  0.00  0.00     0.000 C
ATOM     52  C4  ASG B   4      20.151  18.343  56.7230  0.00  0.00     0.000 C
ATOM     53  C5  ASG B   4      21.272  17.416  56.2620  0.00  0.00     0.000 C
ATOM     54  O5  ASG B   4      21.421  17.530  54.8330  0.00  0.00     0.000 O
BRANCH 50 57
ATOM     55   N  ASG B   4      21.904  20.563  54.1150  0.00  0.00     0.000 N
ATOM     57  HD  ASG B   4      21.503  20.542  53.3480  0.00  0.00     0.000 HD
ATOM     57   O  ASG B   4      20.493  21.370  52.5740  0.00  0.00     0.000 OA
ATOM     58   C  ASG B   4      21.616  21.343  53.0680  0.00  0.00     0.000 C
ATOM     59   C  ASG B   4      22.762  22.131  52.5130  0.00  0.00     0.000 C
ENDBRANCH 50 57
BRANCH 52 60
ATOM     60   O  ASG B   4      18.858  18.149  56.0160  0.00  0.00     0.000 O
ATOM     61   O  ASG B   4      18.008  16.555  57.7390  0.00  0.00     0.000 OA
ATOM     62   O  ASG B   4      16.581  17.257  55.9670  0.00  0.00     0.000 OA
ATOM     63   O  ASG B   4      18.520  15.954  55.4560  0.00  0.00     0.000 OA
ATOM     64   S  ASG B   4      17.893  16.917  56.3660  0.00  0.00     0.000 S
ENDBRANCH 52 60
ATOM     65   O  ASG B   4      22.272  15.215  56.4480  0.00  0.00     0.000 O
ATOM     67  HD  ASG B   4      22.334  15.166  55.5860  0.00  0.00     0.000 HD
ATOM     67   O  ASG B   4      22.272  15.215  56.4480  0.00  0.00     0.000 O
ATOM     69  HD  ASG B   4      22.334  15.166  55.5860  0.00  0.00     0.000 HD
ENDBRANCH 48 51
ENDBRANCH 35 48
ENDBRANCH 34 38
ENDBRANCH 15 34
ENDBRANCH 14 17
ENDBRANCH 1 14
TORSDOF 12
ENDMDL
MODEL 45
REMARK VINA RESULT:      -7.3      7.310     10.763
ROOT
ATOM      1  C1  GAD B   1      18.224  28.423  33.0060  0.00  0.00     0.000 C
ATOM      2  C2  GAD B   1      17.534  28.235  31.6510  0.00  0.00     0.000 C
ATOM      3  C3  GAD B   1      16.020  28.425  31.8000  0.00  0.00     0.000 C
ATOM      4  C4  GAD B   1      15.456  27.991  33.1550  0.00  0.00     0.000 C
ATOM      5  C5  GAD B   1      16.211  27.619  34.2080  0.00  0.00     0.000 C
ATOM      6  O5  GAD B   1      17.638  27.588  34.0160  0.00  0.00     0.000 O
ATOM      7   O  GAD B   1      18.123  29.114  30.6220  0.00  0.00     0.000 O
ATOM      9  HD  GAD B   1      18.742  29.171  31.2250  0.00  0.00     0.000 HD
ATOM      9   O  GAD B   1      15.290  27.675  30.8030  0.00  0.00     0.000 O
ATOM     11  HD  GAD B   1      15.909  27.732  31.4060  0.00  0.00     0.000 HD
ENDROOT
BRANCH 5 11
ATOM     11   C  GAD B   1      15.682  27.300  35.5550  0.00  0.00     0.000 C
ATOM     12   O  GAD B   1      16.523  26.925  36.4290  0.00  0.00     0.000 OA
ATOM     13   O  GAD B   1      14.415  27.331  35.7750  0.00  0.00     0.000 OA
ENDBRANCH 5 11
BRANCH 1 14
ATOM     14  O3  ASG B   2      19.442  27.934  33.3040  0.00  0.00     0.000 O
BRANCH 14 17
ATOM     15  C1  ASG B   2      22.429  29.300  35.1720  0.00  0.00     0.000 C
ATOM     16  C2  ASG B   2      21.543  29.008  33.9530  0.00  0.00     0.000 C
ATOM     17  C3  ASG B   2      20.305  28.228  34.4080  0.00  0.00     0.000 C
ATOM     18  C4  ASG B   2      20.726  26.937  35.0850  0.00  0.00     0.000 C
ATOM     19  C5  ASG B   2      21.703  27.260  36.2110  0.00  0.00     0.000 C
ATOM     20  O5  ASG B   2      22.802  28.041  35.7010  0.00  0.00     0.000 O
ATOM     21   C  ASG B   2      22.300  26.037  36.8280  0.00  0.00     0.000 C
ATOM     22   O  ASG B   2      23.338  26.413  37.7000  0.00  0.00     0.000 O
ATOM     24  HD  ASG B   2      23.990  26.497  38.2630  0.00  0.00     0.000 HD
BRANCH 16 26
ATOM     24   N  ASG B   2      21.613  29.167  32.5190  0.00  0.00     0.000 N
ATOM     26  HD  ASG B   2      21.262  28.468  32.8900  0.00  0.00     0.000 HD
ATOM     26   C  ASG B   2      21.034  30.177  31.8440  0.00  0.00     0.000 C
ATOM     27   C  ASG B   2      21.490  30.374  30.4390  0.00  0.00     0.000 C
ATOM     28   O  ASG B   2      20.183  30.892  32.3600  0.00  0.00     0.000 OA
ENDBRANCH 16 26
BRANCH 18 29
ATOM     29   O  ASG B   2      21.320  26.093  34.0390  0.00  0.00     0.000 O
ATOM     30   O  ASG B   2      20.466  23.986  34.9740  0.00  0.00     0.000 OA
ATOM     31   O  ASG B   2      19.459  24.918  32.9720  0.00  0.00     0.000 OA
ATOM     32   O  ASG B   2      21.695  24.002  32.8870  0.00  0.00     0.000 OA
ATOM     33   S  ASG B   2      20.675  24.659  33.7060  0.00  0.00     0.000 S
ENDBRANCH 18 29
BRANCH 15 34
ATOM     34  O4  ASG B   3      23.590  30.017  34.8640  0.00  0.00     0.000 O
BRANCH 34 38
ATOM     35  C1  GCT B   3      22.514  33.904  35.1790  0.00  0.00     0.000 C
ATOM     36  C2  GCT B   3      23.927  33.694  34.6780  0.00  0.00     0.000 C
ATOM     37  C3  GCT B   3      24.118  32.271  34.1740  0.00  0.00     0.000 C
ATOM     38  C4  GCT B   3      23.833  31.289  35.3170  0.00  0.00     0.000 C
ATOM     39  C5  GCT B   3      22.722  31.803  36.2600  0.00  0.00     0.000 C
ATOM     40  O5  GCT B   3      21.899  32.658  35.4870  0.00  0.00     0.000 O
ATOM     41   O  GCT B   3      24.122  34.622  33.6210  0.00  0.00     0.000 O
ATOM     43  HD  GCT B   3      24.272  35.475  33.6170  0.00  0.00     0.000 HD
ATOM     43   O  GCT B   3      25.455  32.145  33.6460  0.00  0.00     0.000 O
ATOM     45  HD  GCT B   3      25.605  32.998  33.6420  0.00  0.00     0.000 HD
BRANCH 39 45
ATOM     45   C  GCT B   3      23.131  32.517  37.5310  0.00  0.00     0.000 C
ATOM     46   O  GCT B   3      22.236  32.960  38.3170  0.00  0.00     0.000 OA
ATOM     47   O  GCT B   3      24.345  32.631  37.7650  0.00  0.00     0.000 OA
ENDBRANCH 39 45
BRANCH 35 48
ATOM     48  O3  ASG B   4      22.452  35.038  35.8420  0.00  0.00     0.000 O
BRANCH 48 51
ATOM     49  C1  ASG B   4      20.269  37.872  34.8980  0.00  0.00     0.000 C
ATOM     50  C2  ASG B   4      21.516  36.977  34.9910  0.00  0.00     0.000 C
ATOM     51  C3  ASG B   4      21.182  35.630  35.6260  0.00  0.00     0.000 C
ATOM     52  C4  ASG B   4      20.416  35.809  36.9260  0.00  0.00     0.000 C
ATOM     53  C5  ASG B   4      19.195  36.679  36.6420  0.00  0.00     0.000 C
ATOM     54  O5  ASG B   4      19.634  37.966  36.1630  0.00  0.00     0.000 O
BRANCH 50 57
ATOM     55   N  ASG B   4      21.799  37.067  33.5770  0.00  0.00     0.000 N
ATOM     57  HD  ASG B   4      22.140  37.863  33.5780  0.00  0.00     0.000 HD
ATOM     57   O  ASG B   4      23.490  38.516  33.8100  0.00  0.00     0.000 OA
ATOM     58   C  ASG B   4      22.840  37.755  33.1000  0.00  0.00     0.000 C
ATOM     59   C  ASG B   4      23.122  37.574  31.6400  0.00  0.00     0.000 C
ENDBRANCH 50 57
BRANCH 52 60
ATOM     60   O  ASG B   4      21.416  36.424  37.8370  0.00  0.00     0.000 O
ATOM     61   O  ASG B   4      20.433  35.339  39.8580  0.00  0.00     0.000 OA
ATOM     62   O  ASG B   4      22.443  36.602  40.0500  0.00  0.00     0.000 OA
ATOM     63   O  ASG B   4      20.418  37.719  39.4410  0.00  0.00     0.000 OA
ATOM     64   S  ASG B   4      21.183  36.469  39.4220  0.00  0.00     0.000 S
ENDBRANCH 52 60
ATOM     65   O  ASG B   4      17.025  37.425  37.4250  0.00  0.00     0.000 O
ATOM     67  HD  ASG B   4      17.234  38.243  37.2340  0.00  0.00     0.000 HD
ATOM     67   O  ASG B   4      17.025  37.425  37.4250  0.00  0.00     0.000 O
ATOM     69  HD  ASG B   4      17.234  38.243  37.2340  0.00  0.00     0.000 HD
ENDBRANCH 48 51
ENDBRANCH 35 48
ENDBRANCH 34 38
ENDBRANCH 15 34
ENDBRANCH 14 17
ENDBRANCH 1 14
TORSDOF 12
ENDMDL
MODEL 46
REMARK VINA RESULT:      -7.2     16.760     21.112
ROOT
ATOM      1  C1  GAD B   1      25.164  50.128  45.7310  0.00  0.00     0.000 C
ATOM      2  C2  GAD B   1      25.899  51.121  46.6370  0.00  0.00     0.000 C
ATOM      3  C3  GAD B   1      27.392  50.777  46.6920  0.00  0.00     0.000 C
ATOM      4  C4  GAD B   1      27.705  49.284  46.5670  0.00  0.00     0.000 C
ATOM      5  C5  GAD B   1      26.791  48.339  46.2730  0.00  0.00     0.000 C
ATOM      6  O5  GAD B   1      25.425  48.770  46.1150  0.00  0.00     0.000 O
ATOM      7   O  GAD B   1      25.647  52.515  46.2230  0.00  0.00     0.000 O
ATOM      9  HD  GAD B   1      25.013  52.122  45.7840  0.00  0.00     0.000 HD
ATOM      9   O  GAD B   1      27.991  51.209  47.9350  0.00  0.00     0.000 O
ATOM     11  HD  GAD B   1      27.356  50.816  47.4950  0.00  0.00     0.000 HD
ENDROOT
BRANCH 5 11
ATOM     11   C  GAD B   1      27.100  46.908  46.0440  0.00  0.00     0.000 C
ATOM     12   O  GAD B   1      26.163  46.183  45.5850  0.00  0.00     0.000 OA
ATOM     13   O  GAD B   1      28.246  46.433  46.3820  0.00  0.00     0.000 OA
ENDBRANCH 5 11
BRANCH 1 14
ATOM     14  O3  ASG B   2      23.840  49.893  45.7920  0.00  0.00     0.000 O
BRANCH 14 17
ATOM     15  C1  ASG B   2      20.670  51.507  47.0680  0.00  0.00     0.000 C
ATOM     16  C2  ASG B   2      21.819  50.489  47.0370  0.00  0.00     0.000 C
ATOM     17  C3  ASG B   2      22.746  50.815  45.8620  0.00  0.00     0.000 C
ATOM     18  C4  ASG B   2      21.966  50.780  44.5610  0.00  0.00     0.000 C
ATOM     19  C5  ASG B   2      20.762  51.710  44.6770  0.00  0.00     0.000 C
ATOM     20  O5  ASG B   2      19.982  51.364  45.8390  0.00  0.00     0.000 O
ATOM     21   C  ASG B   2      19.841  51.615  43.5030  0.00  0.00     0.000 C
ATOM     22   O  ASG B   2      18.662  52.330  43.7770  0.00  0.00     0.000 O
ATOM     24  HD  ASG B   2      17.894  52.729  43.8060  0.00  0.00     0.000 HD
BRANCH 16 26
ATOM     24   N  ASG B   2      22.685  50.391  48.1900  0.00  0.00     0.000 N
ATOM     26  HD  ASG B   2      21.918  50.792  48.2200  0.00  0.00     0.000 HD
ATOM     26   C  ASG B   2      23.080  49.227  48.7370  0.00  0.00     0.000 C
ATOM     27   C  ASG B   2      24.225  49.305  49.6870  0.00  0.00     0.000 C
ATOM     28   O  ASG B   2      22.527  48.167  48.4670  0.00  0.00     0.000 OA
ENDBRANCH 16 26
BRANCH 18 29
ATOM     29   O  ASG B   2      21.584  49.379  44.3420  0.00  0.00     0.000 O
ATOM     30   O  ASG B   2      21.733  49.512  41.8910  0.00  0.00     0.000 OA
ATOM     31   O  ASG B   2      23.450  48.343  43.1470  0.00  0.00     0.000 OA
ATOM     32   O  ASG B   2      21.225  47.412  42.9850  0.00  0.00     0.000 OA
ATOM     33   S  ASG B   2      22.042  48.625  42.9980  0.00  0.00     0.000 S
ENDBRANCH 18 29
BRANCH 15 34
ATOM     34  O4  ASG B   3      19.764  51.299  48.1140  0.00  0.00     0.000 O
BRANCH 34 38
ATOM     35  C1  GCT B   3      18.792  52.369  51.8920  0.00  0.00     0.000 C
ATOM     36  C2  GCT B   3      17.848  52.905  50.8380  0.00  0.00     0.000 C
ATOM     37  C3  GCT B   3      17.997  52.134  49.5340  0.00  0.00     0.000 C
ATOM     38  C4  GCT B   3      19.442  52.264  49.0340  0.00  0.00     0.000 C
ATOM     39  C5  GCT B   3      20.454  52.331  50.2000  0.00  0.00     0.000 C
ATOM     40  O5  GCT B   3      19.862  51.648  51.2910  0.00  0.00     0.000 O
ATOM     41   O  GCT B   3      16.534  52.748  51.3550  0.00  0.00     0.000 O
ATOM     43  HD  GCT B   3      16.087  53.192  51.9490  0.00  0.00     0.000 HD
ATOM     43   O  GCT B   3      17.030  52.637  48.5890  0.00  0.00     0.000 O
ATOM     45  HD  GCT B   3      16.582  53.081  49.1820  0.00  0.00     0.000 HD
BRANCH 39 45
ATOM     45   C  GCT B   3      20.931  53.691  50.6610  0.00  0.00     0.000 C
ATOM     46   O  GCT B   3      20.468  54.738  50.1100  0.00  0.00     0.000 OA
ATOM     47   O  GCT B   3      21.761  53.730  51.5850  0.00  0.00     0.000 OA
ENDBRANCH 39 45
BRANCH 35 48
ATOM     48  O3  ASG B   4      18.834  53.208  52.9050  0.00  0.00     0.000 O
BRANCH 48 51
ATOM     49  C1  ASG B   4      17.819  53.135  56.4630  0.00  0.00     0.000 C
ATOM     50  C2  ASG B   4      18.079  53.670  55.0440  0.00  0.00     0.000 C
ATOM     51  C3  ASG B   4      18.404  52.536  54.0770  0.00  0.00     0.000 C
ATOM     52  C4  ASG B   4      19.490  51.631  54.6350  0.00  0.00     0.000 C
ATOM     53  C5  ASG B   4      19.049  51.159  56.0180  0.00  0.00     0.000 C
ATOM     54  O5  ASG B   4      18.890  52.304  56.8790  0.00  0.00     0.000 O
BRANCH 50 57
ATOM     55   N  ASG B   4      17.259  54.496  54.1870  0.00  0.00     0.000 N
ATOM     57  HD  ASG B   4      17.062  55.106  54.7700  0.00  0.00     0.000 HD
ATOM     57   O  ASG B   4      17.659  56.393  55.3080  0.00  0.00     0.000 OA
ATOM     58   C  ASG B   4      17.195  55.824  54.3250  0.00  0.00     0.000 C
ATOM     59   C  ASG B   4      16.478  56.554  53.2320  0.00  0.00     0.000 C
ENDBRANCH 50 57
BRANCH 52 60
ATOM     60   O  ASG B   4      20.698  52.495  54.6330  0.00  0.00     0.000 O
ATOM     61   O  ASG B   4      22.245  50.551  54.3910  0.00  0.00     0.000 OA
ATOM     62   O  ASG B   4      23.109  52.768  54.3210  0.00  0.00     0.000 OA
ATOM     63   O  ASG B   4      22.123  51.965  56.3460  0.00  0.00     0.000 OA
ATOM     64   S  ASG B   4      22.160  51.885  54.8830  0.00  0.00     0.000 S
ENDBRANCH 52 60
ATOM     65   O  ASG B   4      19.381  49.546  57.7980  0.00  0.00     0.000 O
ATOM     67  HD  ASG B   4      19.372  50.184  58.3830  0.00  0.00     0.000 HD
ATOM     67   O  ASG B   4      19.381  49.546  57.7980  0.00  0.00     0.000 O
ATOM     69  HD  ASG B   4      19.372  50.184  58.3830  0.00  0.00     0.000 HD
ENDBRANCH 48 51
ENDBRANCH 35 48
ENDBRANCH 34 38
ENDBRANCH 15 34
ENDBRANCH 14 17
ENDBRANCH 1 14
TORSDOF 12
ENDMDL
MODEL 47
REMARK VINA RESULT:      -7.2      5.391      9.141
ROOT
ATOM      1  C1  GAD B   1       8.375  34.469  26.8260  0.00  0.00     0.000 C
ATOM      2  C2  GAD B   1       9.021  33.210  27.4110  0.00  0.00     0.000 C
ATOM      3  C3  GAD B   1       8.521  31.966  26.6670  0.00  0.00     0.000 C
ATOM      4  C4  GAD B   1       7.085  32.072  26.1470  0.00  0.00     0.000 C
ATOM      5  C5  GAD B   1       6.347  33.199  26.1800  0.00  0.00     0.000 C
ATOM      6  O5  GAD B   1       6.944  34.359  26.7900  0.00  0.00     0.000 O
ATOM      7   O  GAD B   1      10.493  33.316  27.4230  0.00  0.00     0.000 O
ATOM      9  HD  GAD B   1      10.293  34.149  27.2910  0.00  0.00     0.000 HD
ATOM      9   O  GAD B   1       8.557  30.793  27.5100  0.00  0.00     0.000 O
ATOM     11  HD  GAD B   1       8.357  31.625  27.3770  0.00  0.00     0.000 HD
ENDROOT
BRANCH 5 11
ATOM     11   C  GAD B   1       4.997  33.341  25.5850  0.00  0.00     0.000 C
ATOM     12   O  GAD B   1       4.813  34.328  24.8060  0.00  0.00     0.000 OA
ATOM     13   O  GAD B   1       4.054  32.536  25.9240  0.00  0.00     0.000 OA
ENDBRANCH 5 11
BRANCH 1 14
ATOM     14  O3  ASG B   2       8.272  35.637  27.4860  0.00  0.00     0.000 O
BRANCH 14 17
ATOM     15  C1  ASG B   2      10.419  37.812  29.7090  0.00  0.00     0.000 C
ATOM     16  C2  ASG B   2       9.313  36.802  29.3690  0.00  0.00     0.000 C
ATOM     17  C3  ASG B   2       9.288  36.577  27.8540  0.00  0.00     0.000 C
ATOM     18  C4  ASG B   2       9.049  37.893  27.1380  0.00  0.00     0.000 C
ATOM     19  C5  ASG B   2      10.094  38.906  27.5970  0.00  0.00     0.000 C
ATOM     20  O5  ASG B   2      10.082  39.010  29.0340  0.00  0.00     0.000 O
ATOM     21   C  ASG B   2       9.837  40.281  27.0690  0.00  0.00     0.000 C
ATOM     22   O  ASG B   2      10.705  41.191  27.6990  0.00  0.00     0.000 O
ATOM     24  HD  ASG B   2      11.173  41.855  27.9990  0.00  0.00     0.000 HD
BRANCH 16 26
ATOM     24   N  ASG B   2       9.398  35.574  30.1250  0.00  0.00     0.000 N
ATOM     26  HD  ASG B   2       9.695  36.328  30.4320  0.00  0.00     0.000 HD
ATOM     26   C  ASG B   2       8.330  34.844  30.4970  0.00  0.00     0.000 C
ATOM     27   C  ASG B   2       8.615  33.456  30.9600  0.00  0.00     0.000 C
ATOM     28   O  ASG B   2       7.193  35.297  30.4540  0.00  0.00     0.000 OA
ENDBRANCH 16 26
BRANCH 18 29
ATOM     29   O  ASG B   2       7.677  38.302  27.4640  0.00  0.00     0.000 O
ATOM     30   O  ASG B   2       7.311  39.488  25.3420  0.00  0.00     0.000 OA
ATOM     31   O  ASG B   2       6.247  37.340  25.7290  0.00  0.00     0.000 OA
ATOM     32   O  ASG B   2       5.527  39.288  26.9680  0.00  0.00     0.000 OA
ATOM     33   S  ASG B   2       6.633  38.617  26.2840  0.00  0.00     0.000 S
ENDBRANCH 18 29
BRANCH 15 34
ATOM     34  O4  ASG B   3      10.530  38.085  31.0760  0.00  0.00     0.000 O
BRANCH 34 38
ATOM     35  C1  GCT B   3      14.089  39.003  32.7650  0.00  0.00     0.000 C
ATOM     36  C2  GCT B   3      12.893  39.552  33.5120  0.00  0.00     0.000 C
ATOM     37  C3  GCT B   3      11.618  38.829  33.1000  0.00  0.00     0.000 C
ATOM     38  C4  GCT B   3      11.401  39.010  31.5930  0.00  0.00     0.000 C
ATOM     39  C5  GCT B   3      12.737  39.061  30.8170  0.00  0.00     0.000 C
ATOM     40  O5  GCT B   3      13.678  38.327  31.5820  0.00  0.00     0.000 O
ATOM     41   O  GCT B   3      13.151  39.347  34.8940  0.00  0.00     0.000 O
ATOM     43  HD  GCT B   3      13.663  39.760  35.4570  0.00  0.00     0.000 HD
ATOM     43   O  GCT B   3      10.524  39.341  33.8890  0.00  0.00     0.000 O
ATOM     45  HD  GCT B   3      11.036  39.755  34.4520  0.00  0.00     0.000 HD
BRANCH 39 45
ATOM     45   C  GCT B   3      13.319  40.415  30.4740  0.00  0.00     0.000 C
ATOM     46   O  GCT B   3      12.705  41.470  30.8310  0.00  0.00     0.000 OA
ATOM     47   O  GCT B   3      14.397  40.442  29.8590  0.00  0.00     0.000 OA
ENDBRANCH 39 45
BRANCH 35 48
ATOM     48  O3  ASG B   4      15.116  39.807  32.9380  0.00  0.00     0.000 O
BRANCH 48 51
ATOM     49  C1  ASG B   4      18.314  39.712  34.7960  0.00  0.00     0.000 C
ATOM     50  C2  ASG B   4      17.080  40.275  34.0700  0.00  0.00     0.000 C
ATOM     51  C3  ASG B   4      16.055  39.179  33.7940  0.00  0.00     0.000 C
ATOM     52  C4  ASG B   4      16.702  37.974  33.1300  0.00  0.00     0.000 C
ATOM     53  C5  ASG B   4      17.871  37.524  34.0020  0.00  0.00     0.000 C
ATOM     54  O5  ASG B   4      18.831  38.594  34.0930  0.00  0.00     0.000 O
BRANCH 50 57
ATOM     55   N  ASG B   4      16.767  41.283  35.0560  0.00  0.00     0.000 N
ATOM     57  HD  ASG B   4      17.398  41.841  34.8550  0.00  0.00     0.000 HD
ATOM     57   O  ASG B   4      17.636  42.979  33.8810  0.00  0.00     0.000 OA
ATOM     58   C  ASG B   4      16.977  42.585  34.8380  0.00  0.00     0.000 C
ATOM     59   C  ASG B   4      16.403  43.515  35.8620  0.00  0.00     0.000 C
ENDBRANCH 50 57
BRANCH 52 60
ATOM     60   O  ASG B   4      17.091  38.482  31.7900  0.00  0.00     0.000 O
ATOM     61   O  ASG B   4      16.159  36.484  30.6200  0.00  0.00     0.000 OA
ATOM     62   O  ASG B   4      17.009  38.311  29.3510  0.00  0.00     0.000 OA
ATOM     63   O  ASG B   4      18.508  37.041  30.7140  0.00  0.00     0.000 OA
ATOM     64   S  ASG B   4      17.136  37.515  30.5120  0.00  0.00     0.000 S
ENDBRANCH 52 60
ATOM     65   O  ASG B   4      19.427  35.738  34.5200  0.00  0.00     0.000 O
ATOM     67  HD  ASG B   4      20.082  36.305  34.5230  0.00  0.00     0.000 HD
ATOM     67   O  ASG B   4      19.427  35.738  34.5200  0.00  0.00     0.000 O
ATOM     69  HD  ASG B   4      20.082  36.305  34.5230  0.00  0.00     0.000 HD
ENDBRANCH 48 51
ENDBRANCH 35 48
ENDBRANCH 34 38
ENDBRANCH 15 34
ENDBRANCH 14 17
ENDBRANCH 1 14
TORSDOF 12
ENDMDL
MODEL 48
REMARK VINA RESULT:      -7.2     23.281     27.265
ROOT
ATOM      1  C1  GAD B   1      21.447  51.873  50.9990  0.00  0.00     0.000 C
ATOM      2  C2  GAD B   1      22.187  50.565  50.6990  0.00  0.00     0.000 C
ATOM      3  C3  GAD B   1      22.201  50.302  49.1890  0.00  0.00     0.000 C
ATOM      4  C4  GAD B   1      20.969  50.821  48.4420  0.00  0.00     0.000 C
ATOM      5  C5  GAD B   1      20.010  51.586  49.0000  0.00  0.00     0.000 C
ATOM      6  O5  GAD B   1      20.142  51.888  50.4020  0.00  0.00     0.000 O
ATOM      7   O  GAD B   1      23.538  50.563  51.2930  0.00  0.00     0.000 O
ATOM      9  HD  GAD B   1      23.195  51.229  51.7280  0.00  0.00     0.000 HD
ATOM      9   O  GAD B   1      22.281  48.889  48.8970  0.00  0.00     0.000 O
ATOM     11  HD  GAD B   1      21.938  49.555  49.3310  0.00  0.00     0.000 HD
ENDROOT
BRANCH 5 11
ATOM     11   C  GAD B   1      18.871  52.181  48.2630  0.00  0.00     0.000 C
ATOM     12   O  GAD B   1      18.812  53.449  48.2210  0.00  0.00     0.000 OA
ATOM     13   O  GAD B   1      17.955  51.425  47.7690  0.00  0.00     0.000 OA
ENDBRANCH 5 11
BRANCH 1 14
ATOM     14  O3  ASG B   2      20.907  52.174  52.1950  0.00  0.00     0.000 O
BRANCH 14 17
ATOM     15  C1  ASG B   2      19.500  50.921  55.4700  0.00  0.00     0.000 C
ATOM     16  C2  ASG B   2      19.588  51.814  54.2240  0.00  0.00     0.000 C
ATOM     17  C3  ASG B   2      20.784  51.372  53.3750  0.00  0.00     0.000 C
ATOM     18  C4  ASG B   2      22.060  51.463  54.1890  0.00  0.00     0.000 C
ATOM     19  C5  ASG B   2      21.887  50.665  55.4780  0.00  0.00     0.000 C
ATOM     20  O5  ASG B   2      20.710  51.112  56.1800  0.00  0.00     0.000 O
ATOM     21   C  ASG B   2      23.034  50.834  56.4220  0.00  0.00     0.000 C
ATOM     22   O  ASG B   2      22.709  50.249  57.6590  0.00  0.00     0.000 O
ATOM     24  HD  ASG B   2      22.648  49.933  58.4630  0.00  0.00     0.000 HD
BRANCH 16 26
ATOM     24   N  ASG B   2      18.430  51.850  53.3610  0.00  0.00     0.000 N
ATOM     26  HD  ASG B   2      18.386  51.581  54.1830  0.00  0.00     0.000 HD
ATOM     26   C  ASG B   2      17.955  52.970  52.7850  0.00  0.00     0.000 C
ATOM     27   C  ASG B   2      16.983  52.774  51.6730  0.00  0.00     0.000 C
ATOM     28   O  ASG B   2      18.305  54.083  53.1570  0.00  0.00     0.000 OA
ENDBRANCH 16 26
BRANCH 18 29
ATOM     29   O  ASG B   2      22.299  52.893  54.4310  0.00  0.00     0.000 O
ATOM     30   O  ASG B   2      24.747  52.680  54.4930  0.00  0.00     0.000 OA
ATOM     31   O  ASG B   2      23.666  53.683  52.5640  0.00  0.00     0.000 OA
ATOM     32   O  ASG B   2      23.691  54.852  54.6800  0.00  0.00     0.000 OA
ATOM     33   S  ASG B   2      23.698  53.555  54.0020  0.00  0.00     0.000 S
ENDBRANCH 18 29
BRANCH 15 34
ATOM     34  O4  ASG B   3      18.432  51.241  56.3150  0.00  0.00     0.000 O
BRANCH 34 38
ATOM     35  C1  GCT B   3      16.933  53.324  59.4410  0.00  0.00     0.000 C
ATOM     36  C2  GCT B   3      18.222  53.890  58.8860  0.00  0.00     0.000 C
ATOM     37  C3  GCT B   3      18.491  53.352  57.4880  0.00  0.00     0.000 C
ATOM     38  C4  GCT B   3      18.592  51.823  57.5470  0.00  0.00     0.000 C
ATOM     39  C5  GCT B   3      17.648  51.220  58.6130  0.00  0.00     0.000 C
ATOM     40  O5  GCT B   3      16.571  52.129  58.7590  0.00  0.00     0.000 O
ATOM     41   O  GCT B   3      18.060  55.300  58.8480  0.00  0.00     0.000 O
ATOM     43  HD  GCT B   3      18.089  55.905  59.4670  0.00  0.00     0.000 HD
ATOM     43   O  GCT B   3      19.690  53.973  56.9790  0.00  0.00     0.000 O
ATOM     45  HD  GCT B   3      19.719  54.578  57.5980  0.00  0.00     0.000 HD
BRANCH 39 45
ATOM     45   C  GCT B   3      18.217  50.895  59.9760  0.00  0.00     0.000 C
ATOM     46   O  GCT B   3      19.432  51.169  60.2310  0.00  0.00     0.000 OA
ATOM     47   O  GCT B   3      17.458  50.377  60.8110  0.00  0.00     0.000 OA
ENDBRANCH 39 45
BRANCH 35 48
ATOM     48  O3  ASG B   4      16.860  53.590  60.7280  0.00  0.00     0.000 O
BRANCH 48 51
ATOM     49  C1  ASG B   4      14.084  55.915  61.4890  0.00  0.00     0.000 C
ATOM     50  C2  ASG B   4      15.418  55.390  60.9310  0.00  0.00     0.000 C
ATOM     51  C3  ASG B   4      15.513  53.873  61.0650  0.00  0.00     0.000 C
ATOM     52  C4  ASG B   4      15.181  53.423  62.4790  0.00  0.00     0.000 C
ATOM     53  C5  ASG B   4      13.816  53.994  62.8500  0.00  0.00     0.000 C
ATOM     54  O5  ASG B   4      13.878  55.433  62.8070  0.00  0.00     0.000 O
BRANCH 50 57
ATOM     55   N  ASG B   4      14.857  56.344  60.0020  0.00  0.00     0.000 N
ATOM     57  HD  ASG B   4      15.308  57.036  60.2620  0.00  0.00     0.000 HD
ATOM     57   O  ASG B   4      16.656  57.678  59.9870  0.00  0.00     0.000 OA
ATOM     58   C  ASG B   4      15.565  57.368  59.5170  0.00  0.00     0.000 C
ATOM     59   C  ASG B   4      14.916  58.136  58.4070  0.00  0.00     0.000 C
ENDBRANCH 50 57
BRANCH 52 60
ATOM     60   O  ASG B   4      16.312  53.951  63.2860  0.00  0.00     0.000 O
ATOM     61   O  ASG B   4      17.169  51.667  63.8140  0.00  0.00     0.000 OA
ATOM     62   O  ASG B   4      18.403  53.584  64.5010  0.00  0.00     0.000 OA
ATOM     63   O  ASG B   4      16.241  53.189  65.4440  0.00  0.00     0.000 OA
ATOM     64   S  ASG B   4      17.129  53.008  64.2920  0.00  0.00     0.000 S
ENDBRANCH 52 60
ATOM     65   O  ASG B   4      11.919  53.865  64.3560  0.00  0.00     0.000 O
ATOM     67  HD  ASG B   4      11.929  54.726  64.4470  0.00  0.00     0.000 HD
ATOM     67   O  ASG B   4      11.919  53.865  64.3560  0.00  0.00     0.000 O
ATOM     69  HD  ASG B   4      11.929  54.726  64.4470  0.00  0.00     0.000 HD
ENDBRANCH 48 51
ENDBRANCH 35 48
ENDBRANCH 34 38
ENDBRANCH 15 34
ENDBRANCH 14 17
ENDBRANCH 1 14
TORSDOF 12
ENDMDL
MODEL 49
REMARK VINA RESULT:      -7.2      2.481     10.064
ROOT
ATOM      1  C1  GAD B   1      19.880  38.823  37.8320  0.00  0.00     0.000 C
ATOM      2  C2  GAD B   1      19.200  37.589  38.4330  0.00  0.00     0.000 C
ATOM      3  C3  GAD B   1      19.445  37.536  39.9450  0.00  0.00     0.000 C
ATOM      4  C4  GAD B   1      20.789  38.118  40.3910  0.00  0.00     0.000 C
ATOM      5  C5  GAD B   1      21.640  38.774  39.5770  0.00  0.00     0.000 C
ATOM      6  O5  GAD B   1      21.269  38.885  38.1900  0.00  0.00     0.000 O
ATOM      7   O  GAD B   1      17.767  37.542  38.0840  0.00  0.00     0.000 O
ATOM      9  HD  GAD B   1      18.032  38.133  37.5090  0.00  0.00     0.000 HD
ATOM      9   O  GAD B   1      19.413  36.179  40.4410  0.00  0.00     0.000 O
ATOM     11  HD  GAD B   1      19.678  36.769  39.8660  0.00  0.00     0.000 HD
ENDROOT
BRANCH 5 11
ATOM     11   C  GAD B   1      22.891  39.433  40.0190  0.00  0.00     0.000 C
ATOM     12   O  GAD B   1      23.866  38.676  40.3190  0.00  0.00     0.000 OA
ATOM     13   O  GAD B   1      22.932  40.711  40.1630  0.00  0.00     0.000 OA
ENDBRANCH 5 11
BRANCH 1 14
ATOM     14  O3  ASG B   2      20.207  38.943  36.5320  0.00  0.00     0.000 O
BRANCH 14 17
ATOM     15  C1  ASG B   2      18.593  39.393  33.1450  0.00  0.00     0.000 C
ATOM     16  C2  ASG B   2      19.356  38.657  34.2550  0.00  0.00     0.000 C
ATOM     17  C3  ASG B   2      19.502  39.586  35.4640  0.00  0.00     0.000 C
ATOM     18  C4  ASG B   2      20.235  40.851  35.0590  0.00  0.00     0.000 C
ATOM     19  C5  ASG B   2      19.516  41.486  33.8730  0.00  0.00     0.000 C
ATOM     20  O5  ASG B   2      19.375  40.524  32.8090  0.00  0.00     0.000 O
ATOM     21   C  ASG B   2      20.260  42.649  33.2990  0.00  0.00     0.000 C
ATOM     22   O  ASG B   2      19.652  43.042  32.0930  0.00  0.00     0.000 O
ATOM     24  HD  ASG B   2      19.385  43.391  31.3470  0.00  0.00     0.000 HD
BRANCH 16 26
ATOM     24   N  ASG B   2      20.082  37.437  34.5270  0.00  0.00     0.000 N
ATOM     26  HD  ASG B   2      20.269  38.184  34.9220  0.00  0.00     0.000 HD
ATOM     26   C  ASG B   2      19.515  36.316  35.0090  0.00  0.00     0.000 C
ATOM     27   C  ASG B   2      20.329  35.072  34.9030  0.00  0.00     0.000 C
ATOM     28   O  ASG B   2      18.395  36.322  35.5050  0.00  0.00     0.000 OA
ENDBRANCH 16 26
BRANCH 18 29
ATOM     29   O  ASG B   2      21.613  40.452  34.7430  0.00  0.00     0.000 O
ATOM     30   O  ASG B   2      22.583  42.651  35.2590  0.00  0.00     0.000 OA
ATOM     31   O  ASG B   2      22.909  40.794  36.7880  0.00  0.00     0.000 OA
ATOM     32   O  ASG B   2      24.003  40.792  34.6320  0.00  0.00     0.000 OA
ATOM     33   S  ASG B   2      22.847  41.233  35.4140  0.00  0.00     0.000 S
ENDBRANCH 18 29
BRANCH 15 34
ATOM     34  O4  ASG B   3      18.401  38.625  31.9920  0.00  0.00     0.000 O
BRANCH 34 38
ATOM     35  C1  GCT B   3      14.716  40.103  31.2180  0.00  0.00     0.000 C
ATOM     36  C2  GCT B   3      14.729  38.628  31.5560  0.00  0.00     0.000 C
ATOM     37  C3  GCT B   3      16.029  38.242  32.2470  0.00  0.00     0.000 C
ATOM     38  C4  GCT B   3      17.207  38.561  31.3180  0.00  0.00     0.000 C
ATOM     39  C5  GCT B   3      16.945  39.818  30.4590  0.00  0.00     0.000 C
ATOM     40  O5  GCT B   3      16.039  40.626  31.1910  0.00  0.00     0.000 O
ATOM     41   O  GCT B   3      13.625  38.403  32.4220  0.00  0.00     0.000 O
ATOM     43  HD  GCT B   3      12.775  38.337  32.2730  0.00  0.00     0.000 HD
ATOM     43   O  GCT B   3      15.961  36.847  32.6080  0.00  0.00     0.000 O
ATOM     45  HD  GCT B   3      15.110  36.781  32.4600  0.00  0.00     0.000 HD
BRANCH 39 45
ATOM     45   C  GCT B   3      16.424  39.632  29.0510  0.00  0.00     0.000 C
ATOM     46   O  GCT B   3      16.192  38.460  28.6180  0.00  0.00     0.000 OA
ATOM     47   O  GCT B   3      16.227  40.651  28.3680  0.00  0.00     0.000 OA
ENDBRANCH 39 45
BRANCH 35 48
ATOM     48  O3  ASG B   4      13.716  40.353  30.4000  0.00  0.00     0.000 O
BRANCH 48 51
ATOM     49  C1  ASG B   4      12.095  43.197  32.1240  0.00  0.00     0.000 C
ATOM     50  C2  ASG B   4      12.760  41.827  31.9070  0.00  0.00     0.000 C
ATOM     51  C3  ASG B   4      13.362  41.721  30.5090  0.00  0.00     0.000 C
ATOM     52  C4  ASG B   4      12.356  42.127  29.4440  0.00  0.00     0.000 C
ATOM     53  C5  ASG B   4      11.834  43.519  29.7900  0.00  0.00     0.000 C
ATOM     54  O5  ASG B   4      11.182  43.472  31.0740  0.00  0.00     0.000 O
BRANCH 50 57
ATOM     55   N  ASG B   4      13.499  42.099  33.1180  0.00  0.00     0.000 N
ATOM     57  HD  ASG B   4      12.892  41.848  33.6820  0.00  0.00     0.000 HD
ATOM     57   O  ASG B   4      12.425  40.567  34.3480  0.00  0.00     0.000 OA
ATOM     58   C  ASG B   4      13.345  41.370  34.2270  0.00  0.00     0.000 C
ATOM     59   C  ASG B   4      14.332  41.638  35.3220  0.00  0.00     0.000 C
ENDBRANCH 50 57
BRANCH 52 60
ATOM     60   O  ASG B   4      11.333  41.051  29.5040  0.00  0.00     0.000 O
ATOM     61   O  ASG B   4      11.427  40.647  27.0430  0.00  0.00     0.000 OA
ATOM     62   O  ASG B   4      10.099  39.235  28.4260  0.00  0.00     0.000 OA
ATOM     63   O  ASG B   4       9.509  41.542  28.2080  0.00  0.00     0.000 OA
ATOM     64   S  ASG B   4      10.580  40.542  28.1830  0.00  0.00     0.000 S
ENDBRANCH 52 60
ATOM     65   O  ASG B   4      10.683  45.497  28.9890  0.00  0.00     0.000 O
ATOM     67  HD  ASG B   4      10.191  45.503  29.7020  0.00  0.00     0.000 HD
ATOM     67   O  ASG B   4      10.683  45.497  28.9890  0.00  0.00     0.000 O
ATOM     69  HD  ASG B   4      10.191  45.503  29.7020  0.00  0.00     0.000 HD
ENDBRANCH 48 51
ENDBRANCH 35 48
ENDBRANCH 34 38
ENDBRANCH 15 34
ENDBRANCH 14 17
ENDBRANCH 1 14
TORSDOF 12
ENDMDL
MODEL 50
REMARK VINA RESULT:      -7.2     21.881     27.591
ROOT
ATOM      1  C1  GAD B   1      21.816  28.479  54.6330  0.00  0.00     0.000 C
ATOM      2  C2  GAD B   1      21.167  29.571  53.7780  0.00  0.00     0.000 C
ATOM      3  C3  GAD B   1      20.317  30.495  54.6590  0.00  0.00     0.000 C
ATOM      4  C4  GAD B   1      19.672  29.806  55.8650  0.00  0.00     0.000 C
ATOM      5  C5  GAD B   1      19.932  28.539  56.2430  0.00  0.00     0.000 C
ATOM      6  O5  GAD B   1      20.842  27.780  55.4230  0.00  0.00     0.000 O
ATOM      7   O  GAD B   1      22.174  30.304  52.9860  0.00  0.00     0.000 O
ATOM      9  HD  GAD B   1      22.648  29.616  53.2150  0.00  0.00     0.000 HD
ATOM      9   O  GAD B   1      19.233  31.092  53.9120  0.00  0.00     0.000 O
ATOM     11  HD  GAD B   1      19.708  30.404  54.1410  0.00  0.00     0.000 HD
ENDROOT
BRANCH 5 11
ATOM     11   C  GAD B   1      19.397  27.897  57.4670  0.00  0.00     0.000 C
ATOM     12   O  GAD B   1      19.122  26.659  57.3940  0.00  0.00     0.000 OA
ATOM     13   O  GAD B   1      19.154  28.604  58.5130  0.00  0.00     0.000 OA
ENDBRANCH 5 11
BRANCH 1 14
ATOM     14  O3  ASG B   2      22.263  27.308  54.1440  0.00  0.00     0.000 O
BRANCH 14 17
ATOM     15  C1  ASG B   2      21.619  23.595  54.4320  0.00  0.00     0.000 C
ATOM     16  C2  ASG B   2      22.391  24.910  54.6140  0.00  0.00     0.000 C
ATOM     17  C3  ASG B   2      21.584  26.055  53.9960  0.00  0.00     0.000 C
ATOM     18  C4  ASG B   2      21.337  25.780  52.5250  0.00  0.00     0.000 C
ATOM     19  C5  ASG B   2      20.682  24.410  52.3770  0.00  0.00     0.000 C
ATOM     20  O5  ASG B   2      21.481  23.408  53.0350  0.00  0.00     0.000 O
ATOM     21   C  ASG B   2      20.552  23.981  50.9510  0.00  0.00     0.000 C
ATOM     22   O  ASG B   2      20.142  22.636  50.9040  0.00  0.00     0.000 O
ATOM     24  HD  ASG B   2      19.893  21.826  50.7260  0.00  0.00     0.000 HD
BRANCH 16 26
ATOM     24   N  ASG B   2      23.680  25.359  55.0870  0.00  0.00     0.000 N
ATOM     26  HD  ASG B   2      23.278  25.731  54.4160  0.00  0.00     0.000 HD
ATOM     26   C  ASG B   2      23.907  25.820  56.3310  0.00  0.00     0.000 C
ATOM     27   C  ASG B   2      25.335  25.912  56.7460  0.00  0.00     0.000 C
ATOM     28   O  ASG B   2      22.989  26.145  57.0750  0.00  0.00     0.000 OA
ENDBRANCH 16 26
BRANCH 18 29
ATOM     29   O  ASG B   2      22.645  25.860  51.8600  0.00  0.00     0.000 O
ATOM     30   O  ASG B   2      21.743  26.727  49.7440  0.00  0.00     0.000 OA
ATOM     31   O  ASG B   2      22.953  28.206  51.2410  0.00  0.00     0.000 OA
ATOM     32   O  ASG B   2      24.130  26.461  50.0510  0.00  0.00     0.000 OA
ATOM     33   S  ASG B   2      22.865  26.892  50.6480  0.00  0.00     0.000 S
ENDBRANCH 18 29
BRANCH 15 34
ATOM     34  O4  ASG B   3      22.272  22.481  54.9700  0.00  0.00     0.000 O
BRANCH 34 38
ATOM     35  C1  GCT B   3      20.390  22.518  58.5510  0.00  0.00     0.000 C
ATOM     36  C2  GCT B   3      21.774  21.908  58.5890  0.00  0.00     0.000 C
ATOM     37  C3  GCT B   3      22.577  22.310  57.3600  0.00  0.00     0.000 C
ATOM     38  C4  GCT B   3      21.846  21.831  56.1000  0.00  0.00     0.000 C
ATOM     39  C5  GCT B   3      20.310  21.879  56.2680  0.00  0.00     0.000 C
ATOM     40  O5  GCT B   3      20.039  22.891  57.2220  0.00  0.00     0.000 O
ATOM     41   O  GCT B   3      22.398  22.397  59.7670  0.00  0.00     0.000 O
ATOM     43  HD  GCT B   3      22.308  22.186  60.6030  0.00  0.00     0.000 HD
ATOM     43   O  GCT B   3      23.907  21.761  57.4800  0.00  0.00     0.000 O
ATOM     45  HD  GCT B   3      23.816  21.550  58.3150  0.00  0.00     0.000 HD
BRANCH 39 45
ATOM     45   C  GCT B   3      19.589  20.610  56.6650  0.00  0.00     0.000 C
ATOM     46   O  GCT B   3      20.256  19.545  56.8630  0.00  0.00     0.000 OA
ATOM     47   O  GCT B   3      18.356  20.663  56.7990  0.00  0.00     0.000 OA
ENDBRANCH 39 45
BRANCH 35 48
ATOM     48  O3  ASG B   4      19.639  21.951  59.4710  0.00  0.00     0.000 O
BRANCH 48 51
ATOM     49  C1  ASG B   4      18.408  24.744  61.5620  0.00  0.00     0.000 C
ATOM     50  C2  ASG B   4      19.384  23.813  60.8230  0.00  0.00     0.000 C
ATOM     51  C3  ASG B   4      18.641  22.869  59.8820  0.00  0.00     0.000 C
ATOM     52  C4  ASG B   4      17.494  22.171  60.5940  0.00  0.00     0.000 C
ATOM     53  C5  ASG B   4      16.608  23.240  61.2270  0.00  0.00     0.000 C
ATOM     54  O5  ASG B   4      17.383  23.989  62.1850  0.00  0.00     0.000 O
BRANCH 50 57
ATOM     55   N  ASG B   4      20.003  25.094  60.5710  0.00  0.00     0.000 N
ATOM     57  HD  ASG B   4      20.497  25.125  61.2810  0.00  0.00     0.000 HD
ATOM     57   O  ASG B   4      21.863  24.642  61.7330  0.00  0.00     0.000 OA
ATOM     58   C  ASG B   4      21.250  25.373  60.9610  0.00  0.00     0.000 C
ATOM     59   C  ASG B   4      21.820  26.656  60.4390  0.00  0.00     0.000 C
ENDBRANCH 50 57
BRANCH 52 60
ATOM     60   O  ASG B   4      18.179  21.281  61.5660  0.00  0.00     0.000 O
ATOM     61   O  ASG B   4      17.848  19.257  60.1430  0.00  0.00     0.000 OA
ATOM     62   O  ASG B   4      19.137  19.104  62.1380  0.00  0.00     0.000 OA
ATOM     63   O  ASG B   4      16.803  19.601  62.2940  0.00  0.00     0.000 OA
ATOM     64   S  ASG B   4      18.025  19.687  61.4890  0.00  0.00     0.000 S
ENDBRANCH 52 60
ATOM     65   O  ASG B   4      14.444  23.751  62.1950  0.00  0.00     0.000 O
ATOM     67  HD  ASG B   4      14.830  24.161  62.8520  0.00  0.00     0.000 HD
ATOM     67   O  ASG B   4      14.444  23.751  62.1950  0.00  0.00     0.000 O
ATOM     69  HD  ASG B   4      14.830  24.161  62.8520  0.00  0.00     0.000 HD
ENDBRANCH 48 51
ENDBRANCH 35 48
ENDBRANCH 34 38
ENDBRANCH 15 34
ENDBRANCH 14 17
ENDBRANCH 1 14
TORSDOF 12
ENDMDL
MODEL 51
REMARK VINA RESULT:      -7.2     10.332     15.382
ROOT
ATOM      1  C1  GAD B   1      10.967  37.061  29.1790  0.00  0.00     0.000 C
ATOM      2  C2  GAD B   1      10.575  37.838  30.4390  0.00  0.00     0.000 C
ATOM      3  C3  GAD B   1      11.831  38.261  31.2090  0.00  0.00     0.000 C
ATOM      4  C4  GAD B   1      13.006  37.285  31.0930  0.00  0.00     0.000 C
ATOM      5  C5  GAD B   1      13.028  36.219  30.2690  0.00  0.00     0.000 C
ATOM      6  O5  GAD B   1      11.845  35.967  29.4860  0.00  0.00     0.000 O
ATOM      7   O  GAD B   1       9.693  38.976  30.1160  0.00  0.00     0.000 O
ATOM      9  HD  GAD B   1       9.631  38.535  29.3730  0.00  0.00     0.000 HD
ATOM      9   O  GAD B   1      11.565  38.401  32.6230  0.00  0.00     0.000 O
ATOM     11  HD  GAD B   1      11.504  37.960  31.8800  0.00  0.00     0.000 HD
ENDROOT
BRANCH 5 11
ATOM     11   C  GAD B   1      14.197  35.331  30.0700  0.00  0.00     0.000 C
ATOM     12   O  GAD B   1      14.006  34.085  30.2220  0.00  0.00     0.000 OA
ATOM     13   O  GAD B   1      15.358  35.834  29.8360  0.00  0.00     0.000 OA
ENDBRANCH 5 11
BRANCH 1 14
ATOM     14  O3  ASG B   2      10.143  36.219  28.5280  0.00  0.00     0.000 O
BRANCH 14 17
ATOM     15  C1  ASG B   2       8.072  33.067  28.7660  0.00  0.00     0.000 C
ATOM     16  C2  ASG B   2       9.102  34.034  28.1650  0.00  0.00     0.000 C
ATOM     17  C3  ASG B   2       9.189  35.284  29.0460  0.00  0.00     0.000 C
ATOM     18  C4  ASG B   2       7.828  35.946  29.1430  0.00  0.00     0.000 C
ATOM     19  C5  ASG B   2       6.807  34.919  29.6240  0.00  0.00     0.000 C
ATOM     20  O5  ASG B   2       6.836  33.758  28.7710  0.00  0.00     0.000 O
ATOM     21   C  ASG B   2       5.405  35.436  29.5920  0.00  0.00     0.000 C
ATOM     22   O  ASG B   2       4.512  34.379  29.8410  0.00  0.00     0.000 O
ATOM     24  HD  ASG B   2       3.855  33.833  29.9810  0.00  0.00     0.000 HD
BRANCH 16 26
ATOM     24   N  ASG B   2       9.948  34.254  27.0150  0.00  0.00     0.000 N
ATOM     26  HD  ASG B   2       9.636  34.907  27.4910  0.00  0.00     0.000 HD
ATOM     26   C  ASG B   2      11.204  33.783  26.9040  0.00  0.00     0.000 C
ATOM     27   C  ASG B   2      11.794  33.809  25.5360  0.00  0.00     0.000 C
ATOM     28   O  ASG B   2      11.821  33.358  27.8720  0.00  0.00     0.000 OA
ENDBRANCH 16 26
BRANCH 18 29
ATOM     29   O  ASG B   2       7.522  36.469  27.8040  0.00  0.00     0.000 O
ATOM     30   O  ASG B   2       6.228  38.390  28.6290  0.00  0.00     0.000 OA
ATOM     31   O  ASG B   2       8.455  38.728  27.7240  0.00  0.00     0.000 OA
ATOM     32   O  ASG B   2       6.636  38.102  26.2600  0.00  0.00     0.000 OA
ATOM     33   S  ASG B   2       7.196  38.030  27.6090  0.00  0.00     0.000 S
ENDBRANCH 18 29
BRANCH 15 34
ATOM     34  O4  ASG B   3       7.919  31.884  28.0350  0.00  0.00     0.000 O
BRANCH 34 38
ATOM     35  C1  GCT B   3       8.774  27.943  27.7170  0.00  0.00     0.000 C
ATOM     36  C2  GCT B   3       9.289  28.584  28.9870  0.00  0.00     0.000 C
ATOM     37  C3  GCT B   3       8.581  29.905  29.2530  0.00  0.00     0.000 C
ATOM     38  C4  GCT B   3       8.823  30.853  28.0720  0.00  0.00     0.000 C
ATOM     39  C5  GCT B   3       8.910  30.095  26.7280  0.00  0.00     0.000 C
ATOM     40  O5  GCT B   3       8.147  28.910  26.8820  0.00  0.00     0.000 O
ATOM     41   O  GCT B   3       9.027  27.665  30.0380  0.00  0.00     0.000 O
ATOM     43  HD  GCT B   3       9.417  26.930  30.2780  0.00  0.00     0.000 HD
ATOM     43   O  GCT B   3       9.057  30.438  30.5060  0.00  0.00     0.000 O
ATOM     45  HD  GCT B   3       9.448  29.703  30.7460  0.00  0.00     0.000 HD
BRANCH 39 45
ATOM     45   C  GCT B   3      10.278  29.741  26.1870  0.00  0.00     0.000 C
ATOM     46   O  GCT B   3      11.311  29.987  26.8860  0.00  0.00     0.000 OA
ATOM     47   O  GCT B   3      10.337  29.204  25.0690  0.00  0.00     0.000 OA
ENDBRANCH 39 45
BRANCH 35 48
ATOM     48  O3  ASG B   4       9.572  26.955  27.3740  0.00  0.00     0.000 O
BRANCH 48 51
ATOM     49  C1  ASG B   4       7.865  23.951  26.0490  0.00  0.00     0.000 C
ATOM     50  C2  ASG B   4       8.368  25.004  27.0510  0.00  0.00     0.000 C
ATOM     51  C3  ASG B   4       8.964  26.211  26.3320  0.00  0.00     0.000 C
ATOM     52  C4  ASG B   4       9.976  25.782  25.2830  0.00  0.00     0.000 C
ATOM     53  C5  ASG B   4       9.300  24.778  24.3530  0.00  0.00     0.000 C
ATOM     54  O5  ASG B   4       8.887  23.629  25.1190  0.00  0.00     0.000 O
BRANCH 50 57
ATOM     55   N  ASG B   4       7.295  25.434  27.9190  0.00  0.00     0.000 N
ATOM     57  HD  ASG B   4       7.160  24.677  28.3170  0.00  0.00     0.000 HD
ATOM     57   O  ASG B   4       7.708  23.908  29.5050  0.00  0.00     0.000 OA
ATOM     58   C  ASG B   4       7.112  24.915  29.1370  0.00  0.00     0.000 C
ATOM     59   C  ASG B   4       6.098  25.612  29.9910  0.00  0.00     0.000 C
ENDBRANCH 50 57
BRANCH 52 60
ATOM     60   O  ASG B   4      11.094  25.224  26.0860  0.00  0.00     0.000 O
ATOM     61   O  ASG B   4      12.702  26.960  25.2900  0.00  0.00     0.000 OA
ATOM     62   O  ASG B   4      13.371  25.403  26.9620  0.00  0.00     0.000 OA
ATOM     63   O  ASG B   4      12.861  24.607  24.7660  0.00  0.00     0.000 OA
ATOM     64   S  ASG B   4      12.617  25.628  25.7890  0.00  0.00     0.000 S
ENDBRANCH 52 60
ATOM     65   O  ASG B   4       9.379  23.643  22.2120  0.00  0.00     0.000 O
ATOM     67  HD  ASG B   4       9.205  22.889  22.6020  0.00  0.00     0.000 HD
ATOM     67   O  ASG B   4       9.379  23.643  22.2120  0.00  0.00     0.000 O
ATOM     69  HD  ASG B   4       9.205  22.889  22.6020  0.00  0.00     0.000 HD
ENDBRANCH 48 51
ENDBRANCH 35 48
ENDBRANCH 34 38
ENDBRANCH 15 34
ENDBRANCH 14 17
ENDBRANCH 1 14
TORSDOF 12
ENDMDL
MODEL 52
REMARK VINA RESULT:      -7.2      5.598      9.641
ROOT
ATOM      1  C1  GAD B   1       7.825  35.454  29.5940  0.00  0.00     0.000 C
ATOM      2  C2  GAD B   1       6.358  35.896  29.5830  0.00  0.00     0.000 C
ATOM      3  C3  GAD B   1       5.450  34.714  29.9450  0.00  0.00     0.000 C
ATOM      4  C4  GAD B   1       5.974  33.349  29.4920  0.00  0.00     0.000 C
ATOM      5  C5  GAD B   1       7.195  33.143  28.9610  0.00  0.00     0.000 C
ATOM      6  O5  GAD B   1       8.034  34.298  28.7690  0.00  0.00     0.000 O
ATOM      7   O  GAD B   1       6.143  37.069  30.4510  0.00  0.00     0.000 O
ATOM      9  HD  GAD B   1       7.007  37.095  30.3920  0.00  0.00     0.000 HD
ATOM      9   O  GAD B   1       4.137  34.854  29.3580  0.00  0.00     0.000 O
ATOM     11  HD  GAD B   1       5.001  34.880  29.2990  0.00  0.00     0.000 HD
ENDROOT
BRANCH 5 11
ATOM     11   C  GAD B   1       7.752  31.813  28.6180  0.00  0.00     0.000 C
ATOM     12   O  GAD B   1       8.127  31.079  29.5850  0.00  0.00     0.000 OA
ATOM     13   O  GAD B   1       7.914  31.478  27.3870  0.00  0.00     0.000 OA
ENDBRANCH 5 11
BRANCH 1 14
ATOM     14  O3  ASG B   2       8.809  36.101  28.9410  0.00  0.00     0.000 O
BRANCH 14 17
ATOM     15  C1  ASG B   2      10.644  39.404  28.9180  0.00  0.00     0.000 C
ATOM     16  C2  ASG B   2       9.709  38.308  28.3870  0.00  0.00     0.000 C
ATOM     17  C3  ASG B   2       9.673  37.151  29.3900  0.00  0.00     0.000 C
ATOM     18  C4  ASG B   2      11.072  36.604  29.6010  0.00  0.00     0.000 C
ATOM     19  C5  ASG B   2      11.998  37.747  30.0060  0.00  0.00     0.000 C
ATOM     20  O5  ASG B   2      11.923  38.810  29.0350  0.00  0.00     0.000 O
ATOM     21   C  ASG B   2      13.433  37.333  30.0740  0.00  0.00     0.000 C
ATOM     22   O  ASG B   2      14.239  38.474  30.2410  0.00  0.00     0.000 O
ATOM     24  HD  ASG B   2      14.851  39.078  30.3450  0.00  0.00     0.000 HD
BRANCH 16 26
ATOM     24   N  ASG B   2       8.377  38.762  28.0580  0.00  0.00     0.000 N
ATOM     26  HD  ASG B   2       9.061  39.293  28.0530  0.00  0.00     0.000 HD
ATOM     26   C  ASG B   2       7.647  38.275  27.0370  0.00  0.00     0.000 C
ATOM     27   C  ASG B   2       6.194  38.605  27.0550  0.00  0.00     0.000 C
ATOM     28   O  ASG B   2       8.152  37.600  26.1490  0.00  0.00     0.000 OA
ENDBRANCH 16 26
BRANCH 18 29
ATOM     29   O  ASG B   2      11.468  35.972  28.3350  0.00  0.00     0.000 O
ATOM     30   O  ASG B   2      13.017  34.376  29.3820  0.00  0.00     0.000 OA
ATOM     31   O  ASG B   2      10.874  33.608  28.5370  0.00  0.00     0.000 OA
ATOM     32   O  ASG B   2      12.601  34.309  26.9970  0.00  0.00     0.000 OA
ATOM     33   S  ASG B   2      12.020  34.463  28.3310  0.00  0.00     0.000 S
ENDBRANCH 18 29
BRANCH 15 34
ATOM     34  O4  ASG B   3      10.743  40.515  28.0730  0.00  0.00     0.000 O
BRANCH 34 38
ATOM     35  C1  GCT B   3      13.094  42.738  30.5010  0.00  0.00     0.000 C
ATOM     36  C2  GCT B   3      11.651  43.192  30.4570  0.00  0.00     0.000 C
ATOM     37  C3  GCT B   3      10.755  42.094  29.9020  0.00  0.00     0.000 C
ATOM     38  C4  GCT B   3      11.217  41.735  28.4840  0.00  0.00     0.000 C
ATOM     39  C5  GCT B   3      12.750  41.858  28.3260  0.00  0.00     0.000 C
ATOM     40  O5  GCT B   3      13.308  41.648  29.6110  0.00  0.00     0.000 O
ATOM     41   O  GCT B   3      11.284  43.498  31.7950  0.00  0.00     0.000 O
ATOM     43  HD  GCT B   3      11.457  44.176  32.3040  0.00  0.00     0.000 HD
ATOM     43   O  GCT B   3       9.387  42.551  29.9470  0.00  0.00     0.000 O
ATOM     45  HD  GCT B   3       9.560  43.229  30.4560  0.00  0.00     0.000 HD
BRANCH 39 45
ATOM     45   C  GCT B   3      13.313  43.133  27.7380  0.00  0.00     0.000 C
ATOM     46   O  GCT B   3      14.572  43.282  27.6520  0.00  0.00     0.000 OA
ATOM     47   O  GCT B   3      12.507  43.993  27.3450  0.00  0.00     0.000 OA
ENDBRANCH 39 45
BRANCH 35 48
ATOM     48  O3  ASG B   4      13.870  43.776  30.7290  0.00  0.00     0.000 O
BRANCH 48 51
ATOM     49  C1  ASG B   4      15.769  45.119  33.6070  0.00  0.00     0.000 C
ATOM     50  C2  ASG B   4      14.971  45.082  32.2930  0.00  0.00     0.000 C
ATOM     51  C3  ASG B   4      14.358  43.704  32.0580  0.00  0.00     0.000 C
ATOM     52  C4  ASG B   4      15.397  42.606  32.2150  0.00  0.00     0.000 C
ATOM     53  C5  ASG B   4      16.054  42.767  33.5830  0.00  0.00     0.000 C
ATOM     54  O5  ASG B   4      16.702  44.053  33.6460  0.00  0.00     0.000 O
BRANCH 50 57
ATOM     55   N  ASG B   4      13.876  45.968  31.9710  0.00  0.00     0.000 N
ATOM     57  HD  ASG B   4      14.288  46.716  32.1100  0.00  0.00     0.000 HD
ATOM     57   O  ASG B   4      15.185  47.674  31.3470  0.00  0.00     0.000 OA
ATOM     58   C  ASG B   4      14.068  47.170  31.4190  0.00  0.00     0.000 C
ATOM     59   C  ASG B   4      12.832  47.873  30.9500  0.00  0.00     0.000 C
ENDBRANCH 50 57
BRANCH 52 60
ATOM     60   O  ASG B   4      16.308  42.821  31.0620  0.00  0.00     0.000 O
ATOM     61   O  ASG B   4      16.274  40.410  30.4180  0.00  0.00     0.000 OA
ATOM     62   O  ASG B   4      17.403  41.989  29.0390  0.00  0.00     0.000 OA
ATOM     63   O  ASG B   4      18.221  41.575  31.2480  0.00  0.00     0.000 OA
ATOM     64   S  ASG B   4      17.060  41.596  30.3520  0.00  0.00     0.000 S
ENDBRANCH 52 60
ATOM     65   O  ASG B   4      17.395  41.719  35.3110  0.00  0.00     0.000 O
ATOM     67  HD  ASG B   4      17.886  42.430  35.3650  0.00  0.00     0.000 HD
ATOM     67   O  ASG B   4      17.395  41.719  35.3110  0.00  0.00     0.000 O
ATOM     69  HD  ASG B   4      17.886  42.430  35.3650  0.00  0.00     0.000 HD
ENDBRANCH 48 51
ENDBRANCH 35 48
ENDBRANCH 34 38
ENDBRANCH 15 34
ENDBRANCH 14 17
ENDBRANCH 1 14
TORSDOF 12
ENDMDL
MODEL 53
REMARK VINA RESULT:      -7.2     21.146     23.859
ROOT
ATOM      1  C1  GAD B   1       8.992  60.414  46.9650  0.00  0.00     0.000 C
ATOM      2  C2  GAD B   1       8.102  60.702  48.1780  0.00  0.00     0.000 C
ATOM      3  C3  GAD B   1       6.689  61.080  47.7160  0.00  0.00     0.000 C
ATOM      4  C4  GAD B   1       6.635  61.817  46.3750  0.00  0.00     0.000 C
ATOM      5  C5  GAD B   1       7.697  61.996  45.5640  0.00  0.00     0.000 C
ATOM      6  O5  GAD B   1       8.968  61.497  46.0240  0.00  0.00     0.000 O
ATOM      7   O  GAD B   1       8.110  59.575  49.1310  0.00  0.00     0.000 O
ATOM      9  HD  GAD B   1       8.800  59.360  48.6540  0.00  0.00     0.000 HD
ATOM      9   O  GAD B   1       6.031  61.940  48.6730  0.00  0.00     0.000 O
ATOM     11  HD  GAD B   1       6.721  61.725  48.1960  0.00  0.00     0.000 HD
ENDROOT
BRANCH 5 11
ATOM     11   C  GAD B   1       7.635  62.613  44.2190  0.00  0.00     0.000 C
ATOM     12   O  GAD B   1       6.851  62.076  43.3750  0.00  0.00     0.000 OA
ATOM     13   O  GAD B   1       8.412  63.594  43.9210  0.00  0.00     0.000 OA
ENDBRANCH 5 11
BRANCH 1 14
ATOM     14  O3  ASG B   2      10.337  60.463  46.9910  0.00  0.00     0.000 O
BRANCH 14 17
ATOM     15  C1  ASG B   2      13.222  58.817  48.7930  0.00  0.00     0.000 C
ATOM     16  C2  ASG B   2      12.231  59.938  48.4490  0.00  0.00     0.000 C
ATOM     17  C3  ASG B   2      11.286  59.451  47.3460  0.00  0.00     0.000 C
ATOM     18  C4  ASG B   2      12.084  59.048  46.1210  0.00  0.00     0.000 C
ATOM     19  C5  ASG B   2      13.140  58.025  46.5280  0.00  0.00     0.000 C
ATOM     20  O5  ASG B   2      13.943  58.548  47.6060  0.00  0.00     0.000 O
ATOM     21   C  ASG B   2      14.084  57.693  45.4170  0.00  0.00     0.000 C
ATOM     22   O  ASG B   2      15.144  56.919  45.9220  0.00  0.00     0.000 O
ATOM     24  HD  ASG B   2      15.847  56.441  46.0900  0.00  0.00     0.000 HD
BRANCH 16 26
ATOM     24   N  ASG B   2      11.567  60.478  49.6130  0.00  0.00     0.000 N
ATOM     26  HD  ASG B   2      12.369  60.155  49.6470  0.00  0.00     0.000 HD
ATOM     26   C  ASG B   2      11.137  61.750  49.7120  0.00  0.00     0.000 C
ATOM     27   C  ASG B   2      10.185  62.035  50.8220  0.00  0.00     0.000 C
ATOM     28   O  ASG B   2      11.508  62.618  48.9320  0.00  0.00     0.000 OA
ENDBRANCH 16 26
BRANCH 18 29
ATOM     29   O  ASG B   2      12.666  60.283  45.5780  0.00  0.00     0.000 O
ATOM     30   O  ASG B   2      12.710  59.479  43.2550  0.00  0.00     0.000 OA
ATOM     31   O  ASG B   2      11.063  61.128  43.9360  0.00  0.00     0.000 OA
ATOM     32   O  ASG B   2      13.398  61.738  43.7930  0.00  0.00     0.000 OA
ATOM     33   S  ASG B   2      12.429  60.669  44.0360  0.00  0.00     0.000 S
ENDBRANCH 18 29
BRANCH 15 34
ATOM     34  O4  ASG B   3      14.131  59.160  49.8000  0.00  0.00     0.000 O
BRANCH 34 38
ATOM     35  C1  GCT B   3      16.170  55.669  49.9300  0.00  0.00     0.000 C
ATOM     36  C2  GCT B   3      15.134  55.819  51.0240  0.00  0.00     0.000 C
ATOM     37  C3  GCT B   3      14.131  56.908  50.6740  0.00  0.00     0.000 C
ATOM     38  C4  GCT B   3      14.873  58.238  50.4930  0.00  0.00     0.000 C
ATOM     39  C5  GCT B   3      16.281  58.038  49.8880  0.00  0.00     0.000 C
ATOM     40  O5  GCT B   3      16.229  56.843  49.1280  0.00  0.00     0.000 O
ATOM     41   O  GCT B   3      14.480  54.563  51.1340  0.00  0.00     0.000 O
ATOM     43  HD  GCT B   3      14.719  53.813  51.4950  0.00  0.00     0.000 HD
ATOM     43   O  GCT B   3      13.130  56.962  51.7120  0.00  0.00     0.000 O
ATOM     45  HD  GCT B   3      13.369  56.212  52.0730  0.00  0.00     0.000 HD
BRANCH 39 45
ATOM     45   C  GCT B   3      17.466  57.982  50.8280  0.00  0.00     0.000 C
ATOM     46   O  GCT B   3      18.633  57.804  50.3560  0.00  0.00     0.000 OA
ATOM     47   O  GCT B   3      17.249  58.128  52.0420  0.00  0.00     0.000 OA
ENDBRANCH 39 45
BRANCH 35 48
ATOM     48  O3  ASG B   4      17.160  54.922  50.3680  0.00  0.00     0.000 O
BRANCH 48 51
ATOM     49  C1  ASG B   4      18.244  51.407  49.9640  0.00  0.00     0.000 C
ATOM     50  C2  ASG B   4      18.041  52.793  50.5990  0.00  0.00     0.000 C
ATOM     51  C3  ASG B   4      17.054  53.631  49.7910  0.00  0.00     0.000 C
ATOM     52  C4  ASG B   4      17.421  53.644  48.3160  0.00  0.00     0.000 C
ATOM     53  C5  ASG B   4      17.538  52.197  47.8440  0.00  0.00     0.000 C
ATOM     54  O5  ASG B   4      18.579  51.539  48.5920  0.00  0.00     0.000 O
BRANCH 50 57
ATOM     55   N  ASG B   4      17.571  52.739  51.9640  0.00  0.00     0.000 N
ATOM     57  HD  ASG B   4      18.255  52.332  52.3050  0.00  0.00     0.000 HD
ATOM     57   O  ASG B   4      19.618  52.686  52.8710  0.00  0.00     0.000 OA
ATOM     58   C  ASG B   4      18.403  52.795  53.0080  0.00  0.00     0.000 C
ATOM     59   C  ASG B   4      17.752  52.945  54.3490  0.00  0.00     0.000 C
ENDBRANCH 50 57
BRANCH 52 60
ATOM     60   O  ASG B   4      18.694  54.410  48.2810  0.00  0.00     0.000 O
ATOM     61   O  ASG B   4      17.878  55.931  46.4780  0.00  0.00     0.000 OA
ATOM     62   O  ASG B   4      19.994  56.326  47.4950  0.00  0.00     0.000 OA
ATOM     63   O  ASG B   4      19.672  54.334  46.2120  0.00  0.00     0.000 OA
ATOM     64   S  ASG B   4      19.056  55.368  47.0480  0.00  0.00     0.000 S
ENDBRANCH 52 60
ATOM     65   O  ASG B   4      17.604  50.698  45.9400  0.00  0.00     0.000 O
ATOM     67  HD  ASG B   4      18.284  50.286  46.2830  0.00  0.00     0.000 HD
ATOM     67   O  ASG B   4      17.604  50.698  45.9400  0.00  0.00     0.000 O
ATOM     69  HD  ASG B   4      18.284  50.286  46.2830  0.00  0.00     0.000 HD
ENDBRANCH 48 51
ENDBRANCH 35 48
ENDBRANCH 34 38
ENDBRANCH 15 34
ENDBRANCH 14 17
ENDBRANCH 1 14
TORSDOF 12
ENDMDL
MODEL 54
REMARK VINA RESULT:      -7.1      4.540     11.453
ROOT
ATOM      1  C1  GAD B   1      16.836  42.945  34.0150  0.00  0.00     0.000 C
ATOM      2  C2  GAD B   1      16.363  43.890  35.1240  0.00  0.00     0.000 C
ATOM      3  C3  GAD B   1      17.498  44.138  36.1240  0.00  0.00     0.000 C
ATOM      4  C4  GAD B   1      18.453  42.955  36.3070  0.00  0.00     0.000 C
ATOM      5  C5  GAD B   1      18.427  41.835  35.5570  0.00  0.00     0.000 C
ATOM      6  O5  GAD B   1      17.399  41.739  34.5530  0.00  0.00     0.000 O
ATOM      7   O  GAD B   1      15.808  45.138  34.5670  0.00  0.00     0.000 O
ATOM      9  HD  GAD B   1      15.809  44.653  33.8490  0.00  0.00     0.000 HD
ATOM      9   O  GAD B   1      16.988  44.448  37.4400  0.00  0.00     0.000 O
ATOM     11  HD  GAD B   1      16.989  43.963  36.7230  0.00  0.00     0.000 HD
ENDROOT
BRANCH 5 11
ATOM     11   C  GAD B   1      19.411  40.732  35.6540  0.00  0.00     0.000 C
ATOM     12   O  GAD B   1      19.039  39.681  36.2640  0.00  0.00     0.000 OA
ATOM     13   O  GAD B   1      20.606  40.891  35.2060  0.00  0.00     0.000 OA
ENDBRANCH 5 11
BRANCH 1 14
ATOM     14  O3  ASG B   2      16.007  42.217  33.2430  0.00  0.00     0.000 O
BRANCH 14 17
ATOM     15  C1  ASG B   2      12.527  40.840  32.7220  0.00  0.00     0.000 C
ATOM     16  C2  ASG B   2      14.062  40.822  32.7360  0.00  0.00     0.000 C
ATOM     17  C3  ASG B   2      14.576  42.185  33.2090  0.00  0.00     0.000 C
ATOM     18  C4  ASG B   2      14.063  43.279  32.2930  0.00  0.00     0.000 C
ATOM     19  C5  ASG B   2      12.542  43.185  32.2070  0.00  0.00     0.000 C
ATOM     20  O5  ASG B   2      12.152  41.856  31.8100  0.00  0.00     0.000 O
ATOM     21   C  ASG B   2      11.960  44.120  31.1960  0.00  0.00     0.000 C
ATOM     22   O  ASG B   2      10.595  43.828  31.0230  0.00  0.00     0.000 O
ATOM     24  HD  ASG B   2       9.756  43.762  30.8180  0.00  0.00     0.000 HD
BRANCH 16 26
ATOM     24   N  ASG B   2      14.667  39.774  33.5250  0.00  0.00     0.000 N
ATOM     26  HD  ASG B   2      13.859  39.714  33.2190  0.00  0.00     0.000 HD
ATOM     26   C  ASG B   2      15.784  39.112  33.1680  0.00  0.00     0.000 C
ATOM     27   C  ASG B   2      16.448  38.321  34.2420  0.00  0.00     0.000 C
ATOM     28   O  ASG B   2      16.224  39.160  32.0260  0.00  0.00     0.000 OA
ENDBRANCH 16 26
BRANCH 18 29
ATOM     29   O  ASG B   2      14.720  43.077  30.9940  0.00  0.00     0.000 O
ATOM     30   O  ASG B   2      14.715  45.461  30.3940  0.00  0.00     0.000 OA
ATOM     31   O  ASG B   2      16.785  44.385  31.0640  0.00  0.00     0.000 OA
ATOM     32   O  ASG B   2      15.761  43.826  28.9470  0.00  0.00     0.000 OA
ATOM     33   S  ASG B   2      15.551  44.277  30.3220  0.00  0.00     0.000 S
ENDBRANCH 18 29
BRANCH 15 34
ATOM     34  O4  ASG B   3      11.954  39.633  32.3070  0.00  0.00     0.000 O
BRANCH 34 38
ATOM     35  C1  GCT B   3      10.533  37.108  29.4840  0.00  0.00     0.000 C
ATOM     36  C2  GCT B   3      11.987  37.483  29.2990  0.00  0.00     0.000 C
ATOM     37  C3  GCT B   3      12.568  38.054  30.5850  0.00  0.00     0.000 C
ATOM     38  C4  GCT B   3      11.770  39.300  30.9890  0.00  0.00     0.000 C
ATOM     39  C5  GCT B   3      10.276  39.178  30.6130  0.00  0.00     0.000 C
ATOM     40  O5  GCT B   3       9.973  37.794  30.5990  0.00  0.00     0.000 O
ATOM     41   O  GCT B   3      12.668  36.290  28.9370  0.00  0.00     0.000 O
ATOM     43  HD  GCT B   3      12.711  35.849  28.1930  0.00  0.00     0.000 HD
ATOM     43   O  GCT B   3      13.969  38.329  30.3740  0.00  0.00     0.000 O
ATOM     45  HD  GCT B   3      14.012  37.887  29.6310  0.00  0.00     0.000 HD
BRANCH 39 45
ATOM     45   C  GCT B   3       9.805  39.807  29.3200  0.00  0.00     0.000 C
ATOM     46   O  GCT B   3      10.636  40.432  28.5880  0.00  0.00     0.000 OA
ATOM     47   O  GCT B   3       8.610  39.672  29.0130  0.00  0.00     0.000 OA
ENDBRANCH 39 45
BRANCH 35 48
ATOM     48  O3  ASG B   4       9.991  36.872  28.3090  0.00  0.00     0.000 O
BRANCH 48 51
ATOM     49  C1  ASG B   4       9.141  33.860  26.3350  0.00  0.00     0.000 C
ATOM     50  C2  ASG B   4       9.617  35.284  26.6650  0.00  0.00     0.000 C
ATOM     51  C3  ASG B   4       9.780  35.477  28.1700  0.00  0.00     0.000 C
ATOM     52  C4  ASG B   4       8.541  35.019  28.9210  0.00  0.00     0.000 C
ATOM     53  C5  ASG B   4       8.241  33.580  28.5090  0.00  0.00     0.000 C
ATOM     54  O5  ASG B   4       7.985  33.539  27.0910  0.00  0.00     0.000 O
BRANCH 50 57
ATOM     55   N  ASG B   4      10.854  35.748  26.0800  0.00  0.00     0.000 N
ATOM     57  HD  ASG B   4      10.631  35.654  25.2490  0.00  0.00     0.000 HD
ATOM     57   O  ASG B   4       9.915  36.447  24.1710  0.00  0.00     0.000 OA
ATOM     58   C  ASG B   4      10.893  36.394  24.9110  0.00  0.00     0.000 C
ATOM     59   C  ASG B   4      12.215  36.997  24.5460  0.00  0.00     0.000 C
ENDBRANCH 50 57
BRANCH 52 60
ATOM     60   O  ASG B   4       7.506  36.006  28.5180  0.00  0.00     0.000 O
ATOM     61   O  ASG B   4       7.035  36.669  30.8780  0.00  0.00     0.000 OA
ATOM     62   O  ASG B   4       5.979  37.830  29.0880  0.00  0.00     0.000 OA
ATOM     63   O  ASG B   4       5.467  35.521  29.4420  0.00  0.00     0.000 OA
ATOM     64   S  ASG B   4       6.457  36.594  29.5780  0.00  0.00     0.000 S
ENDBRANCH 52 60
ATOM     65   O  ASG B   4       7.049  31.537  29.0430  0.00  0.00     0.000 O
ATOM     67  HD  ASG B   4       6.786  31.472  28.2210  0.00  0.00     0.000 HD
ATOM     67   O  ASG B   4       7.049  31.537  29.0430  0.00  0.00     0.000 O
ATOM     69  HD  ASG B   4       6.786  31.472  28.2210  0.00  0.00     0.000 HD
ENDBRANCH 48 51
ENDBRANCH 35 48
ENDBRANCH 34 38
ENDBRANCH 15 34
ENDBRANCH 14 17
ENDBRANCH 1 14
TORSDOF 12
ENDMDL
MODEL 55
REMARK VINA RESULT:      -7.1     22.387     29.574
ROOT
ATOM      1  C1  GAD B   1      21.097  31.308  65.4080  0.00  0.00     0.000 C
ATOM      2  C2  GAD B   1      20.696  32.707  65.8860  0.00  0.00     0.000 C
ATOM      3  C3  GAD B   1      19.201  32.941  65.6340  0.00  0.00     0.000 C
ATOM      4  C4  GAD B   1      18.646  32.227  64.3990  0.00  0.00     0.000 C
ATOM      5  C5  GAD B   1      19.338  31.336  63.6620  0.00  0.00     0.000 C
ATOM      6  O5  GAD B   1      20.703  31.083  64.0460  0.00  0.00     0.000 O
ATOM      7   O  GAD B   1      21.080  32.925  67.2940  0.00  0.00     0.000 O
ATOM      9  HD  GAD B   1      21.558  32.223  67.1260  0.00  0.00     0.000 HD
ATOM      9   O  GAD B   1      18.907  34.344  65.4520  0.00  0.00     0.000 O
ATOM     11  HD  GAD B   1      19.385  33.642  65.2840  0.00  0.00     0.000 HD
ENDROOT
BRANCH 5 11
ATOM     11   C  GAD B   1      18.778  30.561  62.5300  0.00  0.00     0.000 C
ATOM     12   O  GAD B   1      19.472  30.511  61.4670  0.00  0.00     0.000 OA
ATOM     13   O  GAD B   1      17.604  30.043  62.6200  0.00  0.00     0.000 OA
ENDBRANCH 5 11
BRANCH 1 14
ATOM     14  O3  ASG B   2      22.359  30.950  65.1050  0.00  0.00     0.000 O
BRANCH 14 17
ATOM     15  C1  ASG B   2      24.787  30.733  62.2180  0.00  0.00     0.000 C
ATOM     16  C2  ASG B   2      23.896  30.207  63.3520  0.00  0.00     0.000 C
ATOM     17  C3  ASG B   2      23.207  31.390  64.0390  0.00  0.00     0.000 C
ATOM     18  C4  ASG B   2      24.248  32.352  64.5800  0.00  0.00     0.000 C
ATOM     19  C5  ASG B   2      25.190  32.755  63.4490  0.00  0.00     0.000 C
ATOM     20  O5  ASG B   2      25.745  31.579  62.8280  0.00  0.00     0.000 O
ATOM     21   C  ASG B   2      26.348  33.572  63.9240  0.00  0.00     0.000 C
ATOM     22   O  ASG B   2      27.274  33.721  62.8750  0.00  0.00     0.000 O
ATOM     24  HD  ASG B   2      27.923  33.895  62.3290  0.00  0.00     0.000 HD
BRANCH 16 26
ATOM     24   N  ASG B   2      22.922  29.215  62.9570  0.00  0.00     0.000 N
ATOM     26  HD  ASG B   2      23.648  29.356  62.5060  0.00  0.00     0.000 HD
ATOM     26   C  ASG B   2      22.562  28.168  63.7210  0.00  0.00     0.000 C
ATOM     27   C  ASG B   2      21.319  27.455  63.3120  0.00  0.00     0.000 C
ATOM     28   O  ASG B   2      23.220  27.824  64.6950  0.00  0.00     0.000 OA
ENDBRANCH 16 26
BRANCH 18 29
ATOM     29   O  ASG B   2      24.935  31.652  65.6720  0.00  0.00     0.000 O
ATOM     30   O  ASG B   2      25.395  33.693  66.9620  0.00  0.00     0.000 OA
ATOM     31   O  ASG B   2      23.673  32.153  67.7060  0.00  0.00     0.000 OA
ATOM     32   O  ASG B   2      26.002  31.518  67.8360  0.00  0.00     0.000 OA
ATOM     33   S  ASG B   2      24.991  32.311  67.1370  0.00  0.00     0.000 S
ENDBRANCH 18 29
BRANCH 15 34
ATOM     34  O4  ASG B   3      25.461  29.726  61.5200  0.00  0.00     0.000 O
BRANCH 34 38
ATOM     35  C1  GCT B   3      23.063  29.562  58.2660  0.00  0.00     0.000 C
ATOM     36  C2  GCT B   3      23.881  28.310  58.4920  0.00  0.00     0.000 C
ATOM     37  C3  GCT B   3      24.407  28.255  59.9190  0.00  0.00     0.000 C
ATOM     38  C4  GCT B   3      25.282  29.487  60.1810  0.00  0.00     0.000 C
ATOM     39  C5  GCT B   3      24.772  30.733  59.4210  0.00  0.00     0.000 C
ATOM     40  O5  GCT B   3      23.379  30.553  59.2380  0.00  0.00     0.000 O
ATOM     41   O  GCT B   3      23.014  27.212  58.2440  0.00  0.00     0.000 O
ATOM     43  HD  GCT B   3      22.719  26.859  57.5100  0.00  0.00     0.000 HD
ATOM     43   O  GCT B   3      25.118  27.013  60.1000  0.00  0.00     0.000 O
ATOM     45  HD  GCT B   3      24.823  26.660  59.3660  0.00  0.00     0.000 HD
BRANCH 39 45
ATOM     45   C  GCT B   3      25.411  31.077  58.0930  0.00  0.00     0.000 C
ATOM     46   O  GCT B   3      26.349  30.348  57.6410  0.00  0.00     0.000 OA
ATOM     47   O  GCT B   3      24.975  32.066  57.4810  0.00  0.00     0.000 OA
ENDBRANCH 39 45
BRANCH 35 48
ATOM     48  O3  ASG B   4      22.847  29.715  56.9770  0.00  0.00     0.000 O
BRANCH 48 51
ATOM     49  C1  ASG B   4      19.163  29.801  56.6430  0.00  0.00     0.000 C
ATOM     50  C2  ASG B   4      20.568  29.311  57.0330  0.00  0.00     0.000 C
ATOM     51  C3  ASG B   4      21.617  30.394  56.7930  0.00  0.00     0.000 C
ATOM     52  C4  ASG B   4      21.499  30.973  55.3920  0.00  0.00     0.000 C
ATOM     53  C5  ASG B   4      20.062  31.447  55.1940  0.00  0.00     0.000 C
ATOM     54  O5  ASG B   4      19.172  30.321  55.3230  0.00  0.00     0.000 O
BRANCH 50 57
ATOM     55   N  ASG B   4      19.688  28.955  58.1220  0.00  0.00     0.000 N
ATOM     57  HD  ASG B   4      19.508  28.148  57.8660  0.00  0.00     0.000 HD
ATOM     57   O  ASG B   4      20.105  26.758  57.9970  0.00  0.00     0.000 OA
ATOM     58   C  ASG B   4      19.603  27.707  58.5920  0.00  0.00     0.000 C
ATOM     59   C  ASG B   4      18.815  27.543  59.8550  0.00  0.00     0.000 C
ENDBRANCH 50 57
BRANCH 52 60
ATOM     60   O  ASG B   4      21.905  29.845  54.5140  0.00  0.00     0.000 O
ATOM     61   O  ASG B   4      24.140  30.849  54.0400  0.00  0.00     0.000 OA
ATOM     62   O  ASG B   4      23.620  28.675  53.2210  0.00  0.00     0.000 OA
ATOM     63   O  ASG B   4      22.397  30.556  52.3940  0.00  0.00     0.000 OA
ATOM     64   S  ASG B   4      23.148  29.975  53.5110  0.00  0.00     0.000 S
ENDBRANCH 52 60
ATOM     65   O  ASG B   4      18.554  32.814  53.8760  0.00  0.00     0.000 O
ATOM     67  HD  ASG B   4      17.988  32.161  53.8400  0.00  0.00     0.000 HD
ATOM     67   O  ASG B   4      18.554  32.814  53.8760  0.00  0.00     0.000 O
ATOM     69  HD  ASG B   4      17.988  32.161  53.8400  0.00  0.00     0.000 HD
ENDBRANCH 48 51
ENDBRANCH 35 48
ENDBRANCH 34 38
ENDBRANCH 15 34
ENDBRANCH 14 17
ENDBRANCH 1 14
TORSDOF 12
ENDMDL
MODEL 56
REMARK VINA RESULT:      -7.1     10.630     15.769
ROOT
ATOM      1  C1  GAD B   1      11.112  36.774  28.1810  0.00  0.00     0.000 C
ATOM      2  C2  GAD B   1      11.364  37.454  29.5310  0.00  0.00     0.000 C
ATOM      3  C3  GAD B   1      12.818  37.237  29.9660  0.00  0.00     0.000 C
ATOM      4  C4  GAD B   1      13.427  35.909  29.5090  0.00  0.00     0.000 C
ATOM      5  C5  GAD B   1      12.825  35.049  28.6630  0.00  0.00     0.000 C
ATOM      6  O5  GAD B   1      11.503  35.393  28.2050  0.00  0.00     0.000 O
ATOM      7   O  GAD B   1      10.983  38.879  29.4950  0.00  0.00     0.000 O
ATOM      9  HD  GAD B   1      10.583  38.609  28.7760  0.00  0.00     0.000 HD
ATOM      9   O  GAD B   1      12.951  37.265  31.4050  0.00  0.00     0.000 O
ATOM     11  HD  GAD B   1      12.551  36.995  30.6860  0.00  0.00     0.000 HD
ENDROOT
BRANCH 5 11
ATOM     11   C  GAD B   1      13.447  33.814  28.1320  0.00  0.00     0.000 C
ATOM     12   O  GAD B   1      12.663  32.922  27.6820  0.00  0.00     0.000 OA
ATOM     13   O  GAD B   1      14.720  33.647  28.2110  0.00  0.00     0.000 OA
ENDBRANCH 5 11
BRANCH 1 14
ATOM     14  O3  ASG B   2       9.892  36.424  27.7320  0.00  0.00     0.000 O
BRANCH 14 17
ATOM     15  C1  ASG B   2       7.851  33.382  26.8060  0.00  0.00     0.000 C
ATOM     16  C2  ASG B   2       8.612  34.694  26.5680  0.00  0.00     0.000 C
ATOM     17  C3  ASG B   2       9.168  35.199  27.9020  0.00  0.00     0.000 C
ATOM     18  C4  ASG B   2       8.036  35.410  28.8890  0.00  0.00     0.000 C
ATOM     19  C5  ASG B   2       7.229  34.120  29.0040  0.00  0.00     0.000 C
ATOM     20  O5  ASG B   2       6.796  33.692  27.6970  0.00  0.00     0.000 O
ATOM     21   C  ASG B   2       5.993  34.282  29.8290  0.00  0.00     0.000 C
ATOM     22   O  ASG B   2       5.200  33.126  29.7130  0.00  0.00     0.000 O
ATOM     24  HD  ASG B   2       4.619  32.485  29.7370  0.00  0.00     0.000 HD
BRANCH 16 26
ATOM     24   N  ASG B   2       8.882  35.663  25.5310  0.00  0.00     0.000 N
ATOM     26  HD  ASG B   2       8.816  35.885  26.3650  0.00  0.00     0.000 HD
ATOM     26   C  ASG B   2       9.959  35.621  24.7240  0.00  0.00     0.000 C
ATOM     27   C  ASG B   2       9.901  36.483  23.5100  0.00  0.00     0.000 C
ATOM     28   O  ASG B   2      10.927  34.915  24.9770  0.00  0.00     0.000 OA
ENDBRANCH 16 26
BRANCH 18 29
ATOM     29   O  ASG B   2       7.242  36.536  28.3800  0.00  0.00     0.000 O
ATOM     30   O  ASG B   2       6.579  37.338  30.6070  0.00  0.00     0.000 OA
ATOM     31   O  ASG B   2       8.241  38.558  29.3250  0.00  0.00     0.000 OA
ATOM     32   O  ASG B   2       5.930  38.551  28.6140  0.00  0.00     0.000 OA
ATOM     33   S  ASG B   2       6.996  37.826  29.3060  0.00  0.00     0.000 S
ENDBRANCH 18 29
BRANCH 15 34
ATOM     34  O4  ASG B   3       7.304  32.830  25.6420  0.00  0.00     0.000 O
BRANCH 34 38
ATOM     35  C1  GCT B   3       8.473  29.015  26.3070  0.00  0.00     0.000 C
ATOM     36  C2  GCT B   3       9.308  29.744  25.2760  0.00  0.00     0.000 C
ATOM     37  C3  GCT B   3       9.113  31.250  25.3890  0.00  0.00     0.000 C
ATOM     38  C4  GCT B   3       7.633  31.584  25.1710  0.00  0.00     0.000 C
ATOM     39  C5  GCT B   3       6.702  30.480  25.7210  0.00  0.00     0.000 C
ATOM     40  O5  GCT B   3       7.409  29.840  26.7690  0.00  0.00     0.000 O
ATOM     41   O  GCT B   3      10.661  29.401  25.5380  0.00  0.00     0.000 O
ATOM     43  HD  GCT B   3      11.122  28.687  25.3720  0.00  0.00     0.000 HD
ATOM     43   O  GCT B   3       9.981  31.898  24.4350  0.00  0.00     0.000 O
ATOM     45  HD  GCT B   3      10.442  31.183  24.2690  0.00  0.00     0.000 HD
BRANCH 39 45
ATOM     45   C  GCT B   3       6.178  29.436  24.7590  0.00  0.00     0.000 C
ATOM     46   O  GCT B   3       5.384  28.537  25.1810  0.00  0.00     0.000 OA
ATOM     47   O  GCT B   3       6.541  29.508  23.5730  0.00  0.00     0.000 OA
ENDBRANCH 39 45
BRANCH 35 48
ATOM     48  O3  ASG B   4       8.453  27.731  26.0200  0.00  0.00     0.000 O
BRANCH 48 51
ATOM     49  C1  ASG B   4       9.270  25.174  28.5660  0.00  0.00     0.000 C
ATOM     50  C2  ASG B   4       9.461  26.215  27.4510  0.00  0.00     0.000 C
ATOM     51  C3  ASG B   4       8.175  26.999  27.2020  0.00  0.00     0.000 C
ATOM     52  C4  ASG B   4       6.989  26.067  27.0200  0.00  0.00     0.000 C
ATOM     53  C5  ASG B   4       6.924  25.139  28.2300  0.00  0.00     0.000 C
ATOM     54  O5  ASG B   4       8.137  24.364  28.2950  0.00  0.00     0.000 O
BRANCH 50 57
ATOM     55   N  ASG B   4      10.569  26.963  27.9990  0.00  0.00     0.000 N
ATOM     57  HD  ASG B   4      11.184  26.367  27.8720  0.00  0.00     0.000 HD
ATOM     57   O  ASG B   4      12.127  25.930  26.7670  0.00  0.00     0.000 OA
ATOM     58   C  ASG B   4      11.816  26.834  27.5350  0.00  0.00     0.000 C
ATOM     59   C  ASG B   4      12.807  27.829  28.0570  0.00  0.00     0.000 C
ENDBRANCH 50 57
BRANCH 52 60
ATOM     60   O  ASG B   4       7.277  25.385  25.7320  0.00  0.00     0.000 O
ATOM     61   O  ASG B   4       4.878  25.393  25.0430  0.00  0.00     0.000 OA
ATOM     62   O  ASG B   4       6.543  24.614  23.5300  0.00  0.00     0.000 OA
ATOM     63   O  ASG B   4       6.146  23.401  25.5530  0.00  0.00     0.000 OA
ATOM     64   S  ASG B   4       6.110  24.699  24.8730  0.00  0.00     0.000 S
ENDBRANCH 52 60
ATOM     65   O  ASG B   4       5.566  23.598  29.5180  0.00  0.00     0.000 O
ATOM     67  HD  ASG B   4       6.224  23.035  29.5450  0.00  0.00     0.000 HD
ATOM     67   O  ASG B   4       5.566  23.598  29.5180  0.00  0.00     0.000 O
ATOM     69  HD  ASG B   4       6.224  23.035  29.5450  0.00  0.00     0.000 HD
ENDBRANCH 48 51
ENDBRANCH 35 48
ENDBRANCH 34 38
ENDBRANCH 15 34
ENDBRANCH 14 17
ENDBRANCH 1 14
TORSDOF 12
ENDMDL
MODEL 57
REMARK VINA RESULT:      -7.1      8.944     14.528
ROOT
ATOM      1  C1  GAD B   1      10.434  29.202  28.4560  0.00  0.00     0.000 C
ATOM      2  C2  GAD B   1      10.955  27.774  28.2650  0.00  0.00     0.000 C
ATOM      3  C3  GAD B   1      12.466  27.794  28.0080  0.00  0.00     0.000 C
ATOM      4  C4  GAD B   1      12.967  29.033  27.2600  0.00  0.00     0.000 C
ATOM      5  C5  GAD B   1      12.204  30.107  26.9760  0.00  0.00     0.000 C
ATOM      6  O5  GAD B   1      10.818  30.053  27.3650  0.00  0.00     0.000 O
ATOM      7   O  GAD B   1      10.579  26.909  29.4000  0.00  0.00     0.000 O
ATOM      9  HD  GAD B   1      10.041  27.572  29.5460  0.00  0.00     0.000 HD
ATOM      9   O  GAD B   1      12.887  26.655  27.2240  0.00  0.00     0.000 O
ATOM     11  HD  GAD B   1      12.349  27.319  27.3700  0.00  0.00     0.000 HD
ENDROOT
BRANCH 5 11
ATOM     11   C  GAD B   1      12.703  31.353  26.3480  0.00  0.00     0.000 C
ATOM     12   O  GAD B   1      12.540  31.470  25.0930  0.00  0.00     0.000 OA
ATOM     13   O  GAD B   1      13.341  32.220  27.0510  0.00  0.00     0.000 OA
ENDBRANCH 5 11
BRANCH 1 14
ATOM     14  O3  ASG B   2       9.148  29.562  28.2870  0.00  0.00     0.000 O
BRANCH 14 17
ATOM     15  C1  ASG B   2       6.897  31.844  26.2860  0.00  0.00     0.000 C
ATOM     16  C2  ASG B   2       7.567  31.275  27.5450  0.00  0.00     0.000 C
ATOM     17  C3  ASG B   2       8.495  30.125  27.1430  0.00  0.00     0.000 C
ATOM     18  C4  ASG B   2       7.704  29.048  26.4250  0.00  0.00     0.000 C
ATOM     19  C5  ASG B   2       6.955  29.676  25.2550  0.00  0.00     0.000 C
ATOM     20  O5  ASG B   2       6.153  30.781  25.7190  0.00  0.00     0.000 O
ATOM     21   C  ASG B   2       6.017  28.721  24.5880  0.00  0.00     0.000 C
ATOM     22   O  ASG B   2       5.215  29.421  23.6690  0.00  0.00     0.000 O
ATOM     24  HD  ASG B   2       4.660  29.717  23.0740  0.00  0.00     0.000 HD
BRANCH 16 26
ATOM     24   N  ASG B   2       7.414  31.550  28.9550  0.00  0.00     0.000 N
ATOM     26  HD  ASG B   2       7.430  30.743  28.6400  0.00  0.00     0.000 HD
ATOM     26   C  ASG B   2       8.321  32.213  29.6950  0.00  0.00     0.000 C
ATOM     27   C  ASG B   2       7.853  32.700  31.0240  0.00  0.00     0.000 C
ATOM     28   O  ASG B   2       9.463  32.404  29.2960  0.00  0.00     0.000 OA
ENDBRANCH 16 26
BRANCH 18 29
ATOM     29   O  ASG B   2       6.806  28.454  27.4250  0.00  0.00     0.000 O
ATOM     30   O  ASG B   2       6.763  26.237  26.3640  0.00  0.00     0.000 OA
ATOM     31   O  ASG B   2       8.026  26.577  28.4090  0.00  0.00     0.000 OA
ATOM     32   O  ASG B   2       5.609  26.627  28.4570  0.00  0.00     0.000 OA
ATOM     33   S  ASG B   2       6.819  26.866  27.6700  0.00  0.00     0.000 S
ENDBRANCH 18 29
BRANCH 15 34
ATOM     34  O4  ASG B   3       6.028  32.909  26.5440  0.00  0.00     0.000 O
BRANCH 34 38
ATOM     35  C1  GCT B   3       8.611  35.739  27.8410  0.00  0.00     0.000 C
ATOM     36  C2  GCT B   3       7.157  36.066  28.1030  0.00  0.00     0.000 C
ATOM     37  C3  GCT B   3       6.294  34.816  28.0030  0.00  0.00     0.000 C
ATOM     38  C4  GCT B   3       6.434  34.218  26.5970  0.00  0.00     0.000 C
ATOM     39  C5  GCT B   3       7.853  34.421  26.0200  0.00  0.00     0.000 C
ATOM     40  O5  GCT B   3       8.732  34.513  27.1280  0.00  0.00     0.000 O
ATOM     41   O  GCT B   3       7.095  36.603  29.4170  0.00  0.00     0.000 O
ATOM     43  HD  GCT B   3       7.304  37.380  29.7370  0.00  0.00     0.000 HD
ATOM     43   O  GCT B   3       4.934  35.169  28.3290  0.00  0.00     0.000 O
ATOM     45  HD  GCT B   3       5.142  35.946  28.6490  0.00  0.00     0.000 HD
BRANCH 39 45
ATOM     45   C  GCT B   3       8.093  35.593  25.0940  0.00  0.00     0.000 C
ATOM     46   O  GCT B   3       7.141  36.397  24.8410  0.00  0.00     0.000 OA
ATOM     47   O  GCT B   3       9.232  35.733  24.6210  0.00  0.00     0.000 OA
ENDBRANCH 39 45
BRANCH 35 48
ATOM     48  O3  ASG B   4       9.285  36.857  27.6730  0.00  0.00     0.000 O
BRANCH 48 51
ATOM     49  C1  ASG B   4       9.777  39.919  29.6900  0.00  0.00     0.000 C
ATOM     50  C2  ASG B   4       9.474  39.018  28.4820  0.00  0.00     0.000 C
ATOM     51  C3  ASG B   4       9.327  37.559  28.9030  0.00  0.00     0.000 C
ATOM     52  C4  ASG B   4      10.498  37.114  29.7640  0.00  0.00     0.000 C
ATOM     53  C5  ASG B   4      10.625  38.087  30.9330  0.00  0.00     0.000 C
ATOM     54  O5  ASG B   4      10.882  39.409  30.4200  0.00  0.00     0.000 O
BRANCH 50 57
ATOM     55   N  ASG B   4       8.276  39.640  27.9670  0.00  0.00     0.000 N
ATOM     57  HD  ASG B   4       8.646  40.357  27.6510  0.00  0.00     0.000 HD
ATOM     57   O  ASG B   4       9.334  40.809  26.3760  0.00  0.00     0.000 OA
ATOM     58   C  ASG B   4       8.286  40.414  26.8770  0.00  0.00     0.000 C
ATOM     59   C  ASG B   4       6.940  40.806  26.3500  0.00  0.00     0.000 C
ENDBRANCH 50 57
BRANCH 52 60
ATOM     60   O  ASG B   4      11.646  37.126  28.8220  0.00  0.00     0.000 O
ATOM     61   O  ASG B   4      11.956  34.653  28.9650  0.00  0.00     0.000 OA
ATOM     62   O  ASG B   4      13.267  35.925  27.4370  0.00  0.00     0.000 OA
ATOM     63   O  ASG B   4      13.543  36.279  29.7860  0.00  0.00     0.000 OA
ATOM     64   S  ASG B   4      12.641  35.875  28.7040  0.00  0.00     0.000 S
ENDBRANCH 52 60
ATOM     65   O  ASG B   4      11.559  38.482  33.1350  0.00  0.00     0.000 O
ATOM     67  HD  ASG B   4      11.817  39.270  32.8880  0.00  0.00     0.000 HD
ATOM     67   O  ASG B   4      11.559  38.482  33.1350  0.00  0.00     0.000 O
ATOM     69  HD  ASG B   4      11.817  39.270  32.8880  0.00  0.00     0.000 HD
ENDBRANCH 48 51
ENDBRANCH 35 48
ENDBRANCH 34 38
ENDBRANCH 15 34
ENDBRANCH 14 17
ENDBRANCH 1 14
TORSDOF 12
ENDMDL
MODEL 58
REMARK VINA RESULT:      -7.1     13.095     17.937
ROOT
ATOM      1  C1  GAD B   1       7.080  23.352  26.8820  0.00  0.00     0.000 C
ATOM      2  C2  GAD B   1       7.029  21.978  27.5570  0.00  0.00     0.000 C
ATOM      3  C3  GAD B   1       6.034  22.002  28.7230  0.00  0.00     0.000 C
ATOM      4  C4  GAD B   1       5.925  23.351  29.4380  0.00  0.00     0.000 C
ATOM      5  C5  GAD B   1       6.515  24.486  29.0120  0.00  0.00     0.000 C
ATOM      6  O5  GAD B   1       7.336  24.397  27.8320  0.00  0.00     0.000 O
ATOM      7   O  GAD B   1       6.741  20.910  26.5810  0.00  0.00     0.000 O
ATOM      9  HD  GAD B   1       6.955  21.546  26.0330  0.00  0.00     0.000 HD
ATOM      9   O  GAD B   1       6.385  21.037  29.7400  0.00  0.00     0.000 O
ATOM     11  HD  GAD B   1       6.599  21.673  29.1930  0.00  0.00     0.000 HD
ENDROOT
BRANCH 5 11
ATOM     11   C  GAD B   1       6.330  25.817  29.6340  0.00  0.00     0.000 C
ATOM     12   O  GAD B   1       5.853  25.841  30.8120  0.00  0.00     0.000 OA
ATOM     13   O  GAD B   1       6.572  26.885  28.9600  0.00  0.00     0.000 OA
ENDBRANCH 5 11
BRANCH 1 14
ATOM     14  O3  ASG B   2       8.110  23.781  26.1280  0.00  0.00     0.000 O
BRANCH 14 17
ATOM     15  C1  ASG B   2      10.394  26.780  25.8690  0.00  0.00     0.000 C
ATOM     16  C2  ASG B   2       9.241  25.849  25.4700  0.00  0.00     0.000 C
ATOM     17  C3  ASG B   2       9.176  24.680  26.4570  0.00  0.00     0.000 C
ATOM     18  C4  ASG B   2      10.494  23.929  26.4570  0.00  0.00     0.000 C
ATOM     19  C5  ASG B   2      11.627  24.911  26.7340  0.00  0.00     0.000 C
ATOM     20  O5  ASG B   2      11.575  26.003  25.7940  0.00  0.00     0.000 O
ATOM     21   C  ASG B   2      12.980  24.291  26.5900  0.00  0.00     0.000 C
ATOM     22   O  ASG B   2      13.962  25.296  26.6480  0.00  0.00     0.000 O
ATOM     24  HD  ASG B   2      14.665  25.801  26.6680  0.00  0.00     0.000 HD
BRANCH 16 26
ATOM     24   N  ASG B   2       7.942  26.474  25.3670  0.00  0.00     0.000 N
ATOM     26  HD  ASG B   2       8.679  26.925  25.2990  0.00  0.00     0.000 HD
ATOM     26   C  ASG B   2       7.026  26.158  24.4330  0.00  0.00     0.000 C
ATOM     27   C  ASG B   2       5.640  26.646  24.6820  0.00  0.00     0.000 C
ATOM     28   O  ASG B   2       7.319  25.507  23.4380  0.00  0.00     0.000 OA
ENDBRANCH 16 26
BRANCH 18 29
ATOM     29   O  ASG B   2      10.607  23.284  25.1420  0.00  0.00     0.000 O
ATOM     30   O  ASG B   2      11.808  21.313  25.9860  0.00  0.00     0.000 OA
ATOM     31   O  ASG B   2       9.476  21.125  25.3400  0.00  0.00     0.000 OA
ATOM     32   O  ASG B   2      11.175  21.467  23.6540  0.00  0.00     0.000 OA
ATOM     33   S  ASG B   2      10.772  21.689  25.0430  0.00  0.00     0.000 S
ENDBRANCH 18 29
BRANCH 15 34
ATOM     34  O4  ASG B   3      10.537  27.890  25.0290  0.00  0.00     0.000 O
BRANCH 34 38
ATOM     35  C1  GCT B   3       8.649  31.293  26.1350  0.00  0.00     0.000 C
ATOM     36  C2  GCT B   3       9.749  31.502  25.1180  0.00  0.00     0.000 C
ATOM     37  C3  GCT B   3      10.109  30.192  24.4320  0.00  0.00     0.000 C
ATOM     38  C4  GCT B   3      10.579  29.183  25.4870  0.00  0.00     0.000 C
ATOM     39  C5  GCT B   3       9.833  29.359  26.8300  0.00  0.00     0.000 C
ATOM     40  O5  GCT B   3       8.572  29.925  26.5210  0.00  0.00     0.000 O
ATOM     41   O  GCT B   3       9.250  32.434  24.1690  0.00  0.00     0.000 O
ATOM     43  HD  GCT B   3       9.146  33.293  24.1980  0.00  0.00     0.000 HD
ATOM     43   O  GCT B   3      11.110  30.459  23.4270  0.00  0.00     0.000 O
ATOM     45  HD  GCT B   3      11.006  31.318  23.4560  0.00  0.00     0.000 HD
BRANCH 39 45
ATOM     45   C  GCT B   3      10.495  30.175  27.9180  0.00  0.00     0.000 C
ATOM     46   O  GCT B   3      11.631  30.703  27.7030  0.00  0.00     0.000 OA
ATOM     47   O  GCT B   3       9.885  30.311  28.9910  0.00  0.00     0.000 OA
ENDBRANCH 39 45
BRANCH 35 48
ATOM     48  O3  ASG B   4       8.543  32.366  26.8880  0.00  0.00     0.000 O
BRANCH 48 51
ATOM     49  C1  ASG B   4       5.221  33.981  26.6700  0.00  0.00     0.000 C
ATOM     50  C2  ASG B   4       6.625  33.503  26.2630  0.00  0.00     0.000 C
ATOM     51  C3  ASG B   4       7.191  32.520  27.2850  0.00  0.00     0.000 C
ATOM     52  C4  ASG B   4       7.078  33.069  28.6970  0.00  0.00     0.000 C
ATOM     53  C5  ASG B   4       5.621  33.449  28.9440  0.00  0.00     0.000 C
ATOM     54  O5  ASG B   4       5.234  34.468  28.0020  0.00  0.00     0.000 O
BRANCH 50 57
ATOM     55   N  ASG B   4       5.906  33.262  25.0340  0.00  0.00     0.000 N
ATOM     57  HD  ASG B   4       6.017  34.044  24.6800  0.00  0.00     0.000 HD
ATOM     57   O  ASG B   4       7.051  34.772  23.8410  0.00  0.00     0.000 OA
ATOM     58   C  ASG B   4       6.247  33.846  23.8810  0.00  0.00     0.000 C
ATOM     59   C  ASG B   4       5.546  33.331  22.6620  0.00  0.00     0.000 C
ENDBRANCH 50 57
BRANCH 52 60
ATOM     60   O  ASG B   4       8.025  34.214  28.7020  0.00  0.00     0.000 O
ATOM     61   O  ASG B   4       9.361  33.268  30.5870  0.00  0.00     0.000 OA
ATOM     62   O  ASG B   4      10.095  35.251  29.4920  0.00  0.00     0.000 OA
ATOM     63   O  ASG B   4       8.046  35.289  30.7240  0.00  0.00     0.000 OA
ATOM     64   S  ASG B   4       8.996  34.488  29.9480  0.00  0.00     0.000 S
ENDBRANCH 52 60
ATOM     65   O  ASG B   4       3.927  33.973  30.5980  0.00  0.00     0.000 O
ATOM     67  HD  ASG B   4       3.674  34.655  30.1280  0.00  0.00     0.000 HD
ATOM     67   O  ASG B   4       3.927  33.973  30.5980  0.00  0.00     0.000 O
ATOM     69  HD  ASG B   4       3.674  34.655  30.1280  0.00  0.00     0.000 HD
ENDBRANCH 48 51
ENDBRANCH 35 48
ENDBRANCH 34 38
ENDBRANCH 15 34
ENDBRANCH 14 17
ENDBRANCH 1 14
TORSDOF 12
ENDMDL
MODEL 59
REMARK VINA RESULT:      -7.1     25.651     30.405
ROOT
ATOM      1  C1  GAD B   1       5.951  64.579  42.6090  0.00  0.00     0.000 C
ATOM      2  C2  GAD B   1       4.928  63.635  43.2470  0.00  0.00     0.000 C
ATOM      3  C3  GAD B   1       5.648  62.534  44.0350  0.00  0.00     0.000 C
ATOM      4  C4  GAD B   1       7.003  62.120  43.4540  0.00  0.00     0.000 C
ATOM      5  C5  GAD B   1       7.617  62.753  42.4350  0.00  0.00     0.000 C
ATOM      6  O5  GAD B   1       6.921  63.860  41.8320  0.00  0.00     0.000 O
ATOM      7   O  GAD B   1       3.949  64.376  44.0650  0.00  0.00     0.000 O
ATOM      9  HD  GAD B   1       4.286  65.037  43.6180  0.00  0.00     0.000 HD
ATOM      9   O  GAD B   1       4.856  61.326  44.1040  0.00  0.00     0.000 O
ATOM     11  HD  GAD B   1       5.194  61.987  43.6570  0.00  0.00     0.000 HD
ENDROOT
BRANCH 5 11
ATOM     11   C  GAD B   1       8.974  62.427  41.9360  0.00  0.00     0.000 C
ATOM     12   O  GAD B   1       9.684  63.398  41.5280  0.00  0.00     0.000 OA
ATOM     13   O  GAD B   1       9.356  61.202  41.8540  0.00  0.00     0.000 OA
ENDBRANCH 5 11
BRANCH 1 14
ATOM     14  O3  ASG B   2       5.687  65.370  41.5520  0.00  0.00     0.000 O
BRANCH 14 17
ATOM     15  C1  ASG B   2       3.856  65.859  38.2830  0.00  0.00     0.000 C
ATOM     16  C2  ASG B   2       5.022  65.971  39.2750  0.00  0.00     0.000 C
ATOM     17  C3  ASG B   2       4.628  65.295  40.5910  0.00  0.00     0.000 C
ATOM     18  C4  ASG B   2       3.381  65.950  41.1560  0.00  0.00     0.000 C
ATOM     19  C5  ASG B   2       2.284  65.930  40.0960  0.00  0.00     0.000 C
ATOM     20  O5  ASG B   2       2.764  66.534  38.8790  0.00  0.00     0.000 O
ATOM     21   C  ASG B   2       1.070  66.701  40.5040  0.00  0.00     0.000 C
ATOM     22   O  ASG B   2       0.200  66.817  39.4060  0.00  0.00     0.000 O
ATOM     24  HD  ASG B   2      -0.425  66.963  38.8250  0.00  0.00     0.000 HD
BRANCH 16 26
ATOM     24   N  ASG B   2       6.283  65.463  38.7840  0.00  0.00     0.000 N
ATOM     26  HD  ASG B   2       5.660  65.744  38.2530  0.00  0.00     0.000 HD
ATOM     26   C  ASG B   2       7.479  66.001  39.0840  0.00  0.00     0.000 C
ATOM     27   C  ASG B   2       8.671  65.160  38.7810  0.00  0.00     0.000 C
ATOM     28   O  ASG B   2       7.578  67.118  39.5780  0.00  0.00     0.000 OA
ENDBRANCH 16 26
BRANCH 18 29
ATOM     29   O  ASG B   2       3.767  67.311  41.5510  0.00  0.00     0.000 O
ATOM     30   O  ASG B   2       2.151  67.451  43.3980  0.00  0.00     0.000 OA
ATOM     31   O  ASG B   2       4.514  67.161  43.8750  0.00  0.00     0.000 OA
ATOM     32   O  ASG B   2       3.708  69.258  42.9810  0.00  0.00     0.000 OA
ATOM     33   S  ASG B   2       3.515  67.810  43.0580  0.00  0.00     0.000 S
ENDBRANCH 18 29
BRANCH 15 34
ATOM     34  O4  ASG B   3       4.118  66.444  37.0390  0.00  0.00     0.000 O
BRANCH 34 38
ATOM     35  C1  GCT B   3       4.848  66.082  33.0770  0.00  0.00     0.000 C
ATOM     36  C2  GCT B   3       3.378  66.091  33.4340  0.00  0.00     0.000 C
ATOM     37  C3  GCT B   3       3.163  66.657  34.8310  0.00  0.00     0.000 C
ATOM     38  C4  GCT B   3       3.925  65.796  35.8460  0.00  0.00     0.000 C
ATOM     39  C5  GCT B   3       5.241  65.236  35.2580  0.00  0.00     0.000 C
ATOM     40  O5  GCT B   3       5.652  66.143  34.2500  0.00  0.00     0.000 O
ATOM     41   O  GCT B   3       2.733  66.909  32.4670  0.00  0.00     0.000 O
ATOM     43  HD  GCT B   3       2.509  66.766  31.6430  0.00  0.00     0.000 HD
ATOM     43   O  GCT B   3       1.745  66.708  35.0930  0.00  0.00     0.000 O
ATOM     45  HD  GCT B   3       1.520  66.566  34.2690  0.00  0.00     0.000 HD
BRANCH 39 45
ATOM     45   C  GCT B   3       5.236  63.831  34.6960  0.00  0.00     0.000 C
ATOM     46   O  GCT B   3       4.129  63.243  34.4850  0.00  0.00     0.000 OA
ATOM     47   O  GCT B   3       6.333  63.305  34.4460  0.00  0.00     0.000 OA
ENDBRANCH 39 45
BRANCH 35 48
ATOM     48  O3  ASG B   4       5.028  65.357  31.9940  0.00  0.00     0.000 O
BRANCH 48 51
ATOM     49  C1  ASG B   4       7.386  66.548  29.4030  0.00  0.00     0.000 C
ATOM     50  C2  ASG B   4       6.092  66.399  30.2210  0.00  0.00     0.000 C
ATOM     51  C3  ASG B   4       6.333  65.591  31.4940  0.00  0.00     0.000 C
ATOM     52  C4  ASG B   4       7.061  64.292  31.1910  0.00  0.00     0.000 C
ATOM     53  C5  ASG B   4       8.334  64.630  30.4200  0.00  0.00     0.000 C
ATOM     54  O5  ASG B   4       7.979  65.279  29.1840  0.00  0.00     0.000 O
BRANCH 50 57
ATOM     55   N  ASG B   4       5.897  67.830  30.2590  0.00  0.00     0.000 N
ATOM     57  HD  ASG B   4       5.582  67.924  29.4580  0.00  0.00     0.000 HD
ATOM     57   O  ASG B   4       4.242  67.839  28.7510  0.00  0.00     0.000 OA
ATOM     58   C  ASG B   4       4.909  68.433  29.5920  0.00  0.00     0.000 C
ATOM     59   C  ASG B   4       4.709  69.885  29.9030  0.00  0.00     0.000 C
ENDBRANCH 50 57
BRANCH 52 60
ATOM     60   O  ASG B   4       6.063  63.505  30.4220  0.00  0.00     0.000 O
ATOM     61   O  ASG B   4       6.316  61.504  31.8920  0.00  0.00     0.000 OA
ATOM     62   O  ASG B   4       4.662  61.515  30.1800  0.00  0.00     0.000 OA
ATOM     63   O  ASG B   4       6.973  61.584  29.5680  0.00  0.00     0.000 OA
ATOM     64   S  ASG B   4       5.959  61.913  30.5750  0.00  0.00     0.000 S
ENDBRANCH 52 60
ATOM     65   O  ASG B   4      10.511  63.854  29.6850  0.00  0.00     0.000 O
ATOM     67  HD  ASG B   4      10.352  64.151  28.8880  0.00  0.00     0.000 HD
ATOM     67   O  ASG B   4      10.511  63.854  29.6850  0.00  0.00     0.000 O
ATOM     69  HD  ASG B   4      10.352  64.151  28.8880  0.00  0.00     0.000 HD
ENDBRANCH 48 51
ENDBRANCH 35 48
ENDBRANCH 34 38
ENDBRANCH 15 34
ENDBRANCH 14 17
ENDBRANCH 1 14
TORSDOF 12
ENDMDL
MODEL 60
REMARK VINA RESULT:      -7.1     20.199     23.479
ROOT
ATOM      1  C1  GAD B   1      16.603  18.638  31.8470  0.00  0.00     0.000 C
ATOM      2  C2  GAD B   1      16.407  17.171  31.4530  0.00  0.00     0.000 C
ATOM      3  C3  GAD B   1      15.411  17.067  30.2910  0.00  0.00     0.000 C
ATOM      4  C4  GAD B   1      14.324  18.145  30.2890  0.00  0.00     0.000 C
ATOM      5  C5  GAD B   1      14.301  19.203  31.1240  0.00  0.00     0.000 C
ATOM      6  O5  GAD B   1      15.350  19.286  32.1080  0.00  0.00     0.000 O
ATOM      7   O  GAD B   1      17.696  16.514  31.1620  0.00  0.00     0.000 O
ATOM      9  HD  GAD B   1      17.987  17.221  31.5690  0.00  0.00     0.000 HD
ATOM      9   O  GAD B   1      14.718  15.799  30.2980  0.00  0.00     0.000 O
ATOM     11  HD  GAD B   1      15.009  16.505  30.7050  0.00  0.00     0.000 HD
ENDROOT
BRANCH 5 11
ATOM     11   C  GAD B   1      13.315  20.306  31.0610  0.00  0.00     0.000 C
ATOM     12   O  GAD B   1      13.164  20.880  29.9370  0.00  0.00     0.000 OA
ATOM     13   O  GAD B   1      12.714  20.698  32.1280  0.00  0.00     0.000 OA
ENDBRANCH 5 11
BRANCH 1 14
ATOM     14  O3  ASG B   2      17.063  19.038  33.0480  0.00  0.00     0.000 O
BRANCH 14 17
ATOM     15  C1  ASG B   2      19.430  18.365  35.9150  0.00  0.00     0.000 C
ATOM     16  C2  ASG B   2      18.100  18.734  35.2430  0.00  0.00     0.000 C
ATOM     17  C3  ASG B   2      18.281  18.703  33.7230  0.00  0.00     0.000 C
ATOM     18  C4  ASG B   2      19.374  19.671  33.3120  0.00  0.00     0.000 C
ATOM     19  C5  ASG B   2      20.644  19.350  34.0940  0.00  0.00     0.000 C
ATOM     20  O5  ASG B   2      20.365  19.347  35.5080  0.00  0.00     0.000 O
ATOM     21   C  ASG B   2      21.728  20.357  33.8770  0.00  0.00     0.000 C
ATOM     22   O  ASG B   2      22.776  20.116  34.7830  0.00  0.00     0.000 O
ATOM     24  HD  ASG B   2      23.489  20.085  35.2740  0.00  0.00     0.000 HD
BRANCH 16 26
ATOM     24   N  ASG B   2      16.815  19.176  35.7350  0.00  0.00     0.000 N
ATOM     26  HD  ASG B   2      17.206  19.552  35.0590  0.00  0.00     0.000 HD
ATOM     26   C  ASG B   2      15.719  18.397  35.7830  0.00  0.00     0.000 C
ATOM     27   C  ASG B   2      14.595  18.899  36.6230  0.00  0.00     0.000 C
ATOM     28   O  ASG B   2      15.653  17.338  35.1700  0.00  0.00     0.000 OA
ENDBRANCH 16 26
BRANCH 18 29
ATOM     29   O  ASG B   2      18.862  21.020  33.5870  0.00  0.00     0.000 O
ATOM     30   O  ASG B   2      20.044  22.072  31.7060  0.00  0.00     0.000 OA
ATOM     31   O  ASG B   2      17.647  21.711  31.5800  0.00  0.00     0.000 OA
ATOM     32   O  ASG B   2      18.543  23.365  33.0980  0.00  0.00     0.000 OA
ATOM     33   S  ASG B   2      18.770  22.100  32.4000  0.00  0.00     0.000 S
ENDBRANCH 18 29
BRANCH 15 34
ATOM     34  O4  ASG B   3      19.370  18.359  37.3130  0.00  0.00     0.000 O
BRANCH 34 38
ATOM     35  C1  GCT B   3      16.888  15.188  37.7010  0.00  0.00     0.000 C
ATOM     36  C2  GCT B   3      16.843  16.152  38.8670  0.00  0.00     0.000 C
ATOM     37  C3  GCT B   3      17.438  17.498  38.4800  0.00  0.00     0.000 C
ATOM     38  C4  GCT B   3      18.894  17.299  38.0430  0.00  0.00     0.000 C
ATOM     39  C5  GCT B   3      19.104  15.946  37.3270  0.00  0.00     0.000 C
ATOM     40  O5  GCT B   3      17.860  15.598  36.7450  0.00  0.00     0.000 O
ATOM     41   O  GCT B   3      15.473  16.300  39.2150  0.00  0.00     0.000 O
ATOM     43  HD  GCT B   3      14.925  15.788  39.6470  0.00  0.00     0.000 HD
ATOM     43   O  GCT B   3      17.307  18.398  39.6010  0.00  0.00     0.000 O
ATOM     45  HD  GCT B   3      16.759  17.886  40.0330  0.00  0.00     0.000 HD
BRANCH 39 45
ATOM     45   C  GCT B   3      19.623  14.776  38.1350  0.00  0.00     0.000 C
ATOM     46   O  GCT B   3      19.805  14.911  39.3860  0.00  0.00     0.000 OA
ATOM     47   O  GCT B   3      19.840  13.710  37.5360  0.00  0.00     0.000 OA
ENDBRANCH 39 45
BRANCH 35 48
ATOM     48  O3  ASG B   4      16.618  13.974  38.1300  0.00  0.00     0.000 O
BRANCH 48 51
ATOM     49  C1  ASG B   4      13.631  11.791  38.0780  0.00  0.00     0.000 C
ATOM     50  C2  ASG B   4      14.872  12.530  38.6060  0.00  0.00     0.000 C
ATOM     51  C3  ASG B   4      15.370  13.564  37.6000  0.00  0.00     0.000 C
ATOM     52  C4  ASG B   4      15.520  12.956  36.2150  0.00  0.00     0.000 C
ATOM     53  C5  ASG B   4      14.191  12.309  35.8340  0.00  0.00     0.000 C
ATOM     54  O5  ASG B   4      13.883  11.270  36.7830  0.00  0.00     0.000 O
BRANCH 50 57
ATOM     55   N  ASG B   4      14.764  13.232  39.8640  0.00  0.00     0.000 N
ATOM     57  HD  ASG B   4      14.544  12.554  40.3560  0.00  0.00     0.000 HD
ATOM     57   O  ASG B   4      15.232  11.442  41.1250  0.00  0.00     0.000 OA
ATOM     58   C  ASG B   4      15.057  12.653  41.0320  0.00  0.00     0.000 C
ATOM     59   C  ASG B   4      15.103  13.569  42.2160  0.00  0.00     0.000 C
ENDBRANCH 50 57
BRANCH 52 60
ATOM     60   O  ASG B   4      16.648  12.002  36.3740  0.00  0.00     0.000 O
ATOM     61   O  ASG B   4      17.950  13.032  34.5100  0.00  0.00     0.000 OA
ATOM     62   O  ASG B   4      18.924  11.298  35.8200  0.00  0.00     0.000 OA
ATOM     63   O  ASG B   4      17.021  10.803  34.4590  0.00  0.00     0.000 OA
ATOM     64   S  ASG B   4      17.751  11.817  35.2260  0.00  0.00     0.000 S
ENDBRANCH 52 60
ATOM     65   O  ASG B   4      12.818  11.431  34.0380  0.00  0.00     0.000 O
ATOM     67  HD  ASG B   4      12.637  10.731  34.5150  0.00  0.00     0.000 HD
ATOM     67   O  ASG B   4      12.818  11.431  34.0380  0.00  0.00     0.000 O
ATOM     69  HD  ASG B   4      12.637  10.731  34.5150  0.00  0.00     0.000 HD
ENDBRANCH 48 51
ENDBRANCH 35 48
ENDBRANCH 34 38
ENDBRANCH 15 34
ENDBRANCH 14 17
ENDBRANCH 1 14
TORSDOF 12
ENDMDL
MODEL 61
REMARK VINA RESULT:      -7.1     19.238     23.224
ROOT
ATOM      1  C1  GAD B   1      22.571  52.301  46.8160  0.00  0.00     0.000 C
ATOM      2  C2  GAD B   1      23.913  52.572  47.5030  0.00  0.00     0.000 C
ATOM      3  C3  GAD B   1      25.032  52.653  46.4590  0.00  0.00     0.000 C
ATOM      4  C4  GAD B   1      24.823  51.761  45.2330  0.00  0.00     0.000 C
ATOM      5  C5  GAD B   1      23.693  51.071  44.9800  0.00  0.00     0.000 C
ATOM      6  O5  GAD B   1      22.640  51.151  45.9590  0.00  0.00     0.000 O
ATOM      7   O  GAD B   1      23.844  53.769  48.3630  0.00  0.00     0.000 O
ATOM      9  HD  GAD B   1      22.997  53.633  48.2450  0.00  0.00     0.000 HD
ATOM      9   O  GAD B   1      26.309  52.272  47.0190  0.00  0.00     0.000 O
ATOM     11  HD  GAD B   1      25.462  52.136  46.9010  0.00  0.00     0.000 HD
ENDROOT
BRANCH 5 11
ATOM     11   C  GAD B   1      23.439  50.291  43.7460  0.00  0.00     0.000 C
ATOM     12   O  GAD B   1      22.262  49.842  43.5810  0.00  0.00     0.000 OA
ATOM     13   O  GAD B   1      24.405  50.026  42.9390  0.00  0.00     0.000 OA
ENDBRANCH 5 11
BRANCH 1 14
ATOM     14  O3  ASG B   2      21.500  51.776  47.4390  0.00  0.00     0.000 O
BRANCH 14 17
ATOM     15  C1  ASG B   2      20.280  51.450  51.0010  0.00  0.00     0.000 C
ATOM     16  C2  ASG B   2      20.947  51.000  49.6930  0.00  0.00     0.000 C
ATOM     17  C3  ASG B   2      20.886  52.146  48.6790  0.00  0.00     0.000 C
ATOM     18  C4  ASG B   2      19.443  52.545  48.4340  0.00  0.00     0.000 C
ATOM     19  C5  ASG B   2      18.781  52.865  49.7710  0.00  0.00     0.000 C
ATOM     20  O5  ASG B   2      18.937  51.754  50.6760  0.00  0.00     0.000 O
ATOM     21   C  ASG B   2      17.311  53.108  49.6460  0.00  0.00     0.000 C
ATOM     22   O  ASG B   2      16.740  53.182  50.9290  0.00  0.00     0.000 O
ATOM     24  HD  ASG B   2      16.259  53.253  51.6450  0.00  0.00     0.000 HD
BRANCH 16 26
ATOM     24   N  ASG B   2      22.258  50.433  49.9070  0.00  0.00     0.000 N
ATOM     26  HD  ASG B   2      21.623  50.363  50.4920  0.00  0.00     0.000 HD
ATOM     26   C  ASG B   2      22.814  49.501  49.1110  0.00  0.00     0.000 C
ATOM     27   C  ASG B   2      24.280  49.287  49.2760  0.00  0.00     0.000 C
ATOM     28   O  ASG B   2      22.150  48.868  48.2990  0.00  0.00     0.000 OA
ENDBRANCH 16 26
BRANCH 18 29
ATOM     29   O  ASG B   2      18.810  51.416  47.7400  0.00  0.00     0.000 O
ATOM     30   O  ASG B   2      17.388  52.827  46.3150  0.00  0.00     0.000 OA
ATOM     31   O  ASG B   2      19.319  51.703  45.3650  0.00  0.00     0.000 OA
ATOM     32   O  ASG B   2      17.390  50.419  46.0580  0.00  0.00     0.000 OA
ATOM     33   S  ASG B   2      18.195  51.623  46.2690  0.00  0.00     0.000 S
ENDBRANCH 18 29
BRANCH 15 34
ATOM     34  O4  ASG B   3      20.288  50.471  52.0010  0.00  0.00     0.000 O
BRANCH 34 38
ATOM     35  C1  GCT B   3      20.105  52.317  55.5960  0.00  0.00     0.000 C
ATOM     36  C2  GCT B   3      21.457  52.414  54.9220  0.00  0.00     0.000 C
ATOM     37  C3  GCT B   3      21.345  52.102  53.4360  0.00  0.00     0.000 C
ATOM     38  C4  GCT B   3      20.790  50.683  53.2600  0.00  0.00     0.000 C
ATOM     39  C5  GCT B   3      19.780  50.313  54.3690  0.00  0.00     0.000 C
ATOM     40  O5  GCT B   3      19.210  51.530  54.8190  0.00  0.00     0.000 O
ATOM     41   O  GCT B   3      21.908  53.747  55.1120  0.00  0.00     0.000 O
ATOM     43  HD  GCT B   3      22.247  54.153  55.7980  0.00  0.00     0.000 HD
ATOM     43   O  GCT B   3      22.643  52.275  52.8310  0.00  0.00     0.000 O
ATOM     45  HD  GCT B   3      22.982  52.682  53.5160  0.00  0.00     0.000 HD
BRANCH 39 45
ATOM     45   C  GCT B   3      20.277  49.523  55.5610  0.00  0.00     0.000 C
ATOM     46   O  GCT B   3      21.527  49.425  55.7710  0.00  0.00     0.000 OA
ATOM     47   O  GCT B   3      19.428  49.005  56.3050  0.00  0.00     0.000 OA
ENDBRANCH 39 45
BRANCH 35 48
ATOM     48  O3  ASG B   4      20.269  52.329  56.9010  0.00  0.00     0.000 O
BRANCH 48 51
ATOM     49  C1  ASG B   4      19.037  54.667  59.4910  0.00  0.00     0.000 C
ATOM     50  C2  ASG B   4      20.012  53.898  58.5840  0.00  0.00     0.000 C
ATOM     51  C3  ASG B   4      19.269  53.147  57.4840  0.00  0.00     0.000 C
ATOM     52  C4  ASG B   4      18.129  52.320  58.0550  0.00  0.00     0.000 C
ATOM     53  C5  ASG B   4      17.241  53.244  58.8840  0.00  0.00     0.000 C
ATOM     54  O5  ASG B   4      18.017  53.801  59.9630  0.00  0.00     0.000 O
BRANCH 50 57
ATOM     55   N  ASG B   4      20.932  54.877  58.0520  0.00  0.00     0.000 N
ATOM     57  HD  ASG B   4      21.334  55.072  58.7930  0.00  0.00     0.000 HD
ATOM     57   O  ASG B   4      22.492  54.552  59.6240  0.00  0.00     0.000 OA
ATOM     58   C  ASG B   4      22.156  55.056  58.5570  0.00  0.00     0.000 C
ATOM     59   C  ASG B   4      23.060  55.950  57.7650  0.00  0.00     0.000 C
ENDBRANCH 50 57
BRANCH 52 60
ATOM     60   O  ASG B   4      18.823  51.265  58.8370  0.00  0.00     0.000 O
ATOM     61   O  ASG B   4      17.036  49.580  58.3930  0.00  0.00     0.000 OA
ATOM     62   O  ASG B   4      19.015  48.932  59.5470  0.00  0.00     0.000 OA
ATOM     63   O  ASG B   4      17.531  50.505  60.5690  0.00  0.00     0.000 OA
ATOM     64   S  ASG B   4      18.054  49.943  59.3200  0.00  0.00     0.000 S
ENDBRANCH 52 60
ATOM     65   O  ASG B   4      15.079  53.550  59.9400  0.00  0.00     0.000 O
ATOM     67  HD  ASG B   4      15.468  53.829  60.6610  0.00  0.00     0.000 HD
ATOM     67   O  ASG B   4      15.079  53.550  59.9400  0.00  0.00     0.000 O
ATOM     69  HD  ASG B   4      15.468  53.829  60.6610  0.00  0.00     0.000 HD
ENDBRANCH 48 51
ENDBRANCH 35 48
ENDBRANCH 34 38
ENDBRANCH 15 34
ENDBRANCH 14 17
ENDBRANCH 1 14
TORSDOF 12
ENDMDL
MODEL 62
REMARK VINA RESULT:      -7.1      9.200     12.117
ROOT
ATOM      1  C1  GAD B   1      17.632  27.025  33.5720  0.00  0.00     0.000 C
ATOM      2  C2  GAD B   1      16.819  27.685  34.6900  0.00  0.00     0.000 C
ATOM      3  C3  GAD B   1      15.390  27.961  34.2090  0.00  0.00     0.000 C
ATOM      4  C4  GAD B   1      15.273  28.277  32.7150  0.00  0.00     0.000 C
ATOM      5  C5  GAD B   1      16.289  28.175  31.8360  0.00  0.00     0.000 C
ATOM      6  O5  GAD B   1      17.575  27.788  32.3580  0.00  0.00     0.000 O
ATOM      7   O  GAD B   1      16.860  26.885  35.9300  0.00  0.00     0.000 O
ATOM      9  HD  GAD B   1      17.518  26.517  35.5030  0.00  0.00     0.000 HD
ATOM      9   O  GAD B   1      14.804  29.085  34.9030  0.00  0.00     0.000 O
ATOM     11  HD  GAD B   1      15.461  28.717  34.4760  0.00  0.00     0.000 HD
ENDROOT
BRANCH 5 11
ATOM     11   C  GAD B   1      16.163  28.375  30.3730  0.00  0.00     0.000 C
ATOM     12   O  GAD B   1      15.049  28.068  29.8450  0.00  0.00     0.000 OA
ATOM     13   O  GAD B   1      17.176  28.765  29.6840  0.00  0.00     0.000 OA
ENDBRANCH 5 11
BRANCH 1 14
ATOM     14  O3  ASG B   2      18.977  27.033  33.5170  0.00  0.00     0.000 O
BRANCH 14 17
ATOM     15  C1  ASG B   2      22.129  28.400  35.0900  0.00  0.00     0.000 C
ATOM     16  C2  ASG B   2      21.137  28.095  33.9590  0.00  0.00     0.000 C
ATOM     17  C3  ASG B   2      19.937  27.338  34.5350  0.00  0.00     0.000 C
ATOM     18  C4  ASG B   2      20.403  26.056  35.1980  0.00  0.00     0.000 C
ATOM     19  C5  ASG B   2      21.478  26.389  36.2270  0.00  0.00     0.000 C
ATOM     20  O5  ASG B   2      22.536  27.147  35.6080  0.00  0.00     0.000 O
ATOM     21   C  ASG B   2      22.115  25.171  36.8140  0.00  0.00     0.000 C
ATOM     22   O  ASG B   2      23.229  25.552  37.5840  0.00  0.00     0.000 O
ATOM     24  HD  ASG B   2      23.929  25.639  38.0870  0.00  0.00     0.000 HD
BRANCH 16 26
ATOM     24   N  ASG B   2      20.727  29.253  33.1980  0.00  0.00     0.000 N
ATOM     26  HD  ASG B   2      21.486  29.218  33.6140  0.00  0.00     0.000 HD
ATOM     26   C  ASG B   2      20.457  29.231  31.8800  0.00  0.00     0.000 C
ATOM     27   C  ASG B   2      19.728  30.413  31.3400  0.00  0.00     0.000 C
ATOM     28   O  ASG B   2      20.791  28.290  31.1690  0.00  0.00     0.000 OA
ENDBRANCH 16 26
BRANCH 18 29
ATOM     29   O  ASG B   2      20.894  25.185  34.1210  0.00  0.00     0.000 O
ATOM     30   O  ASG B   2      20.218  23.096  35.2270  0.00  0.00     0.000 OA
ATOM     31   O  ASG B   2      18.957  23.923  33.3250  0.00  0.00     0.000 OA
ATOM     32   O  ASG B   2      21.193  23.060  33.0110  0.00  0.00     0.000 OA
ATOM     33   S  ASG B   2      20.258  23.724  33.9190  0.00  0.00     0.000 S
ENDBRANCH 18 29
BRANCH 15 34
ATOM     34  O4  ASG B   3      23.266  29.098  34.6670  0.00  0.00     0.000 O
BRANCH 34 38
ATOM     35  C1  GCT B   3      23.924  30.984  38.1850  0.00  0.00     0.000 C
ATOM     36  C2  GCT B   3      23.415  31.891  37.0850  0.00  0.00     0.000 C
ATOM     37  C3  GCT B   3      22.785  31.080  35.9620  0.00  0.00     0.000 C
ATOM     38  C4  GCT B   3      23.833  30.121  35.3840  0.00  0.00     0.000 C
ATOM     39  C5  GCT B   3      24.813  29.613  36.4650  0.00  0.00     0.000 C
ATOM     40  O5  GCT B   3      24.115  29.660  37.6980  0.00  0.00     0.000 O
ATOM     41   O  GCT B   3      22.446  32.742  37.6820  0.00  0.00     0.000 O
ATOM     43  HD  GCT B   3      22.520  33.439  38.1910  0.00  0.00     0.000 HD
ATOM     43   O  GCT B   3      22.255  31.992  34.9770  0.00  0.00     0.000 O
ATOM     45  HD  GCT B   3      22.329  32.689  35.4860  0.00  0.00     0.000 HD
BRANCH 39 45
ATOM     45   C  GCT B   3      26.145  30.315  36.6170  0.00  0.00     0.000 C
ATOM     46   O  GCT B   3      26.993  29.877  37.4560  0.00  0.00     0.000 OA
ATOM     47   O  GCT B   3      26.364  31.300  35.8930  0.00  0.00     0.000 OA
ENDBRANCH 39 45
BRANCH 35 48
ATOM     48  O3  ASG B   4      24.687  31.678  39.0020  0.00  0.00     0.000 O
BRANCH 48 51
ATOM     49  C1  ASG B   4      24.294  32.490  42.5900  0.00  0.00     0.000 C
ATOM     50  C2  ASG B   4      24.396  32.682  41.0680  0.00  0.00     0.000 C
ATOM     51  C3  ASG B   4      24.356  31.342  40.3380  0.00  0.00     0.000 C
ATOM     52  C4  ASG B   4      25.352  30.360  40.9350  0.00  0.00     0.000 C
ATOM     53  C5  ASG B   4      25.079  30.259  42.4330  0.00  0.00     0.000 C
ATOM     54  O5  ASG B   4      25.264  31.556  43.0350  0.00  0.00     0.000 O
BRANCH 50 57
ATOM     55   N  ASG B   4      23.285  33.547  40.7450  0.00  0.00     0.000 N
ATOM     57  HD  ASG B   4      23.585  34.266  41.1240  0.00  0.00     0.000 HD
ATOM     57   O  ASG B   4      24.493  35.433  40.7810  0.00  0.00     0.000 OA
ATOM     58   C  ASG B   4      23.441  34.856  40.5220  0.00  0.00     0.000 C
ATOM     59   C  ASG B   4      22.237  35.570  39.9890  0.00  0.00     0.000 C
ENDBRANCH 50 57
BRANCH 52 60
ATOM     60   O  ASG B   4      26.671  30.948  40.5840  0.00  0.00     0.000 O
ATOM     61   O  ASG B   4      27.824  28.736  40.6710  0.00  0.00     0.000 OA
ATOM     62   O  ASG B   4      29.017  30.667  39.9540  0.00  0.00     0.000 OA
ATOM     63   O  ASG B   4      28.234  30.552  42.2100  0.00  0.00     0.000 OA
ATOM     64   S  ASG B   4      28.033  30.137  40.8190  0.00  0.00     0.000 S
ENDBRANCH 52 60
ATOM     65   O  ASG B   4      25.432  28.982  44.4640  0.00  0.00     0.000 O
ATOM     67  HD  ASG B   4      25.630  29.709  44.8910  0.00  0.00     0.000 HD
ATOM     67   O  ASG B   4      25.432  28.982  44.4640  0.00  0.00     0.000 O
ATOM     69  HD  ASG B   4      25.630  29.709  44.8910  0.00  0.00     0.000 HD
ENDBRANCH 48 51
ENDBRANCH 35 48
ENDBRANCH 34 38
ENDBRANCH 15 34
ENDBRANCH 14 17
ENDBRANCH 1 14
TORSDOF 12
ENDMDL
MODEL 63
REMARK VINA RESULT:      -7.1      3.497     10.241
ROOT
ATOM      1  C1  GAD B   1      24.004  36.548  39.9530  0.00  0.00     0.000 C
ATOM      2  C2  GAD B   1      25.447  36.251  40.3730  0.00  0.00     0.000 C
ATOM      3  C3  GAD B   1      26.163  37.552  40.7530  0.00  0.00     0.000 C
ATOM      4  C4  GAD B   1      25.697  38.785  39.9740  0.00  0.00     0.000 C
ATOM      5  C5  GAD B   1      24.643  38.798  39.1330  0.00  0.00     0.000 C
ATOM      6  O5  GAD B   1      23.949  37.553  38.9290  0.00  0.00     0.000 O
ATOM      7   O  GAD B   1      25.498  35.236  41.4430  0.00  0.00     0.000 O
ATOM      9  HD  GAD B   1      24.681  35.120  41.1780  0.00  0.00     0.000 HD
ATOM      9   O  GAD B   1      27.589  37.457  40.5360  0.00  0.00     0.000 O
ATOM     11  HD  GAD B   1      26.772  37.341  40.2720  0.00  0.00     0.000 HD
ENDROOT
BRANCH 5 11
ATOM     11   C  GAD B   1      24.119  40.007  38.4570  0.00  0.00     0.000 C
ATOM     12   O  GAD B   1      23.679  39.860  37.2740  0.00  0.00     0.000 OA
ATOM     13   O  GAD B   1      24.195  41.154  39.0340  0.00  0.00     0.000 OA
ENDBRANCH 5 11
BRANCH 1 14
ATOM     14  O3  ASG B   2      23.259  35.726  39.1910  0.00  0.00     0.000 O
BRANCH 14 17
ATOM     15  C1  ASG B   2      21.157  35.923  36.0570  0.00  0.00     0.000 C
ATOM     16  C2  ASG B   2      21.434  35.841  37.5640  0.00  0.00     0.000 C
ATOM     17  C3  ASG B   2      22.947  35.800  37.7940  0.00  0.00     0.000 C
ATOM     18  C4  ASG B   2      23.549  34.608  37.0750  0.00  0.00     0.000 C
ATOM     19  C5  ASG B   2      23.147  34.659  35.6040  0.00  0.00     0.000 C
ATOM     20  O5  ASG B   2      21.713  34.752  35.4870  0.00  0.00     0.000 O
ATOM     21   C  ASG B   2      23.556  33.435  34.8490  0.00  0.00     0.000 C
ATOM     22   O  ASG B   2      22.971  33.459  33.5700  0.00  0.00     0.000 O
ATOM     24  HD  ASG B   2      22.683  33.344  32.7610  0.00  0.00     0.000 HD
BRANCH 16 26
ATOM     24   N  ASG B   2      20.802  36.879  38.3450  0.00  0.00     0.000 N
ATOM     26  HD  ASG B   2      20.485  36.616  37.5830  0.00  0.00     0.000 HD
ATOM     26   C  ASG B   2      20.329  36.701  39.5920  0.00  0.00     0.000 C
ATOM     27   C  ASG B   2      20.029  37.941  40.3630  0.00  0.00     0.000 C
ATOM     28   O  ASG B   2      20.156  35.583  40.0620  0.00  0.00     0.000 OA
ENDBRANCH 16 26
BRANCH 18 29
ATOM     29   O  ASG B   2      23.048  33.410  37.7610  0.00  0.00     0.000 O
ATOM     30   O  ASG B   2      25.114  32.116  37.4440  0.00  0.00     0.000 OA
ATOM     31   O  ASG B   2      24.568  33.009  39.6340  0.00  0.00     0.000 OA
ATOM     32   O  ASG B   2      23.264  31.197  38.7070  0.00  0.00     0.000 OA
ATOM     33   S  ASG B   2      24.082  32.378  38.4300  0.00  0.00     0.000 S
ENDBRANCH 18 29
BRANCH 15 34
ATOM     34  O4  ASG B   3      19.795  35.971  35.7370  0.00  0.00     0.000 O
BRANCH 34 38
ATOM     35  C1  GCT B   3      18.340  39.665  34.9660  0.00  0.00     0.000 C
ATOM     36  C2  GCT B   3      17.430  38.540  34.5230  0.00  0.00     0.000 C
ATOM     37  C3  GCT B   3      17.806  37.236  35.2130  0.00  0.00     0.000 C
ATOM     38  C4  GCT B   3      19.257  36.882  34.8650  0.00  0.00     0.000 C
ATOM     39  C5  GCT B   3      20.139  38.141  34.7060  0.00  0.00     0.000 C
ATOM     40  O5  GCT B   3      19.551  39.151  35.5080  0.00  0.00     0.000 O
ATOM     41   O  GCT B   3      16.110  38.924  34.8810  0.00  0.00     0.000 O
ATOM     43  HD  GCT B   3      15.552  39.483  34.5270  0.00  0.00     0.000 HD
ATOM     43   O  GCT B   3      16.868  36.216  34.8100  0.00  0.00     0.000 O
ATOM     45  HD  GCT B   3      16.309  36.775  34.4560  0.00  0.00     0.000 HD
BRANCH 39 45
ATOM     45   C  GCT B   3      20.375  38.684  33.3140  0.00  0.00     0.000 C
ATOM     46   O  GCT B   3      21.075  39.733  33.1590  0.00  0.00     0.000 OA
ATOM     47   O  GCT B   3      19.878  38.062  32.3600  0.00  0.00     0.000 OA
ENDBRANCH 39 45
BRANCH 35 48
ATOM     48  O3  ASG B   4      18.169  40.700  34.1720  0.00  0.00     0.000 O
BRANCH 48 51
ATOM     49  C1  ASG B   4      16.184  43.821  34.2820  0.00  0.00     0.000 C
ATOM     50  C2  ASG B   4      16.850  42.550  33.7280  0.00  0.00     0.000 C
ATOM     51  C3  ASG B   4      17.408  41.683  34.8530  0.00  0.00     0.000 C
ATOM     52  C4  ASG B   4      18.267  42.500  35.8040  0.00  0.00     0.000 C
ATOM     53  C5  ASG B   4      17.440  43.688  36.2880  0.00  0.00     0.000 C
ATOM     54  O5  ASG B   4      17.072  44.500  35.1560  0.00  0.00     0.000 O
BRANCH 50 57
ATOM     55   N  ASG B   4      17.811  42.245  32.6930  0.00  0.00     0.000 N
ATOM     57  HD  ASG B   4      17.247  42.045  32.0670  0.00  0.00     0.000 HD
ATOM     57   O  ASG B   4      16.441  42.761  30.9980  0.00  0.00     0.000 OA
ATOM     58   C  ASG B   4      17.565  42.475  31.4000  0.00  0.00     0.000 C
ATOM     59   C  ASG B   4      18.734  42.308  30.4790  0.00  0.00     0.000 C
ENDBRANCH 50 57
BRANCH 52 60
ATOM     60   O  ASG B   4      19.447  42.865  34.9790  0.00  0.00     0.000 O
ATOM     61   O  ASG B   4      21.054  41.865  36.6070  0.00  0.00     0.000 OA
ATOM     62   O  ASG B   4      21.848  42.718  34.5300  0.00  0.00     0.000 OA
ATOM     63   O  ASG B   4      20.892  44.226  36.1220  0.00  0.00     0.000 OA
ATOM     64   S  ASG B   4      20.928  42.859  35.5940  0.00  0.00     0.000 S
ENDBRANCH 52 60
ATOM     65   O  ASG B   4      17.211  45.443  37.9460  0.00  0.00     0.000 O
ATOM     67  HD  ASG B   4      17.052  46.019  37.3190  0.00  0.00     0.000 HD
ATOM     67   O  ASG B   4      17.211  45.443  37.9460  0.00  0.00     0.000 O
ATOM     69  HD  ASG B   4      17.052  46.019  37.3190  0.00  0.00     0.000 HD
ENDBRANCH 48 51
ENDBRANCH 35 48
ENDBRANCH 34 38
ENDBRANCH 15 34
ENDBRANCH 14 17
ENDBRANCH 1 14
TORSDOF 12
ENDMDL
MODEL 64
REMARK VINA RESULT:      -7.1      3.975      7.495
ROOT
ATOM      1  C1  GAD B   1      19.041  41.829  35.9410  0.00  0.00     0.000 C
ATOM      2  C2  GAD B   1      19.472  43.178  35.3550  0.00  0.00     0.000 C
ATOM      3  C3  GAD B   1      18.245  43.955  34.8640  0.00  0.00     0.000 C
ATOM      4  C4  GAD B   1      17.106  43.077  34.3380  0.00  0.00     0.000 C
ATOM      5  C5  GAD B   1      17.080  41.732  34.4280  0.00  0.00     0.000 C
ATOM      6  O5  GAD B   1      18.226  41.090  35.0180  0.00  0.00     0.000 O
ATOM      7   O  GAD B   1      20.288  43.945  36.3160  0.00  0.00     0.000 O
ATOM      9  HD  GAD B   1      20.326  43.165  36.6910  0.00  0.00     0.000 HD
ATOM      9   O  GAD B   1      18.584  44.858  33.7890  0.00  0.00     0.000 O
ATOM     11  HD  GAD B   1      18.621  44.079  34.1640  0.00  0.00     0.000 HD
ENDROOT
BRANCH 5 11
ATOM     11   C  GAD B   1      15.938  40.881  34.0190  0.00  0.00     0.000 C
ATOM     12   O  GAD B   1      15.321  40.265  34.9420  0.00  0.00     0.000 OA
ATOM     13   O  GAD B   1      15.660  40.728  32.7730  0.00  0.00     0.000 OA
ENDBRANCH 5 11
BRANCH 1 14
ATOM     14  O3  ASG B   2      19.861  40.769  36.0690  0.00  0.00     0.000 O
BRANCH 14 17
ATOM     15  C1  ASG B   2      23.092  39.798  37.7710  0.00  0.00     0.000 C
ATOM     16  C2  ASG B   2      22.170  40.154  36.5970  0.00  0.00     0.000 C
ATOM     17  C3  ASG B   2      20.761  40.428  37.1300  0.00  0.00     0.000 C
ATOM     18  C4  ASG B   2      20.240  39.210  37.8690  0.00  0.00     0.000 C
ATOM     19  C5  ASG B   2      21.245  38.813  38.9460  0.00  0.00     0.000 C
ATOM     20  O5  ASG B   2      22.549  38.631  38.3610  0.00  0.00     0.000 O
ATOM     21   C  ASG B   2      20.895  37.523  39.6170  0.00  0.00     0.000 C
ATOM     22   O  ASG B   2      21.965  37.119  40.4350  0.00  0.00     0.000 O
ATOM     24  HD  ASG B   2      22.535  36.753  40.9750  0.00  0.00     0.000 HD
BRANCH 16 26
ATOM     24   N  ASG B   2      22.667  41.226  35.7650  0.00  0.00     0.000 N
ATOM     26  HD  ASG B   2      23.195  40.709  36.2180  0.00  0.00     0.000 HD
ATOM     26   C  ASG B   2      22.459  41.308  34.4380  0.00  0.00     0.000 C
ATOM     27   C  ASG B   2      22.740  42.631  33.8120  0.00  0.00     0.000 C
ATOM     28   O  ASG B   2      22.060  40.350  33.7880  0.00  0.00     0.000 OA
ENDBRANCH 16 26
BRANCH 18 29
ATOM     29   O  ASG B   2      20.045  38.162  36.8580  0.00  0.00     0.000 O
ATOM     30   O  ASG B   2      18.251  37.022  38.0930  0.00  0.00     0.000 OA
ATOM     31   O  ASG B   2      17.718  38.343  36.1270  0.00  0.00     0.000 OA
ATOM     32   O  ASG B   2      18.916  36.255  35.8950  0.00  0.00     0.000 OA
ATOM     33   S  ASG B   2      18.629  37.409  36.7470  0.00  0.00     0.000 S
ENDBRANCH 18 29
BRANCH 15 34
ATOM     34  O4  ASG B   3      24.412  39.533  37.3900  0.00  0.00     0.000 O
BRANCH 34 38
ATOM     35  C1  GCT B   3      25.093  36.360  39.8060  0.00  0.00     0.000 C
ATOM     36  C2  GCT B   3      25.638  37.668  40.3380  0.00  0.00     0.000 C
ATOM     37  C3  GCT B   3      24.989  38.852  39.6340  0.00  0.00     0.000 C
ATOM     38  C4  GCT B   3      25.270  38.760  38.1290  0.00  0.00     0.000 C
ATOM     39  C5  GCT B   3      25.320  37.295  37.6370  0.00  0.00     0.000 C
ATOM     40  O5  GCT B   3      24.507  36.544  38.5210  0.00  0.00     0.000 O
ATOM     41   O  GCT B   3      25.339  37.695  41.7260  0.00  0.00     0.000 O
ATOM     43  HD  GCT B   3      25.697  37.295  42.4050  0.00  0.00     0.000 HD
ATOM     43   O  GCT B   3      25.492  40.069  40.2250  0.00  0.00     0.000 O
ATOM     45  HD  GCT B   3      25.850  39.670  40.9050  0.00  0.00     0.000 HD
BRANCH 39 45
ATOM     45   C  GCT B   3      26.671  36.626  37.5080  0.00  0.00     0.000 C
ATOM     46   O  GCT B   3      27.720  37.258  37.8500  0.00  0.00     0.000 OA
ATOM     47   O  GCT B   3      26.699  35.460  37.0800  0.00  0.00     0.000 OA
ENDBRANCH 39 45
BRANCH 35 48
ATOM     48  O3  ASG B   4      25.847  35.369  40.2310  0.00  0.00     0.000 O
BRANCH 48 51
ATOM     49  C1  ASG B   4      25.442  32.511  42.5450  0.00  0.00     0.000 C
ATOM     50  C2  ASG B   4      26.106  33.666  41.7770  0.00  0.00     0.000 C
ATOM     51  C3  ASG B   4      25.067  34.518  41.0530  0.00  0.00     0.000 C
ATOM     52  C4  ASG B   4      24.123  33.655  40.2330  0.00  0.00     0.000 C
ATOM     53  C5  ASG B   4      23.524  32.597  41.1560  0.00  0.00     0.000 C
ATOM     54  O5  ASG B   4      24.584  31.778  41.6860  0.00  0.00     0.000 O
BRANCH 50 57
ATOM     55   N  ASG B   4      26.948  34.639  42.4350  0.00  0.00     0.000 N
ATOM     57  HD  ASG B   4      27.514  34.085  42.7830  0.00  0.00     0.000 HD
ATOM     57   O  ASG B   4      28.790  33.368  42.3820  0.00  0.00     0.000 OA
ATOM     58   C  ASG B   4      28.262  34.455  42.5940  0.00  0.00     0.000 C
ATOM     59   C  ASG B   4      29.026  35.640  43.0970  0.00  0.00     0.000 C
ENDBRANCH 50 57
BRANCH 52 60
ATOM     60   O  ASG B   4      24.993  33.114  39.1570  0.00  0.00     0.000 O
ATOM     61   O  ASG B   4      23.195  33.298  37.4350  0.00  0.00     0.000 OA
ATOM     62   O  ASG B   4      25.389  32.632  36.7910  0.00  0.00     0.000 OA
ATOM     63   O  ASG B   4      24.115  31.211  38.2330  0.00  0.00     0.000 OA
ATOM     64   S  ASG B   4      24.377  32.579  37.7770  0.00  0.00     0.000 S
ENDBRANCH 52 60
ATOM     65   O  ASG B   4      21.757  30.967  41.4740  0.00  0.00     0.000 O
ATOM     67  HD  ASG B   4      22.339  30.383  41.7380  0.00  0.00     0.000 HD
ATOM     67   O  ASG B   4      21.757  30.967  41.4740  0.00  0.00     0.000 O
ATOM     69  HD  ASG B   4      22.339  30.383  41.7380  0.00  0.00     0.000 HD
ENDBRANCH 48 51
ENDBRANCH 35 48
ENDBRANCH 34 38
ENDBRANCH 15 34
ENDBRANCH 14 17
ENDBRANCH 1 14
TORSDOF 12
ENDMDL
MODEL 65
REMARK VINA RESULT:      -7.1     37.927     42.187
ROOT
ATOM      1  C1  GAD B   1       4.957  49.957  76.3100  0.00  0.00     0.000 C
ATOM      2  C2  GAD B   1       3.740  49.190  75.7810  0.00  0.00     0.000 C
ATOM      3  C3  GAD B   1       3.408  48.020  76.7150  0.00  0.00     0.000 C
ATOM      4  C4  GAD B   1       4.623  47.397  77.4080  0.00  0.00     0.000 C
ATOM      5  C5  GAD B   1       5.871  47.903  77.3530  0.00  0.00     0.000 C
ATOM      6  O5  GAD B   1       6.069  49.081  76.5480  0.00  0.00     0.000 O
ATOM      7   O  GAD B   1       2.591  50.090  75.5610  0.00  0.00     0.000 O
ATOM      9  HD  GAD B   1       3.221  50.681  75.6290  0.00  0.00     0.000 HD
ATOM      9   O  GAD B   1       2.755  46.944  76.0070  0.00  0.00     0.000 O
ATOM     11  HD  GAD B   1       3.385  47.534  76.0750  0.00  0.00     0.000 HD
ENDROOT
BRANCH 5 11
ATOM     11   C  GAD B   1       7.031  47.370  78.1050  0.00  0.00     0.000 C
ATOM     12   O  GAD B   1       7.427  46.202  77.8000  0.00  0.00     0.000 OA
ATOM     13   O  GAD B   1       7.542  48.048  79.0710  0.00  0.00     0.000 OA
ENDBRANCH 5 11
BRANCH 1 14
ATOM     14  O3  ASG B   2       5.737  50.745  75.5470  0.00  0.00     0.000 O
BRANCH 14 17
ATOM     15  C1  ASG B   2       5.447  53.846  73.4080  0.00  0.00     0.000 C
ATOM     16  C2  ASG B   2       5.601  52.348  73.7030  0.00  0.00     0.000 C
ATOM     17  C3  ASG B   2       5.599  52.133  75.2190  0.00  0.00     0.000 C
ATOM     18  C4  ASG B   2       6.728  52.921  75.8560  0.00  0.00     0.000 C
ATOM     19  C5  ASG B   2       6.612  54.384  75.4370  0.00  0.00     0.000 C
ATOM     20  O5  ASG B   2       6.564  54.483  74.0000  0.00  0.00     0.000 O
ATOM     21   C  ASG B   2       7.777  55.208  75.8820  0.00  0.00     0.000 C
ATOM     22   O  ASG B   2       7.705  56.478  75.2830  0.00  0.00     0.000 O
ATOM     24  HD  ASG B   2       7.787  57.290  74.9920  0.00  0.00     0.000 HD
BRANCH 16 26
ATOM     24   N  ASG B   2       5.850  51.051  73.1170  0.00  0.00     0.000 N
ATOM     26  HD  ASG B   2       6.035  51.228  73.9440  0.00  0.00     0.000 HD
ATOM     26   C  ASG B   2       4.892  50.267  72.5890  0.00  0.00     0.000 C
ATOM     27   C  ASG B   2       5.364  49.141  71.7340  0.00  0.00     0.000 C
ATOM     28   O  ASG B   2       3.703  50.471  72.8000  0.00  0.00     0.000 OA
ENDBRANCH 16 26
BRANCH 18 29
ATOM     29   O  ASG B   2       7.979  52.297  75.4040  0.00  0.00     0.000 O
ATOM     30   O  ASG B   2       9.256  52.934  77.4060  0.00  0.00     0.000 OA
ATOM     31   O  ASG B   2       8.559  50.630  77.0960  0.00  0.00     0.000 OA
ATOM     32   O  ASG B   2      10.270  51.578  75.6750  0.00  0.00     0.000 OA
ATOM     33   S  ASG B   2       9.076  51.830  76.4820  0.00  0.00     0.000 S
ENDBRANCH 18 29
BRANCH 15 34
ATOM     34  O4  ASG B   3       5.431  54.151  72.0430  0.00  0.00     0.000 O
BRANCH 34 38
ATOM     35  C1  GCT B   3       7.428  54.838  68.5930  0.00  0.00     0.000 C
ATOM     36  C2  GCT B   3       8.269  54.194  69.6730  0.00  0.00     0.000 C
ATOM     37  C3  GCT B   3       7.388  53.575  70.7490  0.00  0.00     0.000 C
ATOM     38  C4  GCT B   3       6.511  54.668  71.3720  0.00  0.00     0.000 C
ATOM     39  C5  GCT B   3       6.106  55.745  70.3400  0.00  0.00     0.000 C
ATOM     40  O5  GCT B   3       6.117  55.114  69.0720  0.00  0.00     0.000 O
ATOM     41   O  GCT B   3       9.046  53.191  69.0350  0.00  0.00     0.000 O
ATOM     43  HD  GCT B   3       9.756  53.233  68.5410  0.00  0.00     0.000 HD
ATOM     43   O  GCT B   3       8.235  52.917  71.7150  0.00  0.00     0.000 O
ATOM     45  HD  GCT B   3       8.944  52.959  71.2200  0.00  0.00     0.000 HD
BRANCH 39 45
ATOM     45   C  GCT B   3       6.920  57.019  70.2730  0.00  0.00     0.000 C
ATOM     46   O  GCT B   3       7.931  57.158  71.0320  0.00  0.00     0.000 OA
ATOM     47   O  GCT B   3       6.571  57.886  69.4560  0.00  0.00     0.000 OA
ENDBRANCH 39 45
BRANCH 35 48
ATOM     48  O3  ASG B   4       8.198  55.583  67.8280  0.00  0.00     0.000 O
BRANCH 48 51
ATOM     49  C1  ASG B   4       9.861  55.132  64.5540  0.00  0.00     0.000 C
ATOM     50  C2  ASG B   4       9.653  55.516  66.0290  0.00  0.00     0.000 C
ATOM     51  C3  ASG B   4       8.338  54.956  66.5650  0.00  0.00     0.000 C
ATOM     52  C4  ASG B   4       7.180  55.291  65.6400  0.00  0.00     0.000 C
ATOM     53  C5  ASG B   4       7.535  54.803  64.2380  0.00  0.00     0.000 C
ATOM     54  O5  ASG B   4       8.721  55.487  63.7880  0.00  0.00     0.000 O
BRANCH 50 57
ATOM     55   N  ASG B   4      10.690  55.095  66.9430  0.00  0.00     0.000 N
ATOM     57  HD  ASG B   4      11.345  55.531  66.5820  0.00  0.00     0.000 HD
ATOM     57   O  ASG B   4      11.957  56.918  66.6490  0.00  0.00     0.000 OA
ATOM     58   C  ASG B   4      11.720  55.883  67.2650  0.00  0.00     0.000 C
ATOM     59   C  ASG B   4      12.587  55.392  68.3820  0.00  0.00     0.000 C
ENDBRANCH 50 57
BRANCH 52 60
ATOM     60   O  ASG B   4       7.049  56.766  65.7670  0.00  0.00     0.000 O
ATOM     61   O  ASG B   4       4.642  56.625  66.4130  0.00  0.00     0.000 OA
ATOM     62   O  ASG B   4       5.756  58.730  66.4400  0.00  0.00     0.000 OA
ATOM     63   O  ASG B   4       5.449  57.599  64.3550  0.00  0.00     0.000 OA
ATOM     64   S  ASG B   4       5.611  57.475  65.8070  0.00  0.00     0.000 S
ENDBRANCH 52 60
ATOM     65   O  ASG B   4       6.708  54.243  62.0290  0.00  0.00     0.000 O
ATOM     67  HD  ASG B   4       7.352  54.697  61.6690  0.00  0.00     0.000 HD
ATOM     67   O  ASG B   4       6.708  54.243  62.0290  0.00  0.00     0.000 O
ATOM     69  HD  ASG B   4       7.352  54.697  61.6690  0.00  0.00     0.000 HD
ENDBRANCH 48 51
ENDBRANCH 35 48
ENDBRANCH 34 38
ENDBRANCH 15 34
ENDBRANCH 14 17
ENDBRANCH 1 14
TORSDOF 12
ENDMDL
MODEL 66
REMARK VINA RESULT:      -7.1     18.173     20.993
ROOT
ATOM      1  C1  GAD B   1      13.054  58.274  45.8510  0.00  0.00     0.000 C
ATOM      2  C2  GAD B   1      12.183  57.300  45.0500  0.00  0.00     0.000 C
ATOM      3  C3  GAD B   1      10.723  57.399  45.5110  0.00  0.00     0.000 C
ATOM      4  C4  GAD B   1      10.547  57.742  46.9930  0.00  0.00     0.000 C
ATOM      5  C5  GAD B   1      11.556  58.091  47.8160  0.00  0.00     0.000 C
ATOM      6  O5  GAD B   1      12.886  58.091  47.2650  0.00  0.00     0.000 O
ATOM      7   O  GAD B   1      12.339  57.508  43.5980  0.00  0.00     0.000 O
ATOM      9  HD  GAD B   1      13.030  57.949  43.8780  0.00  0.00     0.000 HD
ATOM      9   O  GAD B   1      10.015  56.157  45.3010  0.00  0.00     0.000 O
ATOM     11  HD  GAD B   1      10.706  56.597  45.5800  0.00  0.00     0.000 HD
ENDROOT
BRANCH 5 11
ATOM     11   C  GAD B   1      11.384  58.527  49.2220  0.00  0.00     0.000 C
ATOM     12   O  GAD B   1      12.426  58.915  49.8350  0.00  0.00     0.000 OA
ATOM     13   O  GAD B   1      10.236  58.428  49.7940  0.00  0.00     0.000 OA
ENDBRANCH 5 11
BRANCH 1 14
ATOM     14  O3  ASG B   2      14.387  58.149  45.9900  0.00  0.00     0.000 O
BRANCH 14 17
ATOM     15  C1  ASG B   2      17.353  55.819  45.7590  0.00  0.00     0.000 C
ATOM     16  C2  ASG B   2      16.430  56.866  46.3990  0.00  0.00     0.000 C
ATOM     17  C3  ASG B   2      15.281  57.177  45.4360  0.00  0.00     0.000 C
ATOM     18  C4  ASG B   2      15.833  57.685  44.1180  0.00  0.00     0.000 C
ATOM     19  C5  ASG B   2      16.840  56.675  43.5760  0.00  0.00     0.000 C
ATOM     20  O5  ASG B   2      17.848  56.403  44.5690  0.00  0.00     0.000 O
ATOM     21   C  ASG B   2      17.560  57.168  42.3620  0.00  0.00     0.000 C
ATOM     22   O  ASG B   2      18.609  56.285  42.0510  0.00  0.00     0.000 O
ATOM     24  HD  ASG B   2      19.281  55.834  41.7440  0.00  0.00     0.000 HD
BRANCH 16 26
ATOM     24   N  ASG B   2      16.048  56.506  47.7450  0.00  0.00     0.000 N
ATOM     26  HD  ASG B   2      16.819  56.297  47.4120  0.00  0.00     0.000 HD
ATOM     26   C  ASG B   2      15.725  57.399  48.7000  0.00  0.00     0.000 C
ATOM     27   C  ASG B   2      15.035  56.852  49.9020  0.00  0.00     0.000 C
ATOM     28   O  ASG B   2      15.985  58.590  48.5830  0.00  0.00     0.000 OA
ENDBRANCH 16 26
BRANCH 18 29
ATOM     29   O  ASG B   2      16.435  58.996  44.3960  0.00  0.00     0.000 O
ATOM     30   O  ASG B   2      15.935  59.923  42.1740  0.00  0.00     0.000 OA
ATOM     31   O  ASG B   2      14.651  60.643  44.1040  0.00  0.00     0.000 OA
ATOM     32   O  ASG B   2      16.967  61.296  43.8810  0.00  0.00     0.000 OA
ATOM     33   S  ASG B   2      15.948  60.291  43.5780  0.00  0.00     0.000 S
ENDBRANCH 18 29
BRANCH 15 34
ATOM     34  O4  ASG B   3      18.438  55.459  46.5660  0.00  0.00     0.000 O
BRANCH 34 38
ATOM     35  C1  GCT B   3      20.703  52.744  48.5310  0.00  0.00     0.000 C
ATOM     36  C2  GCT B   3      20.729  52.594  47.0250  0.00  0.00     0.000 C
ATOM     37  C3  GCT B   3      20.239  53.864  46.3450  0.00  0.00     0.000 C
ATOM     38  C4  GCT B   3      18.805  54.158  46.8010  0.00  0.00     0.000 C
ATOM     39  C5  GCT B   3      18.563  53.732  48.2670  0.00  0.00     0.000 C
ATOM     40  O5  GCT B   3      19.820  53.791  48.9180  0.00  0.00     0.000 O
ATOM     41   O  GCT B   3      22.080  52.334  46.6690  0.00  0.00     0.000 O
ATOM     43  HD  GCT B   3      22.568  51.621  46.7250  0.00  0.00     0.000 HD
ATOM     43   O  GCT B   3      20.349  53.693  44.9160  0.00  0.00     0.000 O
ATOM     45  HD  GCT B   3      20.838  52.980  44.9730  0.00  0.00     0.000 HD
BRANCH 39 45
ATOM     45   C  GCT B   3      17.927  52.384  48.5290  0.00  0.00     0.000 C
ATOM     46   O  GCT B   3      17.683  52.027  49.7240  0.00  0.00     0.000 OA
ATOM     47   O  GCT B   3      17.652  51.674  47.5470  0.00  0.00     0.000 OA
ENDBRANCH 39 45
BRANCH 35 48
ATOM     48  O3  ASG B   4      20.874  51.565  49.0890  0.00  0.00     0.000 O
BRANCH 48 51
ATOM     49  C1  ASG B   4      23.660  50.242  51.1330  0.00  0.00     0.000 C
ATOM     50  C2  ASG B   4      22.693  50.420  49.9510  0.00  0.00     0.000 C
ATOM     51  C3  ASG B   4      21.843  51.677  50.1170  0.00  0.00     0.000 C
ATOM     52  C4  ASG B   4      21.200  51.729  51.4920  0.00  0.00     0.000 C
ATOM     53  C5  ASG B   4      22.302  51.583  52.5380  0.00  0.00     0.000 C
ATOM     54  O5  ASG B   4      22.954  50.310  52.3610  0.00  0.00     0.000 O
BRANCH 50 57
ATOM     55   N  ASG B   4      23.571  50.450  48.8040  0.00  0.00     0.000 N
ATOM     57  HD  ASG B   4      23.810  49.618  48.8210  0.00  0.00     0.000 HD
ATOM     57   O  ASG B   4      23.306  48.283  48.3030  0.00  0.00     0.000 OA
ATOM     58   C  ASG B   4      23.730  49.394  47.9990  0.00  0.00     0.000 C
ATOM     59   C  ASG B   4      24.500  49.650  46.7400  0.00  0.00     0.000 C
ENDBRANCH 50 57
BRANCH 52 60
ATOM     60   O  ASG B   4      20.224  50.609  51.4620  0.00  0.00     0.000 O
ATOM     61   O  ASG B   4      18.609  51.805  52.9420  0.00  0.00     0.000 OA
ATOM     62   O  ASG B   4      18.008  49.712  51.9800  0.00  0.00     0.000 OA
ATOM     63   O  ASG B   4      19.800  49.797  53.5610  0.00  0.00     0.000 OA
ATOM     64   S  ASG B   4      19.035  50.509  52.5330  0.00  0.00     0.000 S
ENDBRANCH 52 60
ATOM     65   O  ASG B   4      22.924  51.869  54.8640  0.00  0.00     0.000 O
ATOM     67  HD  ASG B   4      23.279  51.079  54.8700  0.00  0.00     0.000 HD
ATOM     67   O  ASG B   4      22.924  51.869  54.8640  0.00  0.00     0.000 O
ATOM     69  HD  ASG B   4      23.279  51.079  54.8700  0.00  0.00     0.000 HD
ENDBRANCH 48 51
ENDBRANCH 35 48
ENDBRANCH 34 38
ENDBRANCH 15 34
ENDBRANCH 14 17
ENDBRANCH 1 14
TORSDOF 12
ENDMDL
MODEL 67
REMARK VINA RESULT:      -7.0      3.313     10.233
ROOT
ATOM      1  C1  GAD B   1      22.224  34.881  37.9270  0.00  0.00     0.000 C
ATOM      2  C2  GAD B   1      21.224  34.464  39.0100  0.00  0.00     0.000 C
ATOM      3  C3  GAD B   1      21.678  33.158  39.6710  0.00  0.00     0.000 C
ATOM      4  C4  GAD B   1      22.434  32.205  38.7420  0.00  0.00     0.000 C
ATOM      5  C5  GAD B   1      22.826  32.517  37.4900  0.00  0.00     0.000 C
ATOM      6  O5  GAD B   1      22.462  33.818  36.9920  0.00  0.00     0.000 O
ATOM      7   O  GAD B   1      21.001  35.551  39.9830  0.00  0.00     0.000 O
ATOM      9  HD  GAD B   1      21.383  36.004  39.3520  0.00  0.00     0.000 HD
ATOM      9   O  GAD B   1      20.557  32.407  40.1880  0.00  0.00     0.000 O
ATOM     11  HD  GAD B   1      20.939  32.860  39.5570  0.00  0.00     0.000 HD
ENDROOT
BRANCH 5 11
ATOM     11   C  GAD B   1      23.650  31.644  36.6220  0.00  0.00     0.000 C
ATOM     12   O  GAD B   1      23.472  31.747  35.3680  0.00  0.00     0.000 OA
ATOM     13   O  GAD B   1      24.440  30.773  37.1440  0.00  0.00     0.000 OA
ENDBRANCH 5 11
BRANCH 1 14
ATOM     14  O3  ASG B   2      21.928  35.713  36.9100  0.00  0.00     0.000 O
BRANCH 14 17
ATOM     15  C1  ASG B   2      19.353  37.826  35.1260  0.00  0.00     0.000 C
ATOM     16  C2  ASG B   2      20.563  36.890  35.2550  0.00  0.00     0.000 C
ATOM     17  C3  ASG B   2      20.808  36.588  36.7370  0.00  0.00     0.000 C
ATOM     18  C4  ASG B   2      21.048  37.880  37.4960  0.00  0.00     0.000 C
ATOM     19  C5  ASG B   2      19.883  38.831  37.2410  0.00  0.00     0.000 C
ATOM     20  O5  ASG B   2      19.693  39.010  35.8240  0.00  0.00     0.000 O
ATOM     21   C  ASG B   2      20.111  40.193  37.8150  0.00  0.00     0.000 C
ATOM     22   O  ASG B   2      19.105  41.064  37.3620  0.00  0.00     0.000 O
ATOM     24  HD  ASG B   2      18.555  41.704  37.1670  0.00  0.00     0.000 HD
BRANCH 16 26
ATOM     24   N  ASG B   2      20.466  35.686  34.4630  0.00  0.00     0.000 N
ATOM     26  HD  ASG B   2      20.056  36.417  34.2450  0.00  0.00     0.000 HD
ATOM     26   C  ASG B   2      21.519  35.075  33.8900  0.00  0.00     0.000 C
ATOM     27   C  ASG B   2      21.288  33.683  33.4100  0.00  0.00     0.000 C
ATOM     28   O  ASG B   2      22.603  35.634  33.7720  0.00  0.00     0.000 OA
ENDBRANCH 16 26
BRANCH 18 29
ATOM     29   O  ASG B   2      22.332  38.411  37.0190  0.00  0.00     0.000 O
ATOM     30   O  ASG B   2      22.881  39.538  39.1330  0.00  0.00     0.000 OA
ATOM     31   O  ASG B   2      24.043  37.500  38.5090  0.00  0.00     0.000 OA
ATOM     32   O  ASG B   2      24.448  39.546  37.2870  0.00  0.00     0.000 OA
ATOM     33   S  ASG B   2      23.494  38.762  38.0720  0.00  0.00     0.000 S
ENDBRANCH 18 29
BRANCH 15 34
ATOM     34  O4  ASG B   3      19.040  38.161  33.8040  0.00  0.00     0.000 O
BRANCH 34 38
ATOM     35  C1  GCT B   3      16.345  41.093  33.0940  0.00  0.00     0.000 C
ATOM     36  C2  GCT B   3      15.825  39.978  33.9760  0.00  0.00     0.000 C
ATOM     37  C3  GCT B   3      16.973  39.162  34.5520  0.00  0.00     0.000 C
ATOM     38  C4  GCT B   3      17.791  38.561  33.4030  0.00  0.00     0.000 C
ATOM     39  C5  GCT B   3      17.836  39.495  32.1720  0.00  0.00     0.000 C
ATOM     40  O5  GCT B   3      17.672  40.815  32.6600  0.00  0.00     0.000 O
ATOM     41   O  GCT B   3      15.089  40.600  35.0200  0.00  0.00     0.000 O
ATOM     43  HD  GCT B   3      14.299  40.955  35.0420  0.00  0.00     0.000 HD
ATOM     43   O  GCT B   3      16.427  38.161  35.4360  0.00  0.00     0.000 O
ATOM     45  HD  GCT B   3      15.637  38.516  35.4590  0.00  0.00     0.000 HD
BRANCH 39 45
ATOM     45   C  GCT B   3      16.853  39.251  31.0480  0.00  0.00     0.000 C
ATOM     46   O  GCT B   3      16.005  38.309  31.1490  0.00  0.00     0.000 OA
ATOM     47   O  GCT B   3      16.906  40.004  30.0610  0.00  0.00     0.000 OA
ENDBRANCH 39 45
BRANCH 35 48
ATOM     48  O3  ASG B   4      15.347  41.608  32.4090  0.00  0.00     0.000 O
BRANCH 48 51
ATOM     49  C1  ASG B   4      16.157  44.956  33.7570  0.00  0.00     0.000 C
ATOM     50  C2  ASG B   4      16.094  43.425  33.6340  0.00  0.00     0.000 C
ATOM     51  C3  ASG B   4      15.554  43.003  32.2700  0.00  0.00     0.000 C
ATOM     52  C4  ASG B   4      14.262  43.732  31.9400  0.00  0.00     0.000 C
ATOM     53  C5  ASG B   4      14.517  45.231  32.0690  0.00  0.00     0.000 C
ATOM     54  O5  ASG B   4      14.903  45.529  33.4250  0.00  0.00     0.000 O
BRANCH 50 57
ATOM     55   N  ASG B   4      15.903  44.049  34.9230  0.00  0.00     0.000 N
ATOM     57  HD  ASG B   4      16.002  43.339  35.4100  0.00  0.00     0.000 HD
ATOM     57   O  ASG B   4      17.131  42.551  36.0460  0.00  0.00     0.000 OA
ATOM     58   C  ASG B   4      16.527  43.619  36.0230  0.00  0.00     0.000 C
ATOM     59   C  ASG B   4      16.394  44.497  37.2290  0.00  0.00     0.000 C
ENDBRANCH 50 57
BRANCH 52 60
ATOM     60   O  ASG B   4      13.292  43.183  32.9230  0.00  0.00     0.000 O
ATOM     61   O  ASG B   4      12.367  41.541  31.2870  0.00  0.00     0.000 OA
ATOM     62   O  ASG B   4      11.633  41.500  33.5520  0.00  0.00     0.000 OA
ATOM     63   O  ASG B   4      11.131  43.406  32.1980  0.00  0.00     0.000 OA
ATOM     64   S  ASG B   4      12.046  42.290  32.4550  0.00  0.00     0.000 S
ENDBRANCH 52 60
ATOM     65   O  ASG B   4      13.735  47.463  31.5300  0.00  0.00     0.000 O
ATOM     67  HD  ASG B   4      13.869  47.711  32.3480  0.00  0.00     0.000 HD
ATOM     67   O  ASG B   4      13.735  47.463  31.5300  0.00  0.00     0.000 O
ATOM     69  HD  ASG B   4      13.869  47.711  32.3480  0.00  0.00     0.000 HD
ENDBRANCH 48 51
ENDBRANCH 35 48
ENDBRANCH 34 38
ENDBRANCH 15 34
ENDBRANCH 14 17
ENDBRANCH 1 14
TORSDOF 12
ENDMDL
MODEL 68
REMARK VINA RESULT:      -7.0     22.046     28.006
ROOT
ATOM      1  C1  GAD B   1      27.073  30.666  55.4680  0.00  0.00     0.000 C
ATOM      2  C2  GAD B   1      28.208  29.957  54.7210  0.00  0.00     0.000 C
ATOM      3  C3  GAD B   1      29.160  30.991  54.1070  0.00  0.00     0.000 C
ATOM      4  C4  GAD B   1      28.487  32.296  53.6750  0.00  0.00     0.000 C
ATOM      5  C5  GAD B   1      27.203  32.612  53.9390  0.00  0.00     0.000 C
ATOM      6  O5  GAD B   1      26.412  31.628  54.6320  0.00  0.00     0.000 O
ATOM      7   O  GAD B   1      28.901  28.987  55.5910  0.00  0.00     0.000 O
ATOM      9  HD  GAD B   1      28.188  29.116  56.0650  0.00  0.00     0.000 HD
ATOM      9   O  GAD B   1      29.819  30.472  52.9300  0.00  0.00     0.000 O
ATOM     11  HD  GAD B   1      29.106  30.601  53.4050  0.00  0.00     0.000 HD
ENDROOT
BRANCH 5 11
ATOM     11   C  GAD B   1      26.572  33.914  53.6200  0.00  0.00     0.000 C
ATOM     12   O  GAD B   1      26.560  34.263  52.3990  0.00  0.00     0.000 OA
ATOM     13   O  GAD B   1      26.140  34.671  54.5650  0.00  0.00     0.000 OA
ENDBRANCH 5 11
BRANCH 1 14
ATOM     14  O3  ASG B   2      25.888  30.094  55.7510  0.00  0.00     0.000 O
BRANCH 14 17
ATOM     15  C1  ASG B   2      23.087  30.350  58.2740  0.00  0.00     0.000 C
ATOM     16  C2  ASG B   2      24.307  29.726  57.5820  0.00  0.00     0.000 C
ATOM     17  C3  ASG B   2      24.747  30.632  56.4290  0.00  0.00     0.000 C
ATOM     18  C4  ASG B   2      23.607  30.810  55.4450  0.00  0.00     0.000 C
ATOM     19  C5  ASG B   2      22.377  31.314  56.1940  0.00  0.00     0.000 C
ATOM     20  O5  ASG B   2      22.072  30.431  57.2910  0.00  0.00     0.000 O
ATOM     21   C  ASG B   2      21.154  31.361  55.3340  0.00  0.00     0.000 C
ATOM     22   O  ASG B   2      20.030  31.625  56.1360  0.00  0.00     0.000 O
ATOM     24  HD  ASG B   2      19.260  31.783  56.5010  0.00  0.00     0.000 HD
BRANCH 16 26
ATOM     24   N  ASG B   2      25.483  29.483  58.3850  0.00  0.00     0.000 N
ATOM     26  HD  ASG B   2      24.704  29.619  58.7360  0.00  0.00     0.000 HD
ATOM     26   C  ASG B   2      26.222  28.360  58.3170  0.00  0.00     0.000 C
ATOM     27   C  ASG B   2      27.569  28.422  58.9510  0.00  0.00     0.000 C
ATOM     28   O  ASG B   2      25.807  27.348  57.7640  0.00  0.00     0.000 OA
ENDBRANCH 16 26
BRANCH 18 29
ATOM     29   O  ASG B   2      23.394  29.502  54.8130  0.00  0.00     0.000 O
ATOM     30   O  ASG B   2      22.766  30.434  52.6260  0.00  0.00     0.000 OA
ATOM     31   O  ASG B   2      24.941  29.396  52.9220  0.00  0.00     0.000 OA
ATOM     32   O  ASG B   2      22.940  28.039  52.9430  0.00  0.00     0.000 OA
ATOM     33   S  ASG B   2      23.528  29.351  53.2180  0.00  0.00     0.000 S
ENDBRANCH 18 29
BRANCH 15 34
ATOM     34  O4  ASG B   3      22.606  29.598  59.3520  0.00  0.00     0.000 O
BRANCH 34 38
ATOM     35  C1  GCT B   3      20.044  26.954  61.0270  0.00  0.00     0.000 C
ATOM     36  C2  GCT B   3      20.902  26.367  59.9270  0.00  0.00     0.000 C
ATOM     37  C3  GCT B   3      22.109  27.253  59.6510  0.00  0.00     0.000 C
ATOM     38  C4  GCT B   3      21.626  28.646  59.2300  0.00  0.00     0.000 C
ATOM     39  C5  GCT B   3      20.318  29.049  59.9490  0.00  0.00     0.000 C
ATOM     40  O5  GCT B   3      20.300  28.346  61.1790  0.00  0.00     0.000 O
ATOM     41   O  GCT B   3      21.322  25.089  60.3820  0.00  0.00     0.000 O
ATOM     43  HD  GCT B   3      20.912  24.328  60.4360  0.00  0.00     0.000 HD
ATOM     43   O  GCT B   3      22.926  26.615  58.6470  0.00  0.00     0.000 O
ATOM     45  HD  GCT B   3      22.517  25.854  58.7010  0.00  0.00     0.000 HD
BRANCH 39 45
ATOM     45   C  GCT B   3      19.005  28.832  59.2300  0.00  0.00     0.000 C
ATOM     46   O  GCT B   3      19.003  28.302  58.0740  0.00  0.00     0.000 OA
ATOM     47   O  GCT B   3      17.963  29.173  59.8130  0.00  0.00     0.000 OA
ENDBRANCH 39 45
BRANCH 35 48
ATOM     48  O3  ASG B   4      18.890  26.322  61.0620  0.00  0.00     0.000 O
BRANCH 48 51
ATOM     49  C1  ASG B   4      17.226  24.111  63.5180  0.00  0.00     0.000 C
ATOM     50  C2  ASG B   4      17.781  24.624  62.1790  0.00  0.00     0.000 C
ATOM     51  C3  ASG B   4      18.660  25.855  62.3800  0.00  0.00     0.000 C
ATOM     52  C4  ASG B   4      17.958  26.900  63.2320  0.00  0.00     0.000 C
ATOM     53  C5  ASG B   4      17.517  26.233  64.5320  0.00  0.00     0.000 C
ATOM     54  O5  ASG B   4      16.597  25.166  64.2270  0.00  0.00     0.000 O
BRANCH 50 57
ATOM     55   N  ASG B   4      18.563  23.736  61.3500  0.00  0.00     0.000 N
ATOM     57  HD  ASG B   4      17.968  23.115  61.2540  0.00  0.00     0.000 HD
ATOM     57   O  ASG B   4      16.794  22.802  60.3440  0.00  0.00     0.000 OA
ATOM     58   C  ASG B   4      18.009  22.960  60.4140  0.00  0.00     0.000 C
ATOM     59   C  ASG B   4      18.968  22.263  59.4990  0.00  0.00     0.000 C
ENDBRANCH 50 57
BRANCH 52 60
ATOM     60   O  ASG B   4      16.843  27.363  62.3660  0.00  0.00     0.000 O
ATOM     61   O  ASG B   4      16.678  29.562  63.5350  0.00  0.00     0.000 OA
ATOM     62   O  ASG B   4      15.347  29.142  61.6060  0.00  0.00     0.000 OA
ATOM     63   O  ASG B   4      14.969  27.855  63.5860  0.00  0.00     0.000 OA
ATOM     64   S  ASG B   4      15.930  28.614  62.7800  0.00  0.00     0.000 S
ENDBRANCH 52 60
ATOM     65   O  ASG B   4      16.774  26.565  66.8170  0.00  0.00     0.000 O
ATOM     67  HD  ASG B   4      16.141  25.986  66.6990  0.00  0.00     0.000 HD
ATOM     67   O  ASG B   4      16.774  26.565  66.8170  0.00  0.00     0.000 O
ATOM     69  HD  ASG B   4      16.141  25.986  66.6990  0.00  0.00     0.000 HD
ENDBRANCH 48 51
ENDBRANCH 35 48
ENDBRANCH 34 38
ENDBRANCH 15 34
ENDBRANCH 14 17
ENDBRANCH 1 14
TORSDOF 12
ENDMDL
MODEL 69
REMARK VINA RESULT:      -7.0     40.659     44.656
ROOT
ATOM      1  C1  GAD B   1       3.661  51.032  75.8490  0.00  0.00     0.000 C
ATOM      2  C2  GAD B   1       2.345  50.324  75.5110  0.00  0.00     0.000 C
ATOM      3  C3  GAD B   1       2.127  49.138  76.4590  0.00  0.00     0.000 C
ATOM      4  C4  GAD B   1       3.415  48.453  76.9260  0.00  0.00     0.000 C
ATOM      5  C5  GAD B   1       4.655  48.918  76.6770  0.00  0.00     0.000 C
ATOM      6  O5  GAD B   1       4.763  50.112  75.8780  0.00  0.00     0.000 O
ATOM      7   O  GAD B   1       1.212  51.268  75.5060  0.00  0.00     0.000 O
ATOM      9  HD  GAD B   1       1.866  51.835  75.4830  0.00  0.00     0.000 HD
ATOM      9   O  GAD B   1       1.326  48.106  75.8420  0.00  0.00     0.000 O
ATOM     11  HD  GAD B   1       1.980  48.673  75.8190  0.00  0.00     0.000 HD
ENDROOT
BRANCH 5 11
ATOM     11   C  GAD B   1       5.902  48.324  77.2130  0.00  0.00     0.000 C
ATOM     12   O  GAD B   1       6.050  48.337  78.4740  0.00  0.00     0.000 OA
ATOM     13   O  GAD B   1       6.811  47.896  76.4100  0.00  0.00     0.000 OA
ENDBRANCH 5 11
BRANCH 1 14
ATOM     14  O3  ASG B   2       4.335  51.816  74.9870  0.00  0.00     0.000 O
BRANCH 14 17
ATOM     15  C1  ASG B   2       7.716  52.030  73.3130  0.00  0.00     0.000 C
ATOM     16  C2  ASG B   2       6.601  52.425  74.2910  0.00  0.00     0.000 C
ATOM     17  C3  ASG B   2       5.405  51.489  74.0920  0.00  0.00     0.000 C
ATOM     18  C4  ASG B   2       4.914  51.572  72.6590  0.00  0.00     0.000 C
ATOM     19  C5  ASG B   2       6.081  51.295  71.7160  0.00  0.00     0.000 C
ATOM     20  O5  ASG B   2       7.176  52.183  72.0130  0.00  0.00     0.000 O
ATOM     21   C  ASG B   2       5.730  51.518  70.2800  0.00  0.00     0.000 C
ATOM     22   O  ASG B   2       6.898  51.453  69.5000  0.00  0.00     0.000 O
ATOM     24  HD  ASG B   2       7.525  51.437  68.9020  0.00  0.00     0.000 HD
BRANCH 16 26
ATOM     24   N  ASG B   2       6.350  53.485  75.2400  0.00  0.00     0.000 N
ATOM     26  HD  ASG B   2       5.729  53.168  74.7270  0.00  0.00     0.000 HD
ATOM     26   C  ASG B   2       6.527  53.363  76.5690  0.00  0.00     0.000 C
ATOM     27   C  ASG B   2       6.553  54.634  77.3460  0.00  0.00     0.000 C
ATOM     28   O  ASG B   2       6.659  52.269  77.1030  0.00  0.00     0.000 OA
ENDBRANCH 16 26
BRANCH 18 29
ATOM     29   O  ASG B   2       4.350  52.918  72.4890  0.00  0.00     0.000 O
ATOM     30   O  ASG B   2       2.452  52.169  71.1180  0.00  0.00     0.000 OA
ATOM     31   O  ASG B   2       2.092  52.836  73.4240  0.00  0.00     0.000 OA
ATOM     32   O  ASG B   2       2.669  54.493  71.7610  0.00  0.00     0.000 OA
ATOM     33   S  ASG B   2       2.783  53.097  72.1830  0.00  0.00     0.000 S
ENDBRANCH 18 29
BRANCH 15 34
ATOM     34  O4  ASG B   3       8.862  52.825  73.4170  0.00  0.00     0.000 O
BRANCH 34 38
ATOM     35  C1  GCT B   3      10.253  51.672  77.0370  0.00  0.00     0.000 C
ATOM     36  C2  GCT B   3      10.886  52.941  76.5100  0.00  0.00     0.000 C
ATOM     37  C3  GCT B   3      10.040  53.547  75.3990  0.00  0.00     0.000 C
ATOM     38  C4  GCT B   3       9.909  52.534  74.2550  0.00  0.00     0.000 C
ATOM     39  C5  GCT B   3       9.864  51.078  74.7730  0.00  0.00     0.000 C
ATOM     40  O5  GCT B   3       9.339  51.133  76.0880  0.00  0.00     0.000 O
ATOM     41   O  GCT B   3      10.970  53.837  77.6090  0.00  0.00     0.000 O
ATOM     43  HD  GCT B   3      11.509  53.876  78.2860  0.00  0.00     0.000 HD
ATOM     43   O  GCT B   3      10.650  54.787  74.9810  0.00  0.00     0.000 O
ATOM     45  HD  GCT B   3      11.189  54.827  75.6580  0.00  0.00     0.000 HD
BRANCH 39 45
ATOM     45   C  GCT B   3      11.148  50.277  74.7800  0.00  0.00     0.000 C
ATOM     46   O  GCT B   3      12.228  50.819  74.3850  0.00  0.00     0.000 OA
ATOM     47   O  GCT B   3      11.096  49.106  75.1920  0.00  0.00     0.000 OA
ENDBRANCH 39 45
BRANCH 35 48
ATOM     48  O3  ASG B   4      11.120  51.036  77.7960  0.00  0.00     0.000 O
BRANCH 48 51
ATOM     49  C1  ASG B   4      11.105  50.475  81.4530  0.00  0.00     0.000 C
ATOM     50  C2  ASG B   4      11.517  51.024  80.0770  0.00  0.00     0.000 C
ATOM     51  C3  ASG B   4      10.487  50.667  79.0090  0.00  0.00     0.000 C
ATOM     52  C4  ASG B   4      10.153  49.184  79.0400  0.00  0.00     0.000 C
ATOM     53  C5  ASG B   4       9.725  48.824  80.4600  0.00  0.00     0.000 C
ATOM     54  O5  ASG B   4      10.816  49.089  81.3630  0.00  0.00     0.000 O
BRANCH 50 57
ATOM     55   N  ASG B   4      12.727  50.979  79.2880  0.00  0.00     0.000 N
ATOM     57  HD  ASG B   4      13.035  51.758  79.5070  0.00  0.00     0.000 HD
ATOM     57   O  ASG B   4      13.872  52.376  80.6130  0.00  0.00     0.000 OA
ATOM     58   C  ASG B   4      13.855  51.582  79.6770  0.00  0.00     0.000 C
ATOM     59   C  ASG B   4      15.072  51.265  78.8650  0.00  0.00     0.000 C
ENDBRANCH 50 57
BRANCH 52 60
ATOM     60   O  ASG B   4      11.412  48.535  78.5900  0.00  0.00     0.000 O
ATOM     61   O  ASG B   4      10.201  46.623  77.5390  0.00  0.00     0.000 OA
ATOM     62   O  ASG B   4      12.562  46.810  77.2940  0.00  0.00     0.000 OA
ATOM     63   O  ASG B   4      11.642  46.433  79.4680  0.00  0.00     0.000 OA
ATOM     64   S  ASG B   4      11.440  47.000  78.1320  0.00  0.00     0.000 S
ENDBRANCH 52 60
ATOM     65   O  ASG B   4       8.605  47.207  81.8780  0.00  0.00     0.000 O
ATOM     67  HD  ASG B   4       9.257  47.249  82.4460  0.00  0.00     0.000 HD
ATOM     67   O  ASG B   4       8.605  47.207  81.8780  0.00  0.00     0.000 O
ATOM     69  HD  ASG B   4       9.257  47.249  82.4460  0.00  0.00     0.000 HD
ENDBRANCH 48 51
ENDBRANCH 35 48
ENDBRANCH 34 38
ENDBRANCH 15 34
ENDBRANCH 14 17
ENDBRANCH 1 14
TORSDOF 12
ENDMDL
MODEL 70
REMARK VINA RESULT:      -7.0      3.179     10.516
ROOT
ATOM      1  C1  GAD B   1      24.055  36.398  40.2760  0.00  0.00     0.000 C
ATOM      2  C2  GAD B   1      25.534  36.000  40.2720  0.00  0.00     0.000 C
ATOM      3  C3  GAD B   1      26.409  37.222  40.5750  0.00  0.00     0.000 C
ATOM      4  C4  GAD B   1      25.842  38.551  40.0680  0.00  0.00     0.000 C
ATOM      5  C5  GAD B   1      24.611  38.698  39.5390  0.00  0.00     0.000 C
ATOM      6  O5  GAD B   1      23.806  37.511  39.4040  0.00  0.00     0.000 O
ATOM      7   O  GAD B   1      25.790  34.872  41.1880  0.00  0.00     0.000 O
ATOM      9  HD  GAD B   1      24.927  34.818  41.1370  0.00  0.00     0.000 HD
ATOM      9   O  GAD B   1      27.722  37.095  39.9830  0.00  0.00     0.000 O
ATOM     11  HD  GAD B   1      26.859  37.041  39.9330  0.00  0.00     0.000 HD
ENDROOT
BRANCH 5 11
ATOM     11   C  GAD B   1      24.012  39.994  39.1440  0.00  0.00     0.000 C
ATOM     12   O  GAD B   1      22.874  39.955  38.5810  0.00  0.00     0.000 OA
ATOM     13   O  GAD B   1      24.674  41.086  39.3010  0.00  0.00     0.000 OA
ENDBRANCH 5 11
BRANCH 1 14
ATOM     14  O3  ASG B   2      23.086  35.695  39.6600  0.00  0.00     0.000 O
BRANCH 14 17
ATOM     15  C1  ASG B   2      20.947  35.823  36.5480  0.00  0.00     0.000 C
ATOM     16  C2  ASG B   2      21.257  35.909  38.0490  0.00  0.00     0.000 C
ATOM     17  C3  ASG B   2      22.745  35.624  38.2710  0.00  0.00     0.000 C
ATOM     18  C4  ASG B   2      23.096  34.251  37.7300  0.00  0.00     0.000 C
ATOM     19  C5  ASG B   2      22.660  34.164  36.2710  0.00  0.00     0.000 C
ATOM     20  O5  ASG B   2      21.263  34.502  36.1530  0.00  0.00     0.000 O
ATOM     21   C  ASG B   2      22.815  32.791  35.7010  0.00  0.00     0.000 C
ATOM     22   O  ASG B   2      22.200  32.739  34.4370  0.00  0.00     0.000 O
ATOM     24  HD  ASG B   2      21.869  32.563  33.6560  0.00  0.00     0.000 HD
BRANCH 16 26
ATOM     24   N  ASG B   2      20.992  37.153  38.7330  0.00  0.00     0.000 N
ATOM     26  HD  ASG B   2      20.658  36.974  37.9540  0.00  0.00     0.000 HD
ATOM     26   C  ASG B   2      20.395  37.239  39.9370  0.00  0.00     0.000 C
ATOM     27   C  ASG B   2      20.513  38.550  40.6350  0.00  0.00     0.000 C
ATOM     28   O  ASG B   2      19.792  36.292  40.4250  0.00  0.00     0.000 OA
ENDBRANCH 16 26
BRANCH 18 29
ATOM     29   O  ASG B   2      22.411  33.276  38.5890  0.00  0.00     0.000 O
ATOM     30   O  ASG B   2      24.198  31.594  38.4490  0.00  0.00     0.000 OA
ATOM     31   O  ASG B   2      23.898  32.876  40.4880  0.00  0.00     0.000 OA
ATOM     32   O  ASG B   2      22.257  31.220  39.8480  0.00  0.00     0.000 OA
ATOM     33   S  ASG B   2      23.265  32.178  39.3940  0.00  0.00     0.000 S
ENDBRANCH 18 29
BRANCH 15 34
ATOM     34  O4  ASG B   3      19.607  36.074  36.2350  0.00  0.00     0.000 O
BRANCH 34 38
ATOM     35  C1  GCT B   3      18.260  39.761  35.2570  0.00  0.00     0.000 C
ATOM     36  C2  GCT B   3      17.448  38.631  34.6630  0.00  0.00     0.000 C
ATOM     37  C3  GCT B   3      17.718  37.325  35.3970  0.00  0.00     0.000 C
ATOM     38  C4  GCT B   3      19.210  36.987  35.2920  0.00  0.00     0.000 C
ATOM     39  C5  GCT B   3      20.093  38.256  35.2880  0.00  0.00     0.000 C
ATOM     40  O5  GCT B   3      19.371  39.253  35.9880  0.00  0.00     0.000 O
ATOM     41   O  GCT B   3      16.083  39.000  34.8000  0.00  0.00     0.000 O
ATOM     43  HD  GCT B   3      15.585  39.557  34.3620  0.00  0.00     0.000 HD
ATOM     43   O  GCT B   3      16.870  36.300  34.8390  0.00  0.00     0.000 O
ATOM     45  HD  GCT B   3      16.372  36.857  34.4010  0.00  0.00     0.000 HD
BRANCH 39 45
ATOM     45   C  GCT B   3      20.550  38.811  33.9570  0.00  0.00     0.000 C
ATOM     46   O  GCT B   3      21.243  39.876  33.9260  0.00  0.00     0.000 OA
ATOM     47   O  GCT B   3      20.236  38.185  32.9310  0.00  0.00     0.000 OA
ENDBRANCH 39 45
BRANCH 35 48
ATOM     48  O3  ASG B   4      18.213  40.801  34.4520  0.00  0.00     0.000 O
BRANCH 48 51
ATOM     49  C1  ASG B   4      16.800  43.752  36.1790  0.00  0.00     0.000 C
ATOM     50  C2  ASG B   4      16.889  42.354  35.5450  0.00  0.00     0.000 C
ATOM     51  C3  ASG B   4      18.334  41.985  35.2200  0.00  0.00     0.000 C
ATOM     52  C4  ASG B   4      19.023  43.093  34.4410  0.00  0.00     0.000 C
ATOM     53  C5  ASG B   4      18.876  44.391  35.2310  0.00  0.00     0.000 C
ATOM     54  O5  ASG B   4      17.476  44.702  35.3710  0.00  0.00     0.000 O
BRANCH 50 57
ATOM     55   N  ASG B   4      15.981  42.369  34.4210  0.00  0.00     0.000 N
ATOM     57  HD  ASG B   4      15.477  41.711  34.6710  0.00  0.00     0.000 HD
ATOM     57   O  ASG B   4      14.260  41.488  35.5500  0.00  0.00     0.000 OA
ATOM     58   C  ASG B   4      14.694  42.029  34.5380  0.00  0.00     0.000 C
ATOM     59   C  ASG B   4      13.840  42.302  33.3380  0.00  0.00     0.000 C
ENDBRANCH 50 57
BRANCH 52 60
ATOM     60   O  ASG B   4      18.321  43.085  33.1310  0.00  0.00     0.000 O
ATOM     61   O  ASG B   4      20.441  42.760  31.8530  0.00  0.00     0.000 OA
ATOM     62   O  ASG B   4      18.351  42.725  30.7120  0.00  0.00     0.000 OA
ATOM     63   O  ASG B   4      19.076  44.751  31.7540  0.00  0.00     0.000 OA
ATOM     64   S  ASG B   4      19.120  43.286  31.7560  0.00  0.00     0.000 S
ENDBRANCH 52 60
ATOM     65   O  ASG B   4      19.676  46.658  35.5490  0.00  0.00     0.000 O
ATOM     67  HD  ASG B   4      18.859  46.946  35.5730  0.00  0.00     0.000 HD
ATOM     67   O  ASG B   4      19.676  46.658  35.5490  0.00  0.00     0.000 O
ATOM     69  HD  ASG B   4      18.859  46.946  35.5730  0.00  0.00     0.000 HD
ENDBRANCH 48 51
ENDBRANCH 35 48
ENDBRANCH 34 38
ENDBRANCH 15 34
ENDBRANCH 14 17
ENDBRANCH 1 14
TORSDOF 12
ENDMDL
MODEL 71
REMARK VINA RESULT:      -7.0     22.841     27.550
ROOT
ATOM      1  C1  GAD B   1      21.546  23.928  52.2640  0.00  0.00     0.000 C
ATOM      2  C2  GAD B   1      22.290  23.964  50.9260  0.00  0.00     0.000 C
ATOM      3  C3  GAD B   1      22.536  22.536  50.4220  0.00  0.00     0.000 C
ATOM      4  C4  GAD B   1      22.741  21.499  51.5290  0.00  0.00     0.000 C
ATOM      5  C5  GAD B   1      22.570  21.747  52.8430  0.00  0.00     0.000 C
ATOM      6  O5  GAD B   1      22.217  23.092  53.2180  0.00  0.00     0.000 O
ATOM      7   O  GAD B   1      21.584  24.804  49.9400  0.00  0.00     0.000 O
ATOM      9  HD  GAD B   1      21.183  25.067  50.6610  0.00  0.00     0.000 HD
ATOM      9   O  GAD B   1      23.711  22.464  49.5830  0.00  0.00     0.000 O
ATOM     11  HD  GAD B   1      23.309  22.727  50.3040  0.00  0.00     0.000 HD
ENDROOT
BRANCH 5 11
ATOM     11   C  GAD B   1      22.662  20.726  53.9130  0.00  0.00     0.000 C
ATOM     12   O  GAD B   1      21.703  20.677  54.7450  0.00  0.00     0.000 OA
ATOM     13   O  GAD B   1      23.713  19.993  54.0180  0.00  0.00     0.000 OA
ENDBRANCH 5 11
BRANCH 1 14
ATOM     14  O3  ASG B   2      21.544  24.942  53.1500  0.00  0.00     0.000 O
BRANCH 14 17
ATOM     15  C1  ASG B   2      22.363  25.606  56.7790  0.00  0.00     0.000 C
ATOM     16  C2  ASG B   2      21.463  25.410  55.5500  0.00  0.00     0.000 C
ATOM     17  C3  ASG B   2      22.340  25.136  54.3250  0.00  0.00     0.000 C
ATOM     18  C4  ASG B   2      23.299  26.290  54.1060  0.00  0.00     0.000 C
ATOM     19  C5  ASG B   2      24.087  26.534  55.3890  0.00  0.00     0.000 C
ATOM     20  O5  ASG B   2      23.182  26.725  56.4950  0.00  0.00     0.000 O
ATOM     21   C  ASG B   2      24.940  27.760  55.3210  0.00  0.00     0.000 C
ATOM     22   O  ASG B   2      25.463  28.035  56.5980  0.00  0.00     0.000 O
ATOM     24  HD  ASG B   2      25.853  28.321  57.3160  0.00  0.00     0.000 HD
BRANCH 16 26
ATOM     24   N  ASG B   2      20.449  24.390  55.6940  0.00  0.00     0.000 N
ATOM     26  HD  ASG B   2      20.796  24.797  56.3750  0.00  0.00     0.000 HD
ATOM     26   C  ASG B   2      19.215  24.476  55.1640  0.00  0.00     0.000 C
ATOM     27   C  ASG B   2      18.433  23.208  55.1170  0.00  0.00     0.000 C
ATOM     28   O  ASG B   2      18.766  25.535  54.7460  0.00  0.00     0.000 OA
ENDBRANCH 16 26
BRANCH 18 29
ATOM     29   O  ASG B   2      22.480  27.444  53.7120  0.00  0.00     0.000 O
ATOM     30   O  ASG B   2      24.212  28.442  52.2820  0.00  0.00     0.000 OA
ATOM     31   O  ASG B   2      22.293  27.349  51.2760  0.00  0.00     0.000 OA
ATOM     32   O  ASG B   2      22.015  29.448  52.4440  0.00  0.00     0.000 OA
ATOM     33   S  ASG B   2      22.782  28.207  52.3300  0.00  0.00     0.000 S
ENDBRANCH 18 29
BRANCH 15 34
ATOM     34  O4  ASG B   3      21.655  25.858  57.9590  0.00  0.00     0.000 O
BRANCH 34 38
ATOM     35  C1  GCT B   3      19.881  28.338  60.6170  0.00  0.00     0.000 C
ATOM     36  C2  GCT B   3      19.203  28.298  59.2650  0.00  0.00     0.000 C
ATOM     37  C3  GCT B   3      19.628  27.064  58.4820  0.00  0.00     0.000 C
ATOM     38  C4  GCT B   3      21.149  27.091  58.2860  0.00  0.00     0.000 C
ATOM     39  C5  GCT B   3      21.878  27.728  59.4920  0.00  0.00     0.000 C
ATOM     40  O5  GCT B   3      21.047  27.522  60.6210  0.00  0.00     0.000 O
ATOM     41   O  GCT B   3      17.805  28.265  59.5160  0.00  0.00     0.000 O
ATOM     43  HD  GCT B   3      17.243  28.879  59.7540  0.00  0.00     0.000 HD
ATOM     43   O  GCT B   3      18.903  27.038  57.2350  0.00  0.00     0.000 O
ATOM     45  HD  GCT B   3      18.341  27.653  57.4730  0.00  0.00     0.000 HD
BRANCH 39 45
ATOM     45   C  GCT B   3      22.259  29.190  59.4110  0.00  0.00     0.000 C
ATOM     46   O  GCT B   3      21.972  29.856  58.3670  0.00  0.00     0.000 OA
ATOM     47   O  GCT B   3      22.835  29.692  60.3900  0.00  0.00     0.000 OA
ENDBRANCH 39 45
BRANCH 35 48
ATOM     48  O3  ASG B   4      19.707  29.526  61.1560  0.00  0.00     0.000 O
BRANCH 48 51
ATOM     49  C1  ASG B   4      17.736  29.395  64.2840  0.00  0.00     0.000 C
ATOM     50  C2  ASG B   4      18.078  29.313  62.7870  0.00  0.00     0.000 C
ATOM     51  C3  ASG B   4      19.586  29.382  62.5610  0.00  0.00     0.000 C
ATOM     52  C4  ASG B   4      20.200  30.558  63.3010  0.00  0.00     0.000 C
ATOM     53  C5  ASG B   4      19.798  30.457  64.7700  0.00  0.00     0.000 C
ATOM     54  O5  ASG B   4      18.362  30.524  64.8710  0.00  0.00     0.000 O
BRANCH 50 57
ATOM     55   N  ASG B   4      17.031  28.410  63.2070  0.00  0.00     0.000 N
ATOM     57  HD  ASG B   4      16.360  28.860  62.8950  0.00  0.00     0.000 HD
ATOM     57   O  ASG B   4      15.603  29.003  61.5870  0.00  0.00     0.000 OA
ATOM     58   C  ASG B   4      15.904  28.249  62.5070  0.00  0.00     0.000 C
ATOM     59   C  ASG B   4      15.019  27.126  62.9540  0.00  0.00     0.000 C
ENDBRANCH 50 57
BRANCH 52 60
ATOM     60   O  ASG B   4      19.651  31.742  62.5900  0.00  0.00     0.000 O
ATOM     61   O  ASG B   4      21.603  33.174  63.2000  0.00  0.00     0.000 OA
ATOM     62   O  ASG B   4      19.923  34.019  61.7380  0.00  0.00     0.000 OA
ATOM     63   O  ASG B   4      19.351  33.518  64.0050  0.00  0.00     0.000 OA
ATOM     64   S  ASG B   4      20.219  33.216  62.8630  0.00  0.00     0.000 S
ENDBRANCH 52 60
ATOM     65   O  ASG B   4      20.248  31.186  67.0380  0.00  0.00     0.000 O
ATOM     67  HD  ASG B   4      19.403  31.326  67.1650  0.00  0.00     0.000 HD
ATOM     67   O  ASG B   4      20.248  31.186  67.0380  0.00  0.00     0.000 O
ATOM     69  HD  ASG B   4      19.403  31.326  67.1650  0.00  0.00     0.000 HD
ENDBRANCH 48 51
ENDBRANCH 35 48
ENDBRANCH 34 38
ENDBRANCH 15 34
ENDBRANCH 14 17
ENDBRANCH 1 14
TORSDOF 12
ENDMDL
MODEL 72
REMARK VINA RESULT:      -7.0      8.392     13.562
ROOT
ATOM      1  C1  GAD B   1      11.861  40.551  29.9770  0.00  0.00     0.000 C
ATOM      2  C2  GAD B   1      11.505  42.036  29.8600  0.00  0.00     0.000 C
ATOM      3  C3  GAD B   1      11.913  42.778  31.1390  0.00  0.00     0.000 C
ATOM      4  C4  GAD B   1      11.826  41.937  32.4150  0.00  0.00     0.000 C
ATOM      5  C5  GAD B   1      11.570  40.614  32.4370  0.00  0.00     0.000 C
ATOM      6  O5  GAD B   1      11.319  39.971  31.1730  0.00  0.00     0.000 O
ATOM      7   O  GAD B   1      12.085  42.634  28.6420  0.00  0.00     0.000 O
ATOM      9  HD  GAD B   1      12.177  41.796  28.4440  0.00  0.00     0.000 HD
ATOM      9   O  GAD B   1      11.085  43.939  31.3660  0.00  0.00     0.000 O
ATOM     11  HD  GAD B   1      11.177  43.101  31.1680  0.00  0.00     0.000 HD
ENDROOT
BRANCH 5 11
ATOM     11   C  GAD B   1      11.588  39.771  33.6560  0.00  0.00     0.000 C
ATOM     12   O  GAD B   1      12.011  38.581  33.5260  0.00  0.00     0.000 OA
ATOM     13   O  GAD B   1      11.114  40.225  34.7620  0.00  0.00     0.000 OA
ENDBRANCH 5 11
BRANCH 1 14
ATOM     14  O3  ASG B   2      11.286  39.580  29.2420  0.00  0.00     0.000 O
BRANCH 14 17
ATOM     15  C1  ASG B   2       9.753  36.167  29.7650  0.00  0.00     0.000 C
ATOM     16  C2  ASG B   2      10.826  37.179  29.3410  0.00  0.00     0.000 C
ATOM     17  C3  ASG B   2      10.316  38.596  29.6200  0.00  0.00     0.000 C
ATOM     18  C4  ASG B   2       9.023  38.840  28.8650  0.00  0.00     0.000 C
ATOM     19  C5  ASG B   2       8.025  37.742  29.2200  0.00  0.00     0.000 C
ATOM     20  O5  ASG B   2       8.610  36.447  28.9780  0.00  0.00     0.000 O
ATOM     21   C  ASG B   2       6.778  37.805  28.3970  0.00  0.00     0.000 C
ATOM     22   O  ASG B   2       6.009  36.650  28.6270  0.00  0.00     0.000 O
ATOM     24  HD  ASG B   2       5.438  36.001  28.6720  0.00  0.00     0.000 HD
BRANCH 16 26
ATOM     24   N  ASG B   2      12.126  36.946  29.9260  0.00  0.00     0.000 N
ATOM     26  HD  ASG B   2      11.552  36.309  29.8060  0.00  0.00     0.000 HD
ATOM     26   C  ASG B   2      13.290  37.197  29.2980  0.00  0.00     0.000 C
ATOM     27   C  ASG B   2      14.506  37.224  30.1590  0.00  0.00     0.000 C
ATOM     28   O  ASG B   2      13.341  37.392  28.0900  0.00  0.00     0.000 OA
ENDBRANCH 16 26
BRANCH 18 29
ATOM     29   O  ASG B   2       9.370  38.856  27.4380  0.00  0.00     0.000 O
ATOM     30   O  ASG B   2       7.682  40.540  26.8400  0.00  0.00     0.000 OA
ATOM     31   O  ASG B   2      10.029  41.153  26.9210  0.00  0.00     0.000 OA
ATOM     32   O  ASG B   2       9.221  39.689  25.1750  0.00  0.00     0.000 OA
ATOM     33   S  ASG B   2       9.051  40.157  26.5500  0.00  0.00     0.000 S
ENDBRANCH 18 29
BRANCH 15 34
ATOM     34  O4  ASG B   3      10.123  34.834  29.5560  0.00  0.00     0.000 O
BRANCH 34 38
ATOM     35  C1  GCT B   3       9.105  31.114  28.3370  0.00  0.00     0.000 C
ATOM     36  C2  GCT B   3       9.717  31.971  27.2510  0.00  0.00     0.000 C
ATOM     37  C3  GCT B   3      10.461  33.156  27.8520  0.00  0.00     0.000 C
ATOM     38  C4  GCT B   3       9.482  34.002  28.6740  0.00  0.00     0.000 C
ATOM     39  C5  GCT B   3       8.400  33.135  29.3590  0.00  0.00     0.000 C
ATOM     40  O5  GCT B   3       8.970  31.851  29.5470  0.00  0.00     0.000 O
ATOM     41   O  GCT B   3      10.616  31.136  26.5370  0.00  0.00     0.000 O
ATOM     43  HD  GCT B   3      10.488  30.518  25.9440  0.00  0.00     0.000 HD
ATOM     43   O  GCT B   3      11.082  33.899  26.7810  0.00  0.00     0.000 O
ATOM     45  HD  GCT B   3      10.954  33.281  26.1890  0.00  0.00     0.000 HD
BRANCH 39 45
ATOM     45   C  GCT B   3       7.057  32.991  28.6790  0.00  0.00     0.000 C
ATOM     46   O  GCT B   3       6.902  33.430  27.4960  0.00  0.00     0.000 OA
ATOM     47   O  GCT B   3       6.147  32.428  29.3090  0.00  0.00     0.000 OA
ENDBRANCH 39 45
BRANCH 35 48
ATOM     48  O3  ASG B   4       8.260  30.263  27.7950  0.00  0.00     0.000 O
BRANCH 48 51
ATOM     49  C1  ASG B   4       9.408  27.192  29.5080  0.00  0.00     0.000 C
ATOM     50  C2  ASG B   4       9.459  28.542  28.7740  0.00  0.00     0.000 C
ATOM     51  C3  ASG B   4       8.072  29.172  28.6790  0.00  0.00     0.000 C
ATOM     52  C4  ASG B   4       7.053  28.181  28.1410  0.00  0.00     0.000 C
ATOM     53  C5  ASG B   4       7.106  26.927  29.0090  0.00  0.00     0.000 C
ATOM     54  O5  ASG B   4       8.425  26.351  28.9260  0.00  0.00     0.000 O
BRANCH 50 57
ATOM     55   N  ASG B   4      10.280  27.665  27.9710  0.00  0.00     0.000 N
ATOM     57  HD  ASG B   4      10.862  28.254  27.7170  0.00  0.00     0.000 HD
ATOM     57   O  ASG B   4      12.153  28.865  28.2290  0.00  0.00     0.000 OA
ATOM     58   C  ASG B   4      11.599  27.840  27.8450  0.00  0.00     0.000 C
ATOM     59   C  ASG B   4      12.338  26.731  27.1610  0.00  0.00     0.000 C
ENDBRANCH 50 57
BRANCH 52 60
ATOM     60   O  ASG B   4       7.477  27.976  26.7320  0.00  0.00     0.000 O
ATOM     61   O  ASG B   4       5.190  28.430  25.8420  0.00  0.00     0.000 OA
ATOM     62   O  ASG B   4       7.004  28.099  24.3360  0.00  0.00     0.000 OA
ATOM     63   O  ASG B   4       6.300  26.287  25.7290  0.00  0.00     0.000 OA
ATOM     64   S  ASG B   4       6.405  27.740  25.5640  0.00  0.00     0.000 S
ENDBRANCH 52 60
ATOM     65   O  ASG B   4       5.978  24.886  29.6740  0.00  0.00     0.000 O
ATOM     67  HD  ASG B   4       6.716  24.443  29.5780  0.00  0.00     0.000 HD
ATOM     67   O  ASG B   4       5.978  24.886  29.6740  0.00  0.00     0.000 O
ATOM     69  HD  ASG B   4       6.716  24.443  29.5780  0.00  0.00     0.000 HD
ENDBRANCH 48 51
ENDBRANCH 35 48
ENDBRANCH 34 38
ENDBRANCH 15 34
ENDBRANCH 14 17
ENDBRANCH 1 14
TORSDOF 12
ENDMDL
MODEL 73
REMARK VINA RESULT:      -7.0     17.446     22.282
ROOT
ATOM      1  C1  GAD B   1      17.949  53.406  54.4240  0.00  0.00     0.000 C
ATOM      2  C2  GAD B   1      18.382  54.562  55.3310  0.00  0.00     0.000 C
ATOM      3  C3  GAD B   1      17.555  55.815  55.0190  0.00  0.00     0.000 C
ATOM      4  C4  GAD B   1      17.125  55.944  53.5550  0.00  0.00     0.000 C
ATOM      5  C5  GAD B   1      17.301  54.984  52.6260  0.00  0.00     0.000 C
ATOM      6  O5  GAD B   1      17.981  53.783  53.0390  0.00  0.00     0.000 O
ATOM      7   O  GAD B   1      18.324  54.178  56.7550  0.00  0.00     0.000 O
ATOM      9  HD  GAD B   1      18.279  53.391  56.3960  0.00  0.00     0.000 HD
ATOM      9   O  GAD B   1      18.284  57.023  55.3300  0.00  0.00     0.000 O
ATOM     11  HD  GAD B   1      18.239  56.236  54.9710  0.00  0.00     0.000 HD
ENDROOT
BRANCH 5 11
ATOM     11   C  GAD B   1      16.795  55.055  51.2350  0.00  0.00     0.000 C
ATOM     12   O  GAD B   1      17.371  55.875  50.4540  0.00  0.00     0.000 OA
ATOM     13   O  GAD B   1      15.766  54.366  50.8860  0.00  0.00     0.000 OA
ENDBRANCH 5 11
BRANCH 1 14
ATOM     14  O3  ASG B   2      18.718  52.335  54.1530  0.00  0.00     0.000 O
BRANCH 14 17
ATOM     15  C1  ASG B   2      22.060  51.140  52.8580  0.00  0.00     0.000 C
ATOM     16  C2  ASG B   2      20.530  51.204  52.9590  0.00  0.00     0.000 C
ATOM     17  C3  ASG B   2      20.140  52.235  54.0230  0.00  0.00     0.000 C
ATOM     18  C4  ASG B   2      20.749  51.856  55.3590  0.00  0.00     0.000 C
ATOM     19  C5  ASG B   2      22.255  51.680  55.1890  0.00  0.00     0.000 C
ATOM     20  O5  ASG B   2      22.525  50.737  54.1330  0.00  0.00     0.000 O
ATOM     21   C  ASG B   2      22.918  51.144  56.4170  0.00  0.00     0.000 C
ATOM     22   O  ASG B   2      24.251  50.809  56.1190  0.00  0.00     0.000 O
ATOM     24  HD  ASG B   2      25.080  50.564  56.0810  0.00  0.00     0.000 HD
BRANCH 16 26
ATOM     24   N  ASG B   2      19.843  51.477  51.7180  0.00  0.00     0.000 N
ATOM     26  HD  ASG B   2      20.636  51.130  51.7410  0.00  0.00     0.000 HD
ATOM     26   C  ASG B   2      18.662  50.929  51.3740  0.00  0.00     0.000 C
ATOM     27   C  ASG B   2      17.945  51.575  50.2390  0.00  0.00     0.000 C
ATOM     28   O  ASG B   2      18.208  49.957  51.9640  0.00  0.00     0.000 OA
ENDBRANCH 16 26
BRANCH 18 29
ATOM     29   O  ASG B   2      20.076  50.623  55.7890  0.00  0.00     0.000 O
ATOM     30   O  ASG B   2      20.344  51.074  58.1910  0.00  0.00     0.000 OA
ATOM     31   O  ASG B   2      18.167  51.325  57.1470  0.00  0.00     0.000 OA
ATOM     32   O  ASG B   2      19.127  49.124  57.4290  0.00  0.00     0.000 OA
ATOM     33   S  ASG B   2      19.383  50.552  57.2380  0.00  0.00     0.000 S
ENDBRANCH 18 29
BRANCH 15 34
ATOM     34  O4  ASG B   3      22.522  50.226  51.9050  0.00  0.00     0.000 O
BRANCH 34 38
ATOM     35  C1  GCT B   3      25.577  49.367  49.3960  0.00  0.00     0.000 C
ATOM     36  C2  GCT B   3      25.706  50.707  50.0870  0.00  0.00     0.000 C
ATOM     37  C3  GCT B   3      24.797  50.778  51.3060  0.00  0.00     0.000 C
ATOM     38  C4  GCT B   3      23.343  50.574  50.8620  0.00  0.00     0.000 C
ATOM     39  C5  GCT B   3      23.232  49.595  49.6710  0.00  0.00     0.000 C
ATOM     40  O5  GCT B   3      24.353  48.733  49.7500  0.00  0.00     0.000 O
ATOM     41   O  GCT B   3      27.066  50.829  50.4800  0.00  0.00     0.000 O
ATOM     43  HD  GCT B   3      27.785  51.016  50.0340  0.00  0.00     0.000 HD
ATOM     43   O  GCT B   3      25.010  52.044  51.9650  0.00  0.00     0.000 O
ATOM     45  HD  GCT B   3      25.728  52.230  51.5200  0.00  0.00     0.000 HD
BRANCH 39 45
ATOM     45   C  GCT B   3      23.141  50.170  48.2740  0.00  0.00     0.000 C
ATOM     46   O  GCT B   3      23.049  49.385  47.2780  0.00  0.00     0.000 OA
ATOM     47   O  GCT B   3      23.146  51.406  48.1560  0.00  0.00     0.000 OA
ENDBRANCH 39 45
BRANCH 35 48
ATOM     48  O3  ASG B   4      26.160  49.427  48.2180  0.00  0.00     0.000 O
BRANCH 48 51
ATOM     49  C1  ASG B   4      28.628  46.777  47.4570  0.00  0.00     0.000 C
ATOM     50  C2  ASG B   4      28.016  48.051  48.0630  0.00  0.00     0.000 C
ATOM     51  C3  ASG B   4      26.512  48.117  47.8100  0.00  0.00     0.000 C
ATOM     52  C4  ASG B   4      26.190  47.879  46.3440  0.00  0.00     0.000 C
ATOM     53  C5  ASG B   4      26.833  46.560  45.9240  0.00  0.00     0.000 C
ATOM     54  O5  ASG B   4      28.261  46.657  46.0920  0.00  0.00     0.000 O
BRANCH 50 57
ATOM     55   N  ASG B   4      28.507  47.790  49.3960  0.00  0.00     0.000 N
ATOM     57  HD  ASG B   4      29.332  48.016  49.2620  0.00  0.00     0.000 HD
ATOM     57   O  ASG B   4      30.179  49.275  49.2810  0.00  0.00     0.000 OA
ATOM     58   C  ASG B   4      29.495  48.503  49.9460  0.00  0.00     0.000 C
ATOM     59   C  ASG B   4      29.742  48.254  51.4020  0.00  0.00     0.000 C
ENDBRANCH 50 57
BRANCH 52 60
ATOM     60   O  ASG B   4      26.745  49.079  45.6670  0.00  0.00     0.000 O
ATOM     61   O  ASG B   4      24.706  49.389  44.2610  0.00  0.00     0.000 OA
ATOM     62   O  ASG B   4      26.452  51.005  44.1870  0.00  0.00     0.000 OA
ATOM     63   O  ASG B   4      26.881  48.788  43.3990  0.00  0.00     0.000 OA
ATOM     64   S  ASG B   4      26.107  49.640  44.3070  0.00  0.00     0.000 S
ENDBRANCH 52 60
ATOM     65   O  ASG B   4      26.889  44.777  44.2810  0.00  0.00     0.000 O
ATOM     67  HD  ASG B   4      27.754  44.816  44.2640  0.00  0.00     0.000 HD
ATOM     67   O  ASG B   4      26.889  44.777  44.2810  0.00  0.00     0.000 O
ATOM     69  HD  ASG B   4      27.754  44.816  44.2640  0.00  0.00     0.000 HD
ENDBRANCH 48 51
ENDBRANCH 35 48
ENDBRANCH 34 38
ENDBRANCH 15 34
ENDBRANCH 14 17
ENDBRANCH 1 14
TORSDOF 12
ENDMDL
MODEL 74
REMARK VINA RESULT:      -7.0      2.761     10.317
ROOT
ATOM      1  C1  GAD B   1      21.809  39.133  37.7690  0.00  0.00     0.000 C
ATOM      2  C2  GAD B   1      21.979  39.793  39.1400  0.00  0.00     0.000 C
ATOM      3  C3  GAD B   1      22.012  38.724  40.2390  0.00  0.00     0.000 C
ATOM      4  C4  GAD B   1      21.162  37.485  39.9440  0.00  0.00     0.000 C
ATOM      5  C5  GAD B   1      20.551  37.246  38.7670  0.00  0.00     0.000 C
ATOM      6  O5  GAD B   1      20.676  38.252  37.7440  0.00  0.00     0.000 O
ATOM      7   O  GAD B   1      23.159  40.679  39.1690  0.00  0.00     0.000 O
ATOM      9  HD  GAD B   1      23.080  40.579  38.3120  0.00  0.00     0.000 HD
ATOM      9   O  GAD B   1      21.538  39.244  41.5010  0.00  0.00     0.000 O
ATOM     11  HD  GAD B   1      21.459  39.144  40.6440  0.00  0.00     0.000 HD
ENDROOT
BRANCH 5 11
ATOM     11   C  GAD B   1      19.815  36.003  38.4360  0.00  0.00     0.000 C
ATOM     12   O  GAD B   1      19.997  35.006  39.2010  0.00  0.00     0.000 OA
ATOM     13   O  GAD B   1      19.098  35.942  37.3700  0.00  0.00     0.000 OA
ENDBRANCH 5 11
BRANCH 1 14
ATOM     14  O3  ASG B   2      21.339  39.772  36.6810  0.00  0.00     0.000 O
BRANCH 14 17
ATOM     15  C1  ASG B   2      19.285  42.600  35.2450  0.00  0.00     0.000 C
ATOM     16  C2  ASG B   2      19.867  41.182  35.3260  0.00  0.00     0.000 C
ATOM     17  C3  ASG B   2      20.772  41.082  36.5580  0.00  0.00     0.000 C
ATOM     18  C4  ASG B   2      21.883  42.111  36.4700  0.00  0.00     0.000 C
ATOM     19  C5  ASG B   2      21.267  43.492  36.2640  0.00  0.00     0.000 C
ATOM     20  O5  ASG B   2      20.390  43.475  35.1200  0.00  0.00     0.000 O
ATOM     21   C  ASG B   2      22.291  44.549  36.0000  0.00  0.00     0.000 C
ATOM     22   O  ASG B   2      21.645  45.737  35.6130  0.00  0.00     0.000 O
ATOM     24  HD  ASG B   2      21.386  46.526  35.3670  0.00  0.00     0.000 HD
BRANCH 16 26
ATOM     24   N  ASG B   2      19.923  39.959  34.5590  0.00  0.00     0.000 N
ATOM     26  HD  ASG B   2      20.581  40.224  35.0550  0.00  0.00     0.000 HD
ATOM     26   C  ASG B   2      19.071  38.930  34.7210  0.00  0.00     0.000 C
ATOM     27   C  ASG B   2      19.057  37.913  33.6310  0.00  0.00     0.000 C
ATOM     28   O  ASG B   2      18.350  38.839  35.7070  0.00  0.00     0.000 OA
ENDBRANCH 16 26
BRANCH 18 29
ATOM     29   O  ASG B   2      22.745  41.700  35.3540  0.00  0.00     0.000 O
ATOM     30   O  ASG B   2      24.796  42.643  36.3270  0.00  0.00     0.000 OA
ATOM     31   O  ASG B   2      24.455  40.240  36.3150  0.00  0.00     0.000 OA
ATOM     32   O  ASG B   2      24.872  41.413  34.2430  0.00  0.00     0.000 OA
ATOM     33   S  ASG B   2      24.319  41.484  35.5960  0.00  0.00     0.000 S
ENDBRANCH 18 29
BRANCH 15 34
ATOM     34  O4  ASG B   3      18.434  42.796  34.1510  0.00  0.00     0.000 O
BRANCH 34 38
ATOM     35  C1  GCT B   3      14.884  42.434  32.2460  0.00  0.00     0.000 C
ATOM     36  C2  GCT B   3      14.814  43.227  33.5340  0.00  0.00     0.000 C
ATOM     37  C3  GCT B   3      16.200  43.693  33.9590  0.00  0.00     0.000 C
ATOM     38  C4  GCT B   3      17.102  42.470  34.1640  0.00  0.00     0.000 C
ATOM     39  C5  GCT B   3      16.764  41.328  33.1790  0.00  0.00     0.000 C
ATOM     40  O5  GCT B   3      16.201  41.938  32.0310  0.00  0.00     0.000 O
ATOM     41   O  GCT B   3      13.977  44.344  33.2750  0.00  0.00     0.000 O
ATOM     43  HD  GCT B   3      13.117  44.422  33.2070  0.00  0.00     0.000 HD
ATOM     43   O  GCT B   3      16.068  44.499  35.1490  0.00  0.00     0.000 O
ATOM     45  HD  GCT B   3      15.208  44.577  35.0810  0.00  0.00     0.000 HD
BRANCH 39 45
ATOM     45   C  GCT B   3      15.853  40.216  33.6520  0.00  0.00     0.000 C
ATOM     46   O  GCT B   3      15.578  39.254  32.8680  0.00  0.00     0.000 OA
ATOM     47   O  GCT B   3      15.414  40.282  34.8120  0.00  0.00     0.000 OA
ENDBRANCH 39 45
BRANCH 35 48
ATOM     48  O3  ASG B   4      13.734  41.828  32.0460  0.00  0.00     0.000 O
BRANCH 48 51
ATOM     49  C1  ASG B   4      11.980  42.929  28.9790  0.00  0.00     0.000 C
ATOM     50  C2  ASG B   4      12.560  42.962  30.4030  0.00  0.00     0.000 C
ATOM     51  C3  ASG B   4      13.480  41.770  30.6530  0.00  0.00     0.000 C
ATOM     52  C4  ASG B   4      12.809  40.465  30.2580  0.00  0.00     0.000 C
ATOM     53  C5  ASG B   4      12.337  40.592  28.8120  0.00  0.00     0.000 C
ATOM     54  O5  ASG B   4      11.383  41.669  28.7200  0.00  0.00     0.000 O
BRANCH 50 57
ATOM     55   N  ASG B   4      12.906  44.307  30.0030  0.00  0.00     0.000 N
ATOM     57  HD  ASG B   4      12.161  44.688  30.2230  0.00  0.00     0.000 HD
ATOM     57   O  ASG B   4      11.524  45.302  31.4560  0.00  0.00     0.000 OA
ATOM     58   C  ASG B   4      12.434  45.384  30.6370  0.00  0.00     0.000 C
ATOM     59   C  ASG B   4      13.051  46.690  30.2430  0.00  0.00     0.000 C
ENDBRANCH 50 57
BRANCH 52 60
ATOM     60   O  ASG B   4      11.716  40.321  31.2540  0.00  0.00     0.000 O
ATOM     61   O  ASG B   4      12.539  38.094  32.0260  0.00  0.00     0.000 OA
ATOM     62   O  ASG B   4      10.709  39.133  33.1400  0.00  0.00     0.000 OA
ATOM     63   O  ASG B   4      10.452  38.451  30.8620  0.00  0.00     0.000 OA
ATOM     64   S  ASG B   4      11.370  38.901  31.9130  0.00  0.00     0.000 S
ENDBRANCH 52 60
ATOM     65   O  ASG B   4      11.592  39.420  26.8240  0.00  0.00     0.000 O
ATOM     67  HD  ASG B   4      10.940  39.983  26.7320  0.00  0.00     0.000 HD
ATOM     67   O  ASG B   4      11.592  39.420  26.8240  0.00  0.00     0.000 O
ATOM     69  HD  ASG B   4      10.940  39.983  26.7320  0.00  0.00     0.000 HD
ENDBRANCH 48 51
ENDBRANCH 35 48
ENDBRANCH 34 38
ENDBRANCH 15 34
ENDBRANCH 14 17
ENDBRANCH 1 14
TORSDOF 12
ENDMDL
MODEL 75
REMARK VINA RESULT:      -7.0     20.039     22.870
ROOT
ATOM      1  C1  GAD B   1       9.611  59.276  48.8580  0.00  0.00     0.000 C
ATOM      2  C2  GAD B   1       9.760  59.108  50.3740  0.00  0.00     0.000 C
ATOM      3  C3  GAD B   1       8.412  59.342  51.0650  0.00  0.00     0.000 C
ATOM      4  C4  GAD B   1       7.508  60.361  50.3650  0.00  0.00     0.000 C
ATOM      5  C5  GAD B   1       7.770  60.907  49.1610  0.00  0.00     0.000 C
ATOM      6  O5  GAD B   1       9.007  60.535  48.5250  0.00  0.00     0.000 O
ATOM      7   O  GAD B   1      10.359  57.803  50.7140  0.00  0.00     0.000 O
ATOM      9  HD  GAD B   1      10.551  57.829  49.8700  0.00  0.00     0.000 HD
ATOM      9   O  GAD B   1       8.584  59.821  52.4170  0.00  0.00     0.000 O
ATOM     11  HD  GAD B   1       8.776  59.848  51.5730  0.00  0.00     0.000 HD
ENDROOT
BRANCH 5 11
ATOM     11   C  GAD B   1       6.853  61.811  48.4280  0.00  0.00     0.000 C
ATOM     12   O  GAD B   1       7.384  62.641  47.6260  0.00  0.00     0.000 OA
ATOM     13   O  GAD B   1       5.591  61.790  48.6740  0.00  0.00     0.000 OA
ENDBRANCH 5 11
BRANCH 1 14
ATOM     14  O3  ASG B   2      10.636  59.544  48.0280  0.00  0.00     0.000 O
BRANCH 14 17
ATOM     15  C1  ASG B   2      14.149  58.311  47.3850  0.00  0.00     0.000 C
ATOM     16  C2  ASG B   2      13.064  59.264  47.9050  0.00  0.00     0.000 C
ATOM     17  C3  ASG B   2      11.686  58.691  47.5590  0.00  0.00     0.000 C
ATOM     18  C4  ASG B   2      11.563  58.507  46.0590  0.00  0.00     0.000 C
ATOM     19  C5  ASG B   2      12.729  57.658  45.5630  0.00  0.00     0.000 C
ATOM     20  O5  ASG B   2      13.978  58.243  45.9820  0.00  0.00     0.000 O
ATOM     21   C  ASG B   2      12.783  57.562  44.0720  0.00  0.00     0.000 C
ATOM     22   O  ASG B   2      13.991  56.952  43.6880  0.00  0.00     0.000 O
ATOM     24  HD  ASG B   2      14.683  56.593  43.3110  0.00  0.00     0.000 HD
BRANCH 16 26
ATOM     24   N  ASG B   2      13.219  59.602  49.3010  0.00  0.00     0.000 N
ATOM     26  HD  ASG B   2      13.894  59.404  48.7950  0.00  0.00     0.000 HD
ATOM     26   C  ASG B   2      12.849  60.780  49.8360  0.00  0.00     0.000 C
ATOM     27   C  ASG B   2      12.765  60.826  51.3230  0.00  0.00     0.000 C
ATOM     28   O  ASG B   2      12.598  61.754  49.1380  0.00  0.00     0.000 OA
ENDBRANCH 16 26
BRANCH 18 29
ATOM     29   O  ASG B   2      11.549  59.854  45.4730  0.00  0.00     0.000 O
ATOM     30   O  ASG B   2      10.162  59.222  43.5450  0.00  0.00     0.000 OA
ATOM     31   O  ASG B   2       9.200  60.523  45.3540  0.00  0.00     0.000 OA
ATOM     32   O  ASG B   2      10.834  61.524  43.8800  0.00  0.00     0.000 OA
ATOM     33   S  ASG B   2      10.345  60.295  44.5040  0.00  0.00     0.000 S
ENDBRANCH 18 29
BRANCH 15 34
ATOM     34  O4  ASG B   3      15.452  58.743  47.6560  0.00  0.00     0.000 O
BRANCH 34 38
ATOM     35  C1  GCT B   3      17.450  55.301  46.9310  0.00  0.00     0.000 C
ATOM     36  C2  GCT B   3      17.109  55.520  48.3900  0.00  0.00     0.000 C
ATOM     37  C3  GCT B   3      16.013  56.565  48.5380  0.00  0.00     0.000 C
ATOM     38  C4  GCT B   3      16.490  57.887  47.9250  0.00  0.00     0.000 C
ATOM     39  C5  GCT B   3      17.403  57.661  46.6980  0.00  0.00     0.000 C
ATOM     40  O5  GCT B   3      17.033  56.411  46.1440  0.00  0.00     0.000 O
ATOM     41   O  GCT B   3      16.667  54.267  48.8930  0.00  0.00     0.000 O
ATOM     43  HD  GCT B   3      17.095  53.551  49.1240  0.00  0.00     0.000 HD
ATOM     43   O  GCT B   3      15.678  56.685  49.9370  0.00  0.00     0.000 O
ATOM     45  HD  GCT B   3      16.106  55.968  50.1690  0.00  0.00     0.000 HD
BRANCH 39 45
ATOM     45   C  GCT B   3      18.902  57.694  46.9020  0.00  0.00     0.000 C
ATOM     46   O  GCT B   3      19.373  57.839  48.0730  0.00  0.00     0.000 OA
ATOM     47   O  GCT B   3      19.624  57.563  45.9000  0.00  0.00     0.000 OA
ENDBRANCH 39 45
BRANCH 35 48
ATOM     48  O3  ASG B   4      18.563  54.604  46.8450  0.00  0.00     0.000 O
BRANCH 48 51
ATOM     49  C1  ASG B   4      19.251  51.207  45.5510  0.00  0.00     0.000 C
ATOM     50  C2  ASG B   4      19.139  52.383  46.5350  0.00  0.00     0.000 C
ATOM     51  C3  ASG B   4      18.376  53.550  45.9160  0.00  0.00     0.000 C
ATOM     52  C4  ASG B   4      18.929  53.905  44.5450  0.00  0.00     0.000 C
ATOM     53  C5  ASG B   4      18.928  52.640  43.6910  0.00  0.00     0.000 C
ATOM     54  O5  ASG B   4      19.775  51.652  44.3100  0.00  0.00     0.000 O
BRANCH 50 57
ATOM     55   N  ASG B   4      18.487  51.987  47.7630  0.00  0.00     0.000 N
ATOM     57  HD  ASG B   4      19.083  51.418  48.0300  0.00  0.00     0.000 HD
ATOM     57   O  ASG B   4      20.382  51.424  48.8140  0.00  0.00     0.000 OA
ATOM     58   C  ASG B   4      19.174  51.633  48.8530  0.00  0.00     0.000 C
ATOM     59   C  ASG B   4      18.364  51.460  50.1010  0.00  0.00     0.000 C
ENDBRANCH 50 57
BRANCH 52 60
ATOM     60   O  ASG B   4      20.280  54.446  44.8460  0.00  0.00     0.000 O
ATOM     61   O  ASG B   4      20.263  55.947  42.8510  0.00  0.00     0.000 OA
ATOM     62   O  ASG B   4      22.064  56.061  44.4050  0.00  0.00     0.000 OA
ATOM     63   O  ASG B   4      21.748  54.062  43.1310  0.00  0.00     0.000 OA
ATOM     64   S  ASG B   4      21.125  55.241  43.7390  0.00  0.00     0.000 S
ENDBRANCH 52 60
ATOM     65   O  ASG B   4      19.056  51.720  41.4510  0.00  0.00     0.000 O
ATOM     67  HD  ASG B   4      19.631  51.132  41.7220  0.00  0.00     0.000 HD
ATOM     67   O  ASG B   4      19.056  51.720  41.4510  0.00  0.00     0.000 O
ATOM     69  HD  ASG B   4      19.631  51.132  41.7220  0.00  0.00     0.000 HD
ENDBRANCH 48 51
ENDBRANCH 35 48
ENDBRANCH 34 38
ENDBRANCH 15 34
ENDBRANCH 14 17
ENDBRANCH 1 14
TORSDOF 12
ENDMDL
MODEL 76
REMARK VINA RESULT:      -7.0      3.094     10.217
ROOT
ATOM      1  C1  GAD B   1      24.050  36.552  39.7900  0.00  0.00     0.000 C
ATOM      2  C2  GAD B   1      24.457  35.200  40.3840  0.00  0.00     0.000 C
ATOM      3  C3  GAD B   1      25.797  35.329  41.1170  0.00  0.00     0.000 C
ATOM      4  C4  GAD B   1      26.753  36.363  40.5160  0.00  0.00     0.000 C
ATOM      5  C5  GAD B   1      26.423  37.217  39.5270  0.00  0.00     0.000 C
ATOM      6  O5  GAD B   1      25.096  37.107  38.9780  0.00  0.00     0.000 O
ATOM      7   O  GAD B   1      23.389  34.644  41.2370  0.00  0.00     0.000 O
ATOM      9  HD  GAD B   1      22.934  35.252  40.8210  0.00  0.00     0.000 HD
ATOM      9   O  GAD B   1      26.519  34.076  41.1300  0.00  0.00     0.000 O
ATOM     11  HD  GAD B   1      26.063  34.685  40.7140  0.00  0.00     0.000 HD
ENDROOT
BRANCH 5 11
ATOM     11   C  GAD B   1      27.304  38.291  39.0110  0.00  0.00     0.000 C
ATOM     12   O  GAD B   1      28.468  38.371  39.5140  0.00  0.00     0.000 OA
ATOM     13   O  GAD B   1      26.855  39.139  38.1540  0.00  0.00     0.000 OA
ENDBRANCH 5 11
BRANCH 1 14
ATOM     14  O3  ASG B   2      23.181  36.694  38.7720  0.00  0.00     0.000 O
BRANCH 14 17
ATOM     15  C1  ASG B   2      22.884  38.753  35.6170  0.00  0.00     0.000 C
ATOM     16  C2  ASG B   2      22.599  38.356  37.0730  0.00  0.00     0.000 C
ATOM     17  C3  ASG B   2      23.411  37.104  37.4190  0.00  0.00     0.000 C
ATOM     18  C4  ASG B   2      23.048  35.974  36.4750  0.00  0.00     0.000 C
ATOM     19  C5  ASG B   2      23.226  36.449  35.0360  0.00  0.00     0.000 C
ATOM     20  O5  ASG B   2      22.472  37.659  34.8200  0.00  0.00     0.000 O
ATOM     21   C  ASG B   2      22.733  35.456  34.0330  0.00  0.00     0.000 C
ATOM     22   O  ASG B   2      22.731  36.045  32.7560  0.00  0.00     0.000 O
ATOM     24  HD  ASG B   2      22.680  36.274  31.9220  0.00  0.00     0.000 HD
BRANCH 16 26
ATOM     24   N  ASG B   2      22.872  39.346  38.0880  0.00  0.00     0.000 N
ATOM     26  HD  ASG B   2      22.773  39.555  37.2540  0.00  0.00     0.000 HD
ATOM     26   C  ASG B   2      22.073  39.581  39.1460  0.00  0.00     0.000 C
ATOM     27   C  ASG B   2      22.670  40.377  40.2550  0.00  0.00     0.000 C
ATOM     28   O  ASG B   2      20.923  39.161  39.1900  0.00  0.00     0.000 OA
ENDBRANCH 16 26
BRANCH 18 29
ATOM     29   O  ASG B   2      21.661  35.601  36.7850  0.00  0.00     0.000 O
ATOM     30   O  ASG B   2      21.991  33.207  36.3380  0.00  0.00     0.000 OA
ATOM     31   O  ASG B   2      21.780  33.994  38.6240  0.00  0.00     0.000 OA
ATOM     32   O  ASG B   2      19.863  34.028  37.1510  0.00  0.00     0.000 OA
ATOM     33   S  ASG B   2      21.320  34.104  37.2590  0.00  0.00     0.000 S
ENDBRANCH 18 29
BRANCH 15 34
ATOM     34  O4  ASG B   3      22.192  39.895  35.2010  0.00  0.00     0.000 O
BRANCH 34 38
ATOM     35  C1  GCT B   3      18.631  41.747  34.6970  0.00  0.00     0.000 C
ATOM     36  C2  GCT B   3      19.335  42.107  35.9880  0.00  0.00     0.000 C
ATOM     37  C3  GCT B   3      20.811  41.743  35.9190  0.00  0.00     0.000 C
ATOM     38  C4  GCT B   3      20.948  40.236  35.6690  0.00  0.00     0.000 C
ATOM     39  C5  GCT B   3      19.810  39.691  34.7760  0.00  0.00     0.000 C
ATOM     40  O5  GCT B   3      19.373  40.773  33.9720  0.00  0.00     0.000 O
ATOM     41   O  GCT B   3      19.180  43.509  36.1550  0.00  0.00     0.000 O
ATOM     43  HD  GCT B   3      18.510  43.992  36.4130  0.00  0.00     0.000 HD
ATOM     43   O  GCT B   3      21.447  42.168  37.1430  0.00  0.00     0.000 O
ATOM     45  HD  GCT B   3      20.777  42.652  37.4010  0.00  0.00     0.000 HD
BRANCH 39 45
ATOM     45   C  GCT B   3      18.615  39.050  35.4460  0.00  0.00     0.000 C
ATOM     46   O  GCT B   3      17.630  38.667  34.7380  0.00  0.00     0.000 OA
ATOM     47   O  GCT B   3      18.650  38.908  36.6790  0.00  0.00     0.000 OA
ENDBRANCH 39 45
BRANCH 35 48
ATOM     48  O3  ASG B   4      17.329  41.824  34.8760  0.00  0.00     0.000 O
BRANCH 48 51
ATOM     49  C1  ASG B   4      15.578  44.623  33.2070  0.00  0.00     0.000 C
ATOM     50  C2  ASG B   4      16.438  43.860  34.2280  0.00  0.00     0.000 C
ATOM     51  C3  ASG B   4      16.744  42.445  33.7450  0.00  0.00     0.000 C
ATOM     52  C4  ASG B   4      15.479  41.729  33.3020  0.00  0.00     0.000 C
ATOM     53  C5  ASG B   4      14.779  42.601  32.2630  0.00  0.00     0.000 C
ATOM     54  O5  ASG B   4      14.430  43.863  32.8650  0.00  0.00     0.000 O
BRANCH 50 57
ATOM     55   N  ASG B   4      17.055  45.156  34.0610  0.00  0.00     0.000 N
ATOM     57  HD  ASG B   4      16.666  45.554  34.7240  0.00  0.00     0.000 HD
ATOM     57   O  ASG B   4      16.874  45.735  36.2170  0.00  0.00     0.000 OA
ATOM     58   C  ASG B   4      17.322  45.958  35.0960  0.00  0.00     0.000 C
ATOM     59   C  ASG B   4      18.154  47.164  34.7840  0.00  0.00     0.000 C
ENDBRANCH 50 57
BRANCH 52 60
ATOM     60   O  ASG B   4      14.722  41.546  34.5670  0.00  0.00     0.000 O
ATOM     61   O  ASG B   4      14.363  39.111  34.1520  0.00  0.00     0.000 OA
ATOM     62   O  ASG B   4      13.664  40.078  36.2130  0.00  0.00     0.000 OA
ATOM     63   O  ASG B   4      12.603  40.766  34.1830  0.00  0.00     0.000 OA
ATOM     64   S  ASG B   4      13.818  40.246  34.8180  0.00  0.00     0.000 S
ENDBRANCH 52 60
ATOM     65   O  ASG B   4      13.120  42.693  30.4970  0.00  0.00     0.000 O
ATOM     67  HD  ASG B   4      12.797  43.422  30.8340  0.00  0.00     0.000 HD
ATOM     67   O  ASG B   4      13.120  42.693  30.4970  0.00  0.00     0.000 O
ATOM     69  HD  ASG B   4      12.797  43.422  30.8340  0.00  0.00     0.000 HD
ENDBRANCH 48 51
ENDBRANCH 35 48
ENDBRANCH 34 38
ENDBRANCH 15 34
ENDBRANCH 14 17
ENDBRANCH 1 14
TORSDOF 12
ENDMDL
MODEL 77
REMARK VINA RESULT:      -7.0     22.472     25.826
ROOT
ATOM      1  C1  GAD B   1      19.615  28.619  58.7340  0.00  0.00     0.000 C
ATOM      2  C2  GAD B   1      19.633  27.089  58.8010  0.00  0.00     0.000 C
ATOM      3  C3  GAD B   1      18.663  26.598  59.8820  0.00  0.00     0.000 C
ATOM      4  C4  GAD B   1      18.517  27.540  61.0800  0.00  0.00     0.000 C
ATOM      5  C5  GAD B   1      19.053  28.776  61.1430  0.00  0.00     0.000 C
ATOM      6  O5  GAD B   1      19.850  29.206  60.0240  0.00  0.00     0.000 O
ATOM      7   O  GAD B   1      19.366  26.490  57.4790  0.00  0.00     0.000 O
ATOM      9  HD  GAD B   1      19.542  27.302  57.2320  0.00  0.00     0.000 HD
ATOM      9   O  GAD B   1      19.075  25.323  60.4240  0.00  0.00     0.000 O
ATOM     11  HD  GAD B   1      19.251  26.134  60.1780  0.00  0.00     0.000 HD
ENDROOT
BRANCH 5 11
ATOM     11   C  GAD B   1      18.830  29.736  62.2490  0.00  0.00     0.000 C
ATOM     12   O  GAD B   1      19.723  29.793  63.1500  0.00  0.00     0.000 OA
ATOM     13   O  GAD B   1      17.734  30.407  62.3120  0.00  0.00     0.000 OA
ENDBRANCH 5 11
BRANCH 1 14
ATOM     14  O3  ASG B   2      20.610  29.361  58.2130  0.00  0.00     0.000 O
BRANCH 14 17
ATOM     15  C1  ASG B   2      24.345  29.813  57.8570  0.00  0.00     0.000 C
ATOM     16  C2  ASG B   2      22.894  30.235  58.1270  0.00  0.00     0.000 C
ATOM     17  C3  ASG B   2      21.979  29.018  57.9670  0.00  0.00     0.000 C
ATOM     18  C4  ASG B   2      22.118  28.444  56.5700  0.00  0.00     0.000 C
ATOM     19  C5  ASG B   2      23.590  28.153  56.2950  0.00  0.00     0.000 C
ATOM     20  O5  ASG B   2      24.378  29.338  56.5240  0.00  0.00     0.000 O
ATOM     21   C  ASG B   2      23.844  27.740  54.8810  0.00  0.00     0.000 C
ATOM     22   O  ASG B   2      25.231  27.698  54.6500  0.00  0.00     0.000 O
ATOM     24  HD  ASG B   2      26.047  27.628  54.3680  0.00  0.00     0.000 HD
BRANCH 16 26
ATOM     24   N  ASG B   2      22.654  30.861  59.4060  0.00  0.00     0.000 N
ATOM     26  HD  ASG B   2      23.438  30.847  59.0390  0.00  0.00     0.000 HD
ATOM     26   C  ASG B   2      21.800  31.885  59.5950  0.00  0.00     0.000 C
ATOM     27   C  ASG B   2      21.424  32.172  61.0080  0.00  0.00     0.000 C
ATOM     28   O  ASG B   2      21.360  32.538  58.6570  0.00  0.00     0.000 OA
ENDBRANCH 16 26
BRANCH 18 29
ATOM     29   O  ASG B   2      21.553  29.442  55.6520  0.00  0.00     0.000 O
ATOM     30   O  ASG B   2      20.737  27.784  54.0300  0.00  0.00     0.000 OA
ATOM     31   O  ASG B   2      19.167  28.936  55.4790  0.00  0.00     0.000 OA
ATOM     32   O  ASG B   2      20.293  30.143  53.7130  0.00  0.00     0.000 OA
ATOM     33   S  ASG B   2      20.354  29.032  54.6630  0.00  0.00     0.000 S
ENDBRANCH 18 29
BRANCH 15 34
ATOM     34  O4  ASG B   3      25.267  30.857  57.9830  0.00  0.00     0.000 O
BRANCH 34 38
ATOM     35  C1  GCT B   3      27.473  33.811  56.3160  0.00  0.00     0.000 C
ATOM     36  C2  GCT B   3      26.331  33.329  55.4470  0.00  0.00     0.000 C
ATOM     37  C3  GCT B   3      25.307  32.563  56.2730  0.00  0.00     0.000 C
ATOM     38  C4  GCT B   3      25.989  31.357  56.9290  0.00  0.00     0.000 C
ATOM     39  C5  GCT B   3      27.458  31.656  57.3070  0.00  0.00     0.000 C
ATOM     40  O5  GCT B   3      27.544  33.054  57.5190  0.00  0.00     0.000 O
ATOM     41   O  GCT B   3      25.739  34.489  54.8800  0.00  0.00     0.000 O
ATOM     43  HD  GCT B   3      25.983  35.008  54.2320  0.00  0.00     0.000 HD
ATOM     43   O  GCT B   3      24.210  32.189  55.4130  0.00  0.00     0.000 O
ATOM     45  HD  GCT B   3      24.455  32.708  54.7640  0.00  0.00     0.000 HD
BRANCH 39 45
ATOM     45   C  GCT B   3      28.549  31.226  56.3500  0.00  0.00     0.000 C
ATOM     46   O  GCT B   3      29.765  31.458  56.6410  0.00  0.00     0.000 OA
ATOM     47   O  GCT B   3      28.208  30.643  55.3090  0.00  0.00     0.000 OA
ENDBRANCH 39 45
BRANCH 35 48
ATOM     48  O3  ASG B   4      28.456  34.230  55.5490  0.00  0.00     0.000 O
BRANCH 48 51
ATOM     49  C1  ASG B   4      29.502  37.462  54.0830  0.00  0.00     0.000 C
ATOM     50  C2  ASG B   4      29.433  35.948  54.3430  0.00  0.00     0.000 C
ATOM     51  C3  ASG B   4      28.240  35.593  55.2260  0.00  0.00     0.000 C
ATOM     52  C4  ASG B   4      28.198  36.465  56.4700  0.00  0.00     0.000 C
ATOM     53  C5  ASG B   4      28.229  37.925  56.0270  0.00  0.00     0.000 C
ATOM     54  O5  ASG B   4      29.453  38.174  55.3080  0.00  0.00     0.000 O
BRANCH 50 57
ATOM     55   N  ASG B   4      29.356  35.000  53.2550  0.00  0.00     0.000 N
ATOM     57  HD  ASG B   4      30.075  35.245  52.8380  0.00  0.00     0.000 HD
ATOM     57   O  ASG B   4      31.564  34.956  52.8810  0.00  0.00     0.000 OA
ATOM     58   C  ASG B   4      30.447  34.493  52.6710  0.00  0.00     0.000 C
ATOM     59   C  ASG B   4      30.205  33.369  51.7120  0.00  0.00     0.000 C
ENDBRANCH 50 57
BRANCH 52 60
ATOM     60   O  ASG B   4      29.390  36.028  57.2420  0.00  0.00     0.000 O
ATOM     61   O  ASG B   4      28.111  35.881  59.3800  0.00  0.00     0.000 OA
ATOM     62   O  ASG B   4      30.381  35.168  59.3060  0.00  0.00     0.000 OA
ATOM     63   O  ASG B   4      29.872  37.477  58.9490  0.00  0.00     0.000 OA
ATOM     64   S  ASG B   4      29.414  36.088  58.8440  0.00  0.00     0.000 S
ENDBRANCH 52 60
ATOM     65   O  ASG B   4      27.829  40.232  56.6580  0.00  0.00     0.000 O
ATOM     67  HD  ASG B   4      28.589  40.462  56.3130  0.00  0.00     0.000 HD
ATOM     67   O  ASG B   4      27.829  40.232  56.6580  0.00  0.00     0.000 O
ATOM     69  HD  ASG B   4      28.589  40.462  56.3130  0.00  0.00     0.000 HD
ENDBRANCH 48 51
ENDBRANCH 35 48
ENDBRANCH 34 38
ENDBRANCH 15 34
ENDBRANCH 14 17
ENDBRANCH 1 14
TORSDOF 12
ENDMDL
MODEL 78
REMARK VINA RESULT:      -7.0      2.768      4.920
ROOT
ATOM      1  C1  GAD B   1      13.651  42.550  30.1550  0.00  0.00     0.000 C
ATOM      2  C2  GAD B   1      12.203  42.656  29.6650  0.00  0.00     0.000 C
ATOM      3  C3  GAD B   1      11.841  44.123  29.4050  0.00  0.00     0.000 C
ATOM      4  C4  GAD B   1      12.547  45.124  30.3250  0.00  0.00     0.000 C
ATOM      5  C5  GAD B   1      13.526  44.798  31.1920  0.00  0.00     0.000 C
ATOM      6  O5  GAD B   1      13.890  43.407  31.2820  0.00  0.00     0.000 O
ATOM      7   O  GAD B   1      11.968  41.793  28.4920  0.00  0.00     0.000 O
ATOM      9  HD  GAD B   1      12.718  41.456  28.7650  0.00  0.00     0.000 HD
ATOM      9   O  GAD B   1      10.425  44.358  29.5700  0.00  0.00     0.000 O
ATOM     11  HD  GAD B   1      11.174  44.021  29.8430  0.00  0.00     0.000 HD
ENDROOT
BRANCH 5 11
ATOM     11   C  GAD B   1      14.288  45.772  32.0080  0.00  0.00     0.000 C
ATOM     12   O  GAD B   1      14.483  46.920  31.5010  0.00  0.00     0.000 OA
ATOM     13   O  GAD B   1      14.787  45.416  33.1390  0.00  0.00     0.000 OA
ENDBRANCH 5 11
BRANCH 1 14
ATOM     14  O3  ASG B   2      14.135  41.502  30.8470  0.00  0.00     0.000 O
BRANCH 14 17
ATOM     15  C1  ASG B   2      16.335  40.835  33.8460  0.00  0.00     0.000 C
ATOM     16  C2  ASG B   2      15.967  40.910  32.3570  0.00  0.00     0.000 C
ATOM     17  C3  ASG B   2      14.526  41.410  32.2220  0.00  0.00     0.000 C
ATOM     18  C4  ASG B   2      13.583  40.478  32.9580  0.00  0.00     0.000 C
ATOM     19  C5  ASG B   2      14.054  40.331  34.4020  0.00  0.00     0.000 C
ATOM     20  O5  ASG B   2      15.433  39.913  34.4300  0.00  0.00     0.000 O
ATOM     21   C  ASG B   2      13.282  39.300  35.1610  0.00  0.00     0.000 C
ATOM     22   O  ASG B   2      13.905  39.071  36.4010  0.00  0.00     0.000 O
ATOM     24  HD  ASG B   2      14.176  38.832  37.1880  0.00  0.00     0.000 HD
BRANCH 16 26
ATOM     24   N  ASG B   2      16.547  40.545  31.0860  0.00  0.00     0.000 N
ATOM     26  HD  ASG B   2      15.701  40.459  31.2490  0.00  0.00     0.000 HD
ATOM     26   C  ASG B   2      17.195  41.405  30.2780  0.00  0.00     0.000 C
ATOM     27   C  ASG B   2      18.014  40.795  29.1930  0.00  0.00     0.000 C
ATOM     28   O  ASG B   2      17.114  42.617  30.4310  0.00  0.00     0.000 OA
ENDBRANCH 16 26
BRANCH 18 29
ATOM     29   O  ASG B   2      13.594  39.206  32.2230  0.00  0.00     0.000 O
ATOM     30   O  ASG B   2      11.227  38.702  32.6550  0.00  0.00     0.000 OA
ATOM     31   O  ASG B   2      11.927  39.429  30.4480  0.00  0.00     0.000 OA
ATOM     32   O  ASG B   2      12.565  37.243  31.2600  0.00  0.00     0.000 OA
ATOM     33   S  ASG B   2      12.228  38.624  31.6080  0.00  0.00     0.000 S
ENDBRANCH 18 29
BRANCH 15 34
ATOM     34  O4  ASG B   3      17.641  40.392  34.0800  0.00  0.00     0.000 O
BRANCH 34 38
ATOM     35  C1  GCT B   3      20.346  37.576  35.1390  0.00  0.00     0.000 C
ATOM     36  C2  GCT B   3      19.214  37.051  34.2820  0.00  0.00     0.000 C
ATOM     37  C3  GCT B   3      18.500  38.192  33.5710  0.00  0.00     0.000 C
ATOM     38  C4  GCT B   3      17.937  39.164  34.6150  0.00  0.00     0.000 C
ATOM     39  C5  GCT B   3      18.845  39.265  35.8620  0.00  0.00     0.000 C
ATOM     40  O5  GCT B   3      20.159  38.957  35.4310  0.00  0.00     0.000 O
ATOM     41   O  GCT B   3      19.800  36.170  33.3350  0.00  0.00     0.000 O
ATOM     43  HD  GCT B   3      20.095  35.359  33.4010  0.00  0.00     0.000 HD
ATOM     43   O  GCT B   3      17.479  37.633  32.7170  0.00  0.00     0.000 O
ATOM     45  HD  GCT B   3      17.774  36.822  32.7830  0.00  0.00     0.000 HD
BRANCH 39 45
ATOM     45   C  GCT B   3      18.504  38.421  37.0710  0.00  0.00     0.000 C
ATOM     46   O  GCT B   3      19.050  38.680  38.1900  0.00  0.00     0.000 OA
ATOM     47   O  GCT B   3      17.680  37.504  36.9220  0.00  0.00     0.000 OA
ENDBRANCH 39 45
BRANCH 35 48
ATOM     48  O3  ASG B   4      20.768  36.618  35.9350  0.00  0.00     0.000 O
BRANCH 48 51
ATOM     49  C1  ASG B   4      24.328  36.135  36.8240  0.00  0.00     0.000 C
ATOM     50  C2  ASG B   4      22.994  35.995  36.0700  0.00  0.00     0.000 C
ATOM     51  C3  ASG B   4      21.978  37.028  36.5490  0.00  0.00     0.000 C
ATOM     52  C4  ASG B   4      21.867  37.029  38.0650  0.00  0.00     0.000 C
ATOM     53  C5  ASG B   4      23.266  37.222  38.6430  0.00  0.00     0.000 C
ATOM     54  O5  ASG B   4      24.104  36.127  38.2240  0.00  0.00     0.000 O
BRANCH 50 57
ATOM     55   N  ASG B   4      22.190  34.809  35.8830  0.00  0.00     0.000 N
ATOM     57  HD  ASG B   4      22.401  34.657  35.0570  0.00  0.00     0.000 HD
ATOM     57   O  ASG B   4      23.491  33.945  34.2780  0.00  0.00     0.000 OA
ATOM     58   C  ASG B   4      22.561  33.817  35.0680  0.00  0.00     0.000 C
ATOM     59   C  ASG B   4      21.734  32.571  35.1470  0.00  0.00     0.000 C
ENDBRANCH 50 57
BRANCH 52 60
ATOM     60   O  ASG B   4      21.248  35.713  38.3690  0.00  0.00     0.000 O
ATOM     61   O  ASG B   4      20.115  36.575  40.4200  0.00  0.00     0.000 OA
ATOM     62   O  ASG B   4      19.690  34.354  39.6750  0.00  0.00     0.000 OA
ATOM     63   O  ASG B   4      21.886  34.931  40.4250  0.00  0.00     0.000 OA
ATOM     64   S  ASG B   4      20.636  35.395  39.8160  0.00  0.00     0.000 S
ENDBRANCH 52 60
ATOM     65   O  ASG B   4      24.576  37.815  40.5950  0.00  0.00     0.000 O
ATOM     67  HD  ASG B   4      25.092  37.132  40.4610  0.00  0.00     0.000 HD
ATOM     67   O  ASG B   4      24.576  37.815  40.5950  0.00  0.00     0.000 O
ATOM     69  HD  ASG B   4      25.092  37.132  40.4610  0.00  0.00     0.000 HD
ENDBRANCH 48 51
ENDBRANCH 35 48
ENDBRANCH 34 38
ENDBRANCH 15 34
ENDBRANCH 14 17
ENDBRANCH 1 14
TORSDOF 12
ENDMDL
MODEL 79
REMARK VINA RESULT:      -7.0     24.038     29.140
ROOT
ATOM      1  C1  GAD B   1       6.195  64.673  42.3160  0.00  0.00     0.000 C
ATOM      2  C2  GAD B   1       4.999  63.819  42.7480  0.00  0.00     0.000 C
ATOM      3  C3  GAD B   1       5.475  62.649  43.6170  0.00  0.00     0.000 C
ATOM      4  C4  GAD B   1       6.867  62.120  43.2630  0.00  0.00     0.000 C
ATOM      5  C5  GAD B   1       7.699  62.705  42.3780  0.00  0.00     0.000 C
ATOM      6  O5  GAD B   1       7.215  63.877  41.6950  0.00  0.00     0.000 O
ATOM      7   O  GAD B   1       3.964  64.638  43.4070  0.00  0.00     0.000 O
ATOM      9  HD  GAD B   1       4.429  65.269  43.0410  0.00  0.00     0.000 HD
ATOM      9   O  GAD B   1       4.580  61.518  43.5210  0.00  0.00     0.000 O
ATOM     11  HD  GAD B   1       5.046  62.150  43.1540  0.00  0.00     0.000 HD
ENDROOT
BRANCH 5 11
ATOM     11   C  GAD B   1       9.087  62.263  42.1070  0.00  0.00     0.000 C
ATOM     12   O  GAD B   1       9.289  61.011  42.0350  0.00  0.00     0.000 OA
ATOM     13   O  GAD B   1      10.037  63.127  42.0330  0.00  0.00     0.000 OA
ENDBRANCH 5 11
BRANCH 1 14
ATOM     14  O3  ASG B   2       6.185  65.496  41.2500  0.00  0.00     0.000 O
BRANCH 14 17
ATOM     15  C1  ASG B   2       5.117  66.068  37.6710  0.00  0.00     0.000 C
ATOM     16  C2  ASG B   2       6.056  66.109  38.8840  0.00  0.00     0.000 C
ATOM     17  C3  ASG B   2       5.346  65.484  40.0890  0.00  0.00     0.000 C
ATOM     18  C4  ASG B   2       4.062  66.236  40.3810  0.00  0.00     0.000 C
ATOM     19  C5  ASG B   2       3.211  66.281  39.1150  0.00  0.00     0.000 C
ATOM     20  O5  ASG B   2       3.978  66.830  38.0250  0.00  0.00     0.000 O
ATOM     21   C  ASG B   2       2.000  67.145  39.2610  0.00  0.00     0.000 C
ATOM     22   O  ASG B   2       1.389  67.307  38.0050  0.00  0.00     0.000 O
ATOM     24  HD  ASG B   2       0.911  67.489  37.3060  0.00  0.00     0.000 HD
BRANCH 16 26
ATOM     24   N  ASG B   2       7.349  65.500  38.6710  0.00  0.00     0.000 N
ATOM     26  HD  ASG B   2       6.873  65.815  38.0200  0.00  0.00     0.000 HD
ATOM     26   C  ASG B   2       8.494  65.956  39.2110  0.00  0.00     0.000 C
ATOM     27   C  ASG B   2       9.656  65.024  39.1690  0.00  0.00     0.000 C
ATOM     28   O  ASG B   2       8.572  67.073  39.7080  0.00  0.00     0.000 OA
ENDBRANCH 16 26
BRANCH 18 29
ATOM     29   O  ASG B   2       4.458  67.572  40.8490  0.00  0.00     0.000 O
ATOM     30   O  ASG B   2       2.502  67.862  42.3090  0.00  0.00     0.000 OA
ATOM     31   O  ASG B   2       4.680  67.406  43.2780  0.00  0.00     0.000 OA
ATOM     32   O  ASG B   2       4.244  69.541  42.2320  0.00  0.00     0.000 OA
ATOM     33   S  ASG B   2       3.930  68.113  42.2670  0.00  0.00     0.000 S
ENDBRANCH 18 29
BRANCH 15 34
ATOM     34  O4  ASG B   3       5.675  66.613  36.5090  0.00  0.00     0.000 O
BRANCH 34 38
ATOM     35  C1  GCT B   3       6.717  64.645  33.1320  0.00  0.00     0.000 C
ATOM     36  C2  GCT B   3       6.170  66.036  32.8910  0.00  0.00     0.000 C
ATOM     37  C3  GCT B   3       6.213  66.863  34.1680  0.00  0.00     0.000 C
ATOM     38  C4  GCT B   3       5.374  66.168  35.2470  0.00  0.00     0.000 C
ATOM     39  C5  GCT B   3       5.440  64.628  35.1310  0.00  0.00     0.000 C
ATOM     40  O5  GCT B   3       6.680  64.322  34.5170  0.00  0.00     0.000 O
ATOM     41   O  GCT B   3       6.993  66.625  31.8940  0.00  0.00     0.000 O
ATOM     43  HD  GCT B   3       7.033  66.517  31.0360  0.00  0.00     0.000 HD
ATOM     43   O  GCT B   3       5.748  68.196  33.8670  0.00  0.00     0.000 O
ATOM     45  HD  GCT B   3       5.788  68.088  33.0090  0.00  0.00     0.000 HD
BRANCH 39 45
ATOM     45   C  GCT B   3       4.327  63.914  34.3940  0.00  0.00     0.000 C
ATOM     46   O  GCT B   3       4.342  62.646  34.3130  0.00  0.00     0.000 OA
ATOM     47   O  GCT B   3       3.422  64.608  33.9020  0.00  0.00     0.000 OA
ENDBRANCH 39 45
BRANCH 35 48
ATOM     48  O3  ASG B   4       6.427  63.880  32.1010  0.00  0.00     0.000 O
BRANCH 48 51
ATOM     49  C1  ASG B   4       8.477  62.254  29.4850  0.00  0.00     0.000 C
ATOM     50  C2  ASG B   4       7.388  63.123  30.1350  0.00  0.00     0.000 C
ATOM     51  C3  ASG B   4       7.616  63.262  31.6380  0.00  0.00     0.000 C
ATOM     52  C4  ASG B   4       7.836  61.907  32.2890  0.00  0.00     0.000 C
ATOM     53  C5  ASG B   4       8.973  61.205  31.5510  0.00  0.00     0.000 C
ATOM     54  O5  ASG B   4       8.597  61.019  30.1720  0.00  0.00     0.000 O
BRANCH 50 57
ATOM     55   N  ASG B   4       7.219  64.467  29.6320  0.00  0.00     0.000 N
ATOM     57  HD  ASG B   4       7.033  64.260  28.8120  0.00  0.00     0.000 HD
ATOM     57   O  ASG B   4       5.817  63.883  27.9870  0.00  0.00     0.000 OA
ATOM     58   C  ASG B   4       6.357  64.760  28.6530  0.00  0.00     0.000 C
ATOM     59   C  ASG B   4       6.142  66.219  28.3950  0.00  0.00     0.000 C
ENDBRANCH 50 57
BRANCH 52 60
ATOM     60   O  ASG B   4       6.513  61.241  32.1620  0.00  0.00     0.000 O
ATOM     61   O  ASG B   4       6.932  59.749  34.1180  0.00  0.00     0.000 OA
ATOM     62   O  ASG B   4       4.806  59.731  33.0480  0.00  0.00     0.000 OA
ATOM     63   O  ASG B   4       6.727  58.985  31.8360  0.00  0.00     0.000 OA
ATOM     64   S  ASG B   4       6.206  59.851  32.8970  0.00  0.00     0.000 S
ENDBRANCH 52 60
ATOM     65   O  ASG B   4      10.617  59.423  31.6110  0.00  0.00     0.000 O
ATOM     67  HD  ASG B   4      10.402  59.194  30.8040  0.00  0.00     0.000 HD
ATOM     67   O  ASG B   4      10.617  59.423  31.6110  0.00  0.00     0.000 O
ATOM     69  HD  ASG B   4      10.402  59.194  30.8040  0.00  0.00     0.000 HD
ENDBRANCH 48 51
ENDBRANCH 35 48
ENDBRANCH 34 38
ENDBRANCH 15 34
ENDBRANCH 14 17
ENDBRANCH 1 14
TORSDOF 12
ENDMDL
MODEL 80
REMARK VINA RESULT:      -7.0     18.989     23.714
ROOT
ATOM      1  C1  GAD B   1      18.946  52.806  57.6000  0.00  0.00     0.000 C
ATOM      2  C2  GAD B   1      18.095  51.594  57.9930  0.00  0.00     0.000 C
ATOM      3  C3  GAD B   1      18.369  51.209  59.4520  0.00  0.00     0.000 C
ATOM      4  C4  GAD B   1      19.799  51.485  59.9230  0.00  0.00     0.000 C
ATOM      5  C5  GAD B   1      20.721  52.153  59.2010  0.00  0.00     0.000 C
ATOM      6  O5  GAD B   1      20.336  52.588  57.8830  0.00  0.00     0.000 O
ATOM      7   O  GAD B   1      16.664  51.832  57.7240  0.00  0.00     0.000 O
ATOM      9  HD  GAD B   1      17.003  52.478  57.2570  0.00  0.00     0.000 HD
ATOM      9   O  GAD B   1      18.136  49.801  59.6820  0.00  0.00     0.000 O
ATOM     11  HD  GAD B   1      18.475  50.447  59.2150  0.00  0.00     0.000 HD
ENDROOT
BRANCH 5 11
ATOM     11   C  GAD B   1      22.072  52.518  59.6890  0.00  0.00     0.000 C
ATOM     12   O  GAD B   1      22.131  53.316  60.6750  0.00  0.00     0.000 OA
ATOM     13   O  GAD B   1      23.118  52.096  59.0700  0.00  0.00     0.000 OA
ENDBRANCH 5 11
BRANCH 1 14
ATOM     14  O3  ASG B   2      19.252  53.129  56.3300  0.00  0.00     0.000 O
BRANCH 14 17
ATOM     15  C1  ASG B   2      17.949  52.393  52.8600  0.00  0.00     0.000 C
ATOM     16  C2  ASG B   2      18.886  52.266  54.0690  0.00  0.00     0.000 C
ATOM     17  C3  ASG B   2      18.409  53.213  55.1750  0.00  0.00     0.000 C
ATOM     18  C4  ASG B   2      18.389  54.640  54.6610  0.00  0.00     0.000 C
ATOM     19  C5  ASG B   2      17.549  54.700  53.3890  0.00  0.00     0.000 C
ATOM     20  O5  ASG B   2      18.035  53.739  52.4320  0.00  0.00     0.000 O
ATOM     21   C  ASG B   2      17.607  56.035  52.7190  0.00  0.00     0.000 C
ATOM     22   O  ASG B   2      16.992  55.951  51.4580  0.00  0.00     0.000 O
ATOM     24  HD  ASG B   2      16.645  56.046  50.6690  0.00  0.00     0.000 HD
BRANCH 16 26
ATOM     24   N  ASG B   2      19.030  50.950  54.6480  0.00  0.00     0.000 N
ATOM     26  HD  ASG B   2      18.733  51.071  53.8430  0.00  0.00     0.000 HD
ATOM     26   C  ASG B   2      20.199  50.440  55.0770  0.00  0.00     0.000 C
ATOM     27   C  ASG B   2      20.108  49.232  55.9450  0.00  0.00     0.000 C
ATOM     28   O  ASG B   2      21.273  50.942  54.7690  0.00  0.00     0.000 OA
ENDBRANCH 16 26
BRANCH 18 29
ATOM     29   O  ASG B   2      19.789  55.023  54.4380  0.00  0.00     0.000 O
ATOM     30   O  ASG B   2      19.466  57.367  55.1060  0.00  0.00     0.000 OA
ATOM     31   O  ASG B   2      20.627  55.834  56.5880  0.00  0.00     0.000 OA
ATOM     32   O  ASG B   2      21.667  56.541  54.5240  0.00  0.00     0.000 OA
ATOM     33   S  ASG B   2      20.414  56.275  55.2300  0.00  0.00     0.000 S
ENDBRANCH 18 29
BRANCH 15 34
ATOM     34  O4  ASG B   3      18.296  51.560  51.7910  0.00  0.00     0.000 O
BRANCH 34 38
ATOM     35  C1  GCT B   3      20.197  51.046  48.2580  0.00  0.00     0.000 C
ATOM     36  C2  GCT B   3      21.054  50.743  49.4680  0.00  0.00     0.000 C
ATOM     37  C3  GCT B   3      20.190  50.529  50.7030  0.00  0.00     0.000 C
ATOM     38  C4  GCT B   3      19.368  51.796  50.9680  0.00  0.00     0.000 C
ATOM     39  C5  GCT B   3      18.963  52.509  49.6580  0.00  0.00     0.000 C
ATOM     40  O5  GCT B   3      18.912  51.512  48.6530  0.00  0.00     0.000 O
ATOM     41   O  GCT B   3      21.778  49.559  49.1620  0.00  0.00     0.000 O
ATOM     43  HD  GCT B   3      22.472  49.415  48.6640  0.00  0.00     0.000 HD
ATOM     43   O  GCT B   3      21.048  50.175  51.8080  0.00  0.00     0.000 O
ATOM     45  HD  GCT B   3      21.741  50.031  51.3100  0.00  0.00     0.000 HD
BRANCH 39 45
ATOM     45   C  GCT B   3      19.813  53.663  49.1740  0.00  0.00     0.000 C
ATOM     46   O  GCT B   3      20.838  54.010  49.8420  0.00  0.00     0.000 OA
ATOM     47   O  GCT B   3      19.478  54.226  48.1190  0.00  0.00     0.000 OA
ENDBRANCH 39 45
BRANCH 35 48
ATOM     48  O3  ASG B   4      20.964  51.482  47.2810  0.00  0.00     0.000 O
BRANCH 48 51
ATOM     49  C1  ASG B   4      21.279  49.861  43.9690  0.00  0.00     0.000 C
ATOM     50  C2  ASG B   4      21.581  50.234  45.4310  0.00  0.00     0.000 C
ATOM     51  C3  ASG B   4      20.435  51.034  46.0450  0.00  0.00     0.000 C
ATOM     52  C4  ASG B   4      20.034  52.195  45.1510  0.00  0.00     0.000 C
ATOM     53  C5  ASG B   4      19.729  51.642  43.7610  0.00  0.00     0.000 C
ATOM     54  O5  ASG B   4      20.914  51.017  43.2320  0.00  0.00     0.000 O
BRANCH 50 57
ATOM     55   N  ASG B   4      22.728  50.859  46.0480  0.00  0.00     0.000 N
ATOM     57  HD  ASG B   4      23.095  50.140  46.3630  0.00  0.00     0.000 HD
ATOM     57   O  ASG B   4      24.039  49.050  45.8920  0.00  0.00     0.000 OA
ATOM     58   C  ASG B   4      23.912  50.246  46.1370  0.00  0.00     0.000 C
ATOM     59   C  ASG B   4      25.050  51.100  46.6040  0.00  0.00     0.000 C
ENDBRANCH 50 57
BRANCH 52 60
ATOM     60   O  ASG B   4      21.209  53.102  45.2100  0.00  0.00     0.000 O
ATOM     61   O  ASG B   4      19.804  55.151  44.9680  0.00  0.00     0.000 OA
ATOM     62   O  ASG B   4      22.142  55.358  45.3680  0.00  0.00     0.000 OA
ATOM     63   O  ASG B   4      21.392  54.380  43.3190  0.00  0.00     0.000 OA
ATOM     64   S  ASG B   4      21.109  54.630  44.7350  0.00  0.00     0.000 S
ENDBRANCH 52 60
ATOM     65   O  ASG B   4      18.675  52.050  41.6160  0.00  0.00     0.000 O
ATOM     67  HD  ASG B   4      19.381  51.756  41.2100  0.00  0.00     0.000 HD
ATOM     67   O  ASG B   4      18.675  52.050  41.6160  0.00  0.00     0.000 O
ATOM     69  HD  ASG B   4      19.381  51.756  41.2100  0.00  0.00     0.000 HD
ENDBRANCH 48 51
ENDBRANCH 35 48
ENDBRANCH 34 38
ENDBRANCH 15 34
ENDBRANCH 14 17
ENDBRANCH 1 14
TORSDOF 12
ENDMDL
MODEL 81
REMARK VINA RESULT:      -7.0      2.685      9.729
ROOT
ATOM      1  C1  GAD B   1      21.145  38.240  38.4960  0.00  0.00     0.000 C
ATOM      2  C2  GAD B   1      19.751  37.606  38.5160  0.00  0.00     0.000 C
ATOM      3  C3  GAD B   1      19.635  36.624  39.6880  0.00  0.00     0.000 C
ATOM      4  C4  GAD B   1      20.942  35.915  40.0540  0.00  0.00     0.000 C
ATOM      5  C5  GAD B   1      22.143  36.217  39.5230  0.00  0.00     0.000 C
ATOM      6  O5  GAD B   1      22.178  37.243  38.5120  0.00  0.00     0.000 O
ATOM      7   O  GAD B   1      18.693  38.634  38.5240  0.00  0.00     0.000 O
ATOM      9  HD  GAD B   1      19.365  39.127  38.2900  0.00  0.00     0.000 HD
ATOM      9   O  GAD B   1      18.676  35.579  39.4120  0.00  0.00     0.000 O
ATOM     11  HD  GAD B   1      19.348  36.072  39.1780  0.00  0.00     0.000 HD
ENDROOT
BRANCH 5 11
ATOM     11   C  GAD B   1      23.428  35.612  39.9460  0.00  0.00     0.000 C
ATOM     12   O  GAD B   1      24.469  35.974  39.3150  0.00  0.00     0.000 OA
ATOM     13   O  GAD B   1      23.446  34.704  40.8570  0.00  0.00     0.000 OA
ENDBRANCH 5 11
BRANCH 1 14
ATOM     14  O3  ASG B   2      21.700  38.801  37.4060  0.00  0.00     0.000 O
BRANCH 14 17
ATOM     15  C1  ASG B   2      20.873  41.435  34.8260  0.00  0.00     0.000 C
ATOM     16  C2  ASG B   2      21.072  40.016  35.3770  0.00  0.00     0.000 C
ATOM     17  C3  ASG B   2      21.505  40.103  36.8430  0.00  0.00     0.000 C
ATOM     18  C4  ASG B   2      22.787  40.906  36.9580  0.00  0.00     0.000 C
ATOM     19  C5  ASG B   2      22.588  42.262  36.2880  0.00  0.00     0.000 C
ATOM     20  O5  ASG B   2      22.128  42.081  34.9340  0.00  0.00     0.000 O
ATOM     21   C  ASG B   2      23.851  43.058  36.2050  0.00  0.00     0.000 C
ATOM     22   O  ASG B   2      23.637  44.188  35.3960  0.00  0.00     0.000 O
ATOM     24  HD  ASG B   2      23.650  44.917  34.9280  0.00  0.00     0.000 HD
BRANCH 16 26
ATOM     24   N  ASG B   2      19.932  39.149  35.1830  0.00  0.00     0.000 N
ATOM     26  HD  ASG B   2      20.104  39.813  34.6540  0.00  0.00     0.000 HD
ATOM     26   C  ASG B   2      20.023  37.823  34.9710  0.00  0.00     0.000 C
ATOM     27   C  ASG B   2      18.762  37.045  35.1350  0.00  0.00     0.000 C
ATOM     28   O  ASG B   2      21.082  37.290  34.6630  0.00  0.00     0.000 OA
ENDBRANCH 16 26
BRANCH 18 29
ATOM     29   O  ASG B   2      23.839  40.104  36.3180  0.00  0.00     0.000 O
ATOM     30   O  ASG B   2      25.660  41.038  37.6800  0.00  0.00     0.000 OA
ATOM     31   O  ASG B   2      24.868  38.782  38.1000  0.00  0.00     0.000 OA
ATOM     32   O  ASG B   2      26.096  39.276  36.0770  0.00  0.00     0.000 OA
ATOM     33   S  ASG B   2      25.198  39.784  37.1140  0.00  0.00     0.000 S
ENDBRANCH 18 29
BRANCH 15 34
ATOM     34  O4  ASG B   3      20.469  41.466  33.4870  0.00  0.00     0.000 O
BRANCH 34 38
ATOM     35  C1  GCT B   3      16.645  41.502  32.1680  0.00  0.00     0.000 C
ATOM     36  C2  GCT B   3      17.608  42.269  31.2870  0.00  0.00     0.000 C
ATOM     37  C3  GCT B   3      19.046  41.863  31.5760  0.00  0.00     0.000 C
ATOM     38  C4  GCT B   3      19.366  42.152  33.0470  0.00  0.00     0.000 C
ATOM     39  C5  GCT B   3      18.136  41.941  33.9600  0.00  0.00     0.000 C
ATOM     40  O5  GCT B   3      17.313  40.986  33.3140  0.00  0.00     0.000 O
ATOM     41   O  GCT B   3      17.266  41.952  29.9450  0.00  0.00     0.000 O
ATOM     43  HD  GCT B   3      16.621  42.217  29.4320  0.00  0.00     0.000 HD
ATOM     43   O  GCT B   3      19.914  42.569  30.6640  0.00  0.00     0.000 O
ATOM     45  HD  GCT B   3      19.269  42.835  30.1510  0.00  0.00     0.000 HD
BRANCH 39 45
ATOM     45   C  GCT B   3      17.304  43.148  34.3350  0.00  0.00     0.000 C
ATOM     46   O  GCT B   3      17.596  44.287  33.8530  0.00  0.00     0.000 OA
ATOM     47   O  GCT B   3      16.343  42.971  35.1020  0.00  0.00     0.000 OA
ENDBRANCH 39 45
BRANCH 35 48
ATOM     48  O3  ASG B   4      15.452  42.052  32.0900  0.00  0.00     0.000 O
BRANCH 48 51
ATOM     49  C1  ASG B   4      12.267  41.263  30.3810  0.00  0.00     0.000 C
ATOM     50  C2  ASG B   4      13.427  42.084  30.9680  0.00  0.00     0.000 C
ATOM     51  C3  ASG B   4      14.591  41.184  31.3740  0.00  0.00     0.000 C
ATOM     52  C4  ASG B   4      14.116  40.026  32.2380  0.00  0.00     0.000 C
ATOM     53  C5  ASG B   4      13.002  39.300  31.4880  0.00  0.00     0.000 C
ATOM     54  O5  ASG B   4      11.910  40.213  31.2660  0.00  0.00     0.000 O
BRANCH 50 57
ATOM     55   N  ASG B   4      13.899  43.215  31.7330  0.00  0.00     0.000 N
ATOM     57  HD  ASG B   4      13.712  43.831  31.1540  0.00  0.00     0.000 HD
ATOM     57   O  ASG B   4      12.528  44.693  30.7580  0.00  0.00     0.000 OA
ATOM     58   C  ASG B   4      13.335  44.424  31.6420  0.00  0.00     0.000 C
ATOM     59   C  ASG B   4      13.794  45.431  32.6500  0.00  0.00     0.000 C
ENDBRANCH 50 57
BRANCH 52 60
ATOM     60   O  ASG B   4      13.684  40.686  33.4970  0.00  0.00     0.000 O
ATOM     61   O  ASG B   4      15.106  39.203  34.9140  0.00  0.00     0.000 OA
ATOM     62   O  ASG B   4      13.919  41.010  35.9100  0.00  0.00     0.000 OA
ATOM     63   O  ASG B   4      12.691  39.205  34.9340  0.00  0.00     0.000 OA
ATOM     64   S  ASG B   4      13.924  39.997  34.9240  0.00  0.00     0.000 S
ENDBRANCH 52 60
ATOM     65   O  ASG B   4      11.684  37.274  31.3060  0.00  0.00     0.000 O
ATOM     67  HD  ASG B   4      10.961  37.746  31.2390  0.00  0.00     0.000 HD
ATOM     67   O  ASG B   4      11.684  37.274  31.3060  0.00  0.00     0.000 O
ATOM     69  HD  ASG B   4      10.961  37.746  31.2390  0.00  0.00     0.000 HD
ENDBRANCH 48 51
ENDBRANCH 35 48
ENDBRANCH 34 38
ENDBRANCH 15 34
ENDBRANCH 14 17
ENDBRANCH 1 14
TORSDOF 12
ENDMDL
MODEL 82
REMARK VINA RESULT:      -7.0     19.457     23.576
ROOT
ATOM      1  C1  GAD B   1      20.849  52.005  46.4640  0.00  0.00     0.000 C
ATOM      2  C2  GAD B   1      20.873  50.490  46.2400  0.00  0.00     0.000 C
ATOM      3  C3  GAD B   1      20.701  50.175  44.7500  0.00  0.00     0.000 C
ATOM      4  C4  GAD B   1      19.830  51.175  43.9850  0.00  0.00     0.000 C
ATOM      5  C5  GAD B   1      19.368  52.330  44.5040  0.00  0.00     0.000 C
ATOM      6  O5  GAD B   1      19.682  52.606  45.8820  0.00  0.00     0.000 O
ATOM      7   O  GAD B   1      22.086  49.880  46.8180  0.00  0.00     0.000 O
ATOM      9  HD  GAD B   1      22.115  50.650  47.2130  0.00  0.00     0.000 HD
ATOM      9   O  GAD B   1      20.094  48.879  44.5480  0.00  0.00     0.000 O
ATOM     11  HD  GAD B   1      20.123  49.649  44.9420  0.00  0.00     0.000 HD
ENDROOT
BRANCH 5 11
ATOM     11   C  GAD B   1      18.615  53.355  43.7420  0.00  0.00     0.000 C
ATOM     12   O  GAD B   1      19.256  54.389  43.3800  0.00  0.00     0.000 OA
ATOM     13   O  GAD B   1      17.352  53.214  43.5440  0.00  0.00     0.000 OA
ENDBRANCH 5 11
BRANCH 1 14
ATOM     14  O3  ASG B   2      20.563  52.587  47.6440  0.00  0.00     0.000 O
BRANCH 14 17
ATOM     15  C1  ASG B   2      18.148  55.149  49.0160  0.00  0.00     0.000 C
ATOM     16  C2  ASG B   2      19.495  54.608  48.5170  0.00  0.00     0.000 C
ATOM     17  C3  ASG B   2      19.330  53.138  48.1210  0.00  0.00     0.000 C
ATOM     18  C4  ASG B   2      18.838  52.333  49.3090  0.00  0.00     0.000 C
ATOM     19  C5  ASG B   2      17.566  52.975  49.8530  0.00  0.00     0.000 C
ATOM     20  O5  ASG B   2      17.801  54.367  50.1440  0.00  0.00     0.000 O
ATOM     21   C  ASG B   2      17.100  52.347  51.1280  0.00  0.00     0.000 C
ATOM     22   O  ASG B   2      16.060  53.120  51.6750  0.00  0.00     0.000 O
ATOM     24  HD  ASG B   2      15.417  53.492  52.1210  0.00  0.00     0.000 HD
BRANCH 16 26
ATOM     24   N  ASG B   2      20.093  55.391  47.4600  0.00  0.00     0.000 N
ATOM     26  HD  ASG B   2      19.547  55.735  48.0380  0.00  0.00     0.000 HD
ATOM     26   C  ASG B   2      21.419  55.562  47.3070  0.00  0.00     0.000 C
ATOM     27   C  ASG B   2      21.863  56.100  45.9900  0.00  0.00     0.000 C
ATOM     28   O  ASG B   2      22.211  55.289  48.2010  0.00  0.00     0.000 OA
ENDBRANCH 16 26
BRANCH 18 29
ATOM     29   O  ASG B   2      19.934  52.322  50.2870  0.00  0.00     0.000 O
ATOM     30   O  ASG B   2      19.411  50.081  51.1510  0.00  0.00     0.000 OA
ATOM     31   O  ASG B   2      21.341  50.406  49.7150  0.00  0.00     0.000 OA
ATOM     32   O  ASG B   2      21.342  51.297  51.9630  0.00  0.00     0.000 OA
ATOM     33   S  ASG B   2      20.539  50.923  50.7980  0.00  0.00     0.000 S
ENDBRANCH 18 29
BRANCH 15 34
ATOM     34  O4  ASG B   3      18.189  56.493  49.3990  0.00  0.00     0.000 O
BRANCH 34 38
ATOM     35  C1  GCT B   3      14.443  57.682  48.4430  0.00  0.00     0.000 C
ATOM     36  C2  GCT B   3      15.452  57.873  47.3320  0.00  0.00     0.000 C
ATOM     37  C3  GCT B   3      16.695  57.030  47.5790  0.00  0.00     0.000 C
ATOM     38  C4  GCT B   3      17.327  57.443  48.9140  0.00  0.00     0.000 C
ATOM     39  C5  GCT B   3      16.263  57.863  49.9530  0.00  0.00     0.000 C
ATOM     40  O5  GCT B   3      15.072  57.174  49.6140  0.00  0.00     0.000 O
ATOM     41   O  GCT B   3      14.811  57.466  46.1310  0.00  0.00     0.000 O
ATOM     43  HD  GCT B   3      14.220  57.851  45.6290  0.00  0.00     0.000 HD
ATOM     43   O  GCT B   3      17.592  57.195  46.4590  0.00  0.00     0.000 O
ATOM     45  HD  GCT B   3      17.001  57.580  45.9570  0.00  0.00     0.000 HD
BRANCH 39 45
ATOM     45   C  GCT B   3      15.959  59.336  50.1170  0.00  0.00     0.000 C
ATOM     46   O  GCT B   3      15.203  59.719  51.0640  0.00  0.00     0.000 OA
ATOM     47   O  GCT B   3      16.481  60.127  49.3140  0.00  0.00     0.000 OA
ENDBRANCH 39 45
BRANCH 35 48
ATOM     48  O3  ASG B   4      13.510  58.605  48.3460  0.00  0.00     0.000 O
BRANCH 48 51
ATOM     49  C1  ASG B   4       9.832  58.270  48.1130  0.00  0.00     0.000 C
ATOM     50  C2  ASG B   4      11.285  58.573  47.7070  0.00  0.00     0.000 C
ATOM     51  C3  ASG B   4      12.269  58.051  48.7490  0.00  0.00     0.000 C
ATOM     52  C4  ASG B   4      11.881  58.500  50.1480  0.00  0.00     0.000 C
ATOM     53  C5  ASG B   4      10.435  58.082  50.3970  0.00  0.00     0.000 C
ATOM     54  O5  ASG B   4       9.583  58.729  49.4310  0.00  0.00     0.000 O
BRANCH 50 57
ATOM     55   N  ASG B   4      11.606  58.001  46.4200  0.00  0.00     0.000 N
ATOM     57  HD  ASG B   4      11.052  58.467  45.9450  0.00  0.00     0.000 HD
ATOM     57   O  ASG B   4      11.011  59.815  45.2490  0.00  0.00     0.000 OA
ATOM     58   C  ASG B   4      11.542  58.710  45.2880  0.00  0.00     0.000 C
ATOM     59   C  ASG B   4      12.111  58.043  44.0740  0.00  0.00     0.000 C
ENDBRANCH 50 57
BRANCH 52 60
ATOM     60   O  ASG B   4      12.102  59.969  50.1150  0.00  0.00     0.000 O
ATOM     61   O  ASG B   4      12.266  60.130  52.6010  0.00  0.00     0.000 OA
ATOM     62   O  ASG B   4      12.678  62.053  51.2580  0.00  0.00     0.000 OA
ATOM     63   O  ASG B   4      10.487  61.097  51.2830  0.00  0.00     0.000 OA
ATOM     64   S  ASG B   4      11.927  60.869  51.4300  0.00  0.00     0.000 S
ENDBRANCH 52 60
ATOM     65   O  ASG B   4       8.702  57.701  52.0500  0.00  0.00     0.000 O
ATOM     67  HD  ASG B   4       8.137  58.142  51.5650  0.00  0.00     0.000 HD
ATOM     67   O  ASG B   4       8.702  57.701  52.0500  0.00  0.00     0.000 O
ATOM     69  HD  ASG B   4       8.137  58.142  51.5650  0.00  0.00     0.000 HD
ENDBRANCH 48 51
ENDBRANCH 35 48
ENDBRANCH 34 38
ENDBRANCH 15 34
ENDBRANCH 14 17
ENDBRANCH 1 14
TORSDOF 12
ENDMDL
MODEL 83
REMARK VINA RESULT:      -7.0     28.540     32.940
ROOT
ATOM      1  C1  GAD B   1      19.154  18.947  59.8230  0.00  0.00     0.000 C
ATOM      2  C2  GAD B   1      18.188  17.794  60.1110  0.00  0.00     0.000 C
ATOM      3  C3  GAD B   1      18.061  16.893  58.8770  0.00  0.00     0.000 C
ATOM      4  C4  GAD B   1      18.204  17.624  57.5390  0.00  0.00     0.000 C
ATOM      5  C5  GAD B   1      18.567  18.916  57.4160  0.00  0.00     0.000 C
ATOM      6  O5  GAD B   1      18.787  19.657  58.6310  0.00  0.00     0.000 O
ATOM      7   O  GAD B   1      18.583  17.051  61.3230  0.00  0.00     0.000 O
ATOM      9  HD  GAD B   1      19.065  17.763  61.4320  0.00  0.00     0.000 HD
ATOM      9   O  GAD B   1      16.779  16.227  58.8350  0.00  0.00     0.000 O
ATOM     11  HD  GAD B   1      17.261  16.939  58.9430  0.00  0.00     0.000 HD
ENDROOT
BRANCH 5 11
ATOM     11   C  GAD B   1      18.811  19.604  56.1260  0.00  0.00     0.000 C
ATOM     12   O  GAD B   1      19.867  19.288  55.4960  0.00  0.00     0.000 OA
ATOM     13   O  GAD B   1      18.015  20.533  55.7290  0.00  0.00     0.000 OA
ENDBRANCH 5 11
BRANCH 1 14
ATOM     14  O3  ASG B   2      19.169  20.104  60.5110  0.00  0.00     0.000 O
BRANCH 14 17
ATOM     15  C1  ASG B   2      17.189  22.750  62.3430  0.00  0.00     0.000 C
ATOM     16  C2  ASG B   2      18.270  22.198  61.4030  0.00  0.00     0.000 C
ATOM     17  C3  ASG B   2      18.181  20.669  61.3800  0.00  0.00     0.000 C
ATOM     18  C4  ASG B   2      18.359  20.118  62.7820  0.00  0.00     0.000 C
ATOM     19  C5  ASG B   2      17.349  20.784  63.7110  0.00  0.00     0.000 C
ATOM     20  O5  ASG B   2      17.469  22.217  63.6240  0.00  0.00     0.000 O
ATOM     21   C  ASG B   2      17.560  20.425  65.1470  0.00  0.00     0.000 C
ATOM     22   O  ASG B   2      16.739  21.233  65.9540  0.00  0.00     0.000 O
ATOM     24  HD  ASG B   2      16.293  21.653  66.5660  0.00  0.00     0.000 HD
BRANCH 16 26
ATOM     24   N  ASG B   2      18.242  22.679  60.0410  0.00  0.00     0.000 N
ATOM     26  HD  ASG B   2      17.863  23.108  60.6910  0.00  0.00     0.000 HD
ATOM     26   C  ASG B   2      19.342  22.979  59.3260  0.00  0.00     0.000 C
ATOM     27   C  ASG B   2      19.148  23.127  57.8560  0.00  0.00     0.000 C
ATOM     28   O  ASG B   2      20.437  23.120  59.8570  0.00  0.00     0.000 OA
ENDBRANCH 16 26
BRANCH 18 29
ATOM     29   O  ASG B   2      19.751  20.392  63.1630  0.00  0.00     0.000 O
ATOM     30   O  ASG B   2      19.959  18.412  64.6050  0.00  0.00     0.000 OA
ATOM     31   O  ASG B   2      21.052  18.453  62.4380  0.00  0.00     0.000 OA
ATOM     32   O  ASG B   2      21.857  19.868  64.2260  0.00  0.00     0.000 OA
ATOM     33   S  ASG B   2      20.706  19.187  63.6320  0.00  0.00     0.000 S
ENDBRANCH 18 29
BRANCH 15 34
ATOM     34  O4  ASG B   3      17.181  24.146  62.4320  0.00  0.00     0.000 O
BRANCH 34 38
ATOM     35  C1  GCT B   3      18.652  27.631  63.8670  0.00  0.00     0.000 C
ATOM     36  C2  GCT B   3      19.674  26.517  63.7890  0.00  0.00     0.000 C
ATOM     37  C3  GCT B   3      19.196  25.408  62.8620  0.00  0.00     0.000 C
ATOM     38  C4  GCT B   3      17.871  24.845  63.3900  0.00  0.00     0.000 C
ATOM     39  C5  GCT B   3      17.006  25.934  64.0640  0.00  0.00     0.000 C
ATOM     40  O5  GCT B   3      17.368  27.166  63.4650  0.00  0.00     0.000 O
ATOM     41   O  GCT B   3      20.868  27.099  63.2860  0.00  0.00     0.000 O
ATOM     43  HD  GCT B   3      21.472  27.596  63.6570  0.00  0.00     0.000 HD
ATOM     43   O  GCT B   3      20.233  24.408  62.7690  0.00  0.00     0.000 O
ATOM     45  HD  GCT B   3      20.837  24.905  63.1400  0.00  0.00     0.000 HD
BRANCH 39 45
ATOM     45   C  GCT B   3      17.068  26.073  65.5700  0.00  0.00     0.000 C
ATOM     46   O  GCT B   3      16.401  26.990  66.1430  0.00  0.00     0.000 OA
ATOM     47   O  GCT B   3      17.770  25.262  66.1960  0.00  0.00     0.000 OA
ENDBRANCH 39 45
BRANCH 35 48
ATOM     48  O3  ASG B   4      18.962  28.435  64.8610  0.00  0.00     0.000 O
BRANCH 48 51
ATOM     49  C1  ASG B   4      19.156  31.485  62.7750  0.00  0.00     0.000 C
ATOM     50  C2  ASG B   4      19.268  30.009  63.1900  0.00  0.00     0.000 C
ATOM     51  C3  ASG B   4      18.571  29.755  64.5240  0.00  0.00     0.000 C
ATOM     52  C4  ASG B   4      19.014  30.759  65.5760  0.00  0.00     0.000 C
ATOM     53  C5  ASG B   4      18.793  32.161  65.0170  0.00  0.00     0.000 C
ATOM     54  O5  ASG B   4      19.592  32.328  63.8300  0.00  0.00     0.000 O
BRANCH 50 57
ATOM     55   N  ASG B   4      18.790  29.878  61.8330  0.00  0.00     0.000 N
ATOM     57  HD  ASG B   4      19.561  29.868  61.4400  0.00  0.00     0.000 HD
ATOM     57   O  ASG B   4      20.634  28.858  61.0760  0.00  0.00     0.000 OA
ATOM     58   C  ASG B   4      19.473  29.213  60.8960  0.00  0.00     0.000 C
ATOM     59   C  ASG B   4      18.748  28.983  59.6060  0.00  0.00     0.000 C
ENDBRANCH 50 57
BRANCH 52 60
ATOM     60   O  ASG B   4      20.438  30.406  65.8150  0.00  0.00     0.000 O
ATOM     61   O  ASG B   4      20.046  29.921  68.2320  0.00  0.00     0.000 OA
ATOM     62   O  ASG B   4      22.183  29.499  67.2690  0.00  0.00     0.000 OA
ATOM     63   O  ASG B   4      21.390  31.751  67.4050  0.00  0.00     0.000 OA
ATOM     64   S  ASG B   4      21.041  30.331  67.2980  0.00  0.00     0.000 S
ENDBRANCH 52 60
ATOM     65   O  ASG B   4      18.593  34.524  65.5240  0.00  0.00     0.000 O
ATOM     67  HD  ASG B   4      19.129  34.713  64.8700  0.00  0.00     0.000 HD
ATOM     67   O  ASG B   4      18.593  34.524  65.5240  0.00  0.00     0.000 O
ATOM     69  HD  ASG B   4      19.129  34.713  64.8700  0.00  0.00     0.000 HD
ENDBRANCH 48 51
ENDBRANCH 35 48
ENDBRANCH 34 38
ENDBRANCH 15 34
ENDBRANCH 14 17
ENDBRANCH 1 14
TORSDOF 12
ENDMDL
MODEL 84
REMARK VINA RESULT:      -7.0     25.149     30.093
ROOT
ATOM      1  C1  GAD B   1       5.871  64.957  42.9850  0.00  0.00     0.000 C
ATOM      2  C2  GAD B   1       4.781  63.925  43.2910  0.00  0.00     0.000 C
ATOM      3  C3  GAD B   1       5.413  62.631  43.8170  0.00  0.00     0.000 C
ATOM      4  C4  GAD B   1       6.798  62.322  43.2410  0.00  0.00     0.000 C
ATOM      5  C5  GAD B   1       7.501  63.165  42.4610  0.00  0.00     0.000 C
ATOM      6  O5  GAD B   1       6.878  64.417  42.1150  0.00  0.00     0.000 O
ATOM      7   O  GAD B   1       3.761  64.476  44.2040  0.00  0.00     0.000 O
ATOM      9  HD  GAD B   1       4.146  65.213  43.9640  0.00  0.00     0.000 HD
ATOM      9   O  GAD B   1       4.590  61.480  43.5230  0.00  0.00     0.000 O
ATOM     11  HD  GAD B   1       4.976  62.218  43.2830  0.00  0.00     0.000 HD
ENDROOT
BRANCH 5 11
ATOM     11   C  GAD B   1       8.883  62.921  41.9860  0.00  0.00     0.000 C
ATOM     12   O  GAD B   1       9.171  61.733  41.6390  0.00  0.00     0.000 OA
ATOM     13   O  GAD B   1       9.753  63.868  42.0130  0.00  0.00     0.000 OA
ENDBRANCH 5 11
BRANCH 1 14
ATOM     14  O3  ASG B   2       5.705  66.000  42.1490  0.00  0.00     0.000 O
BRANCH 14 17
ATOM     15  C1  ASG B   2       4.263  67.295  38.9060  0.00  0.00     0.000 C
ATOM     16  C2  ASG B   2       5.309  67.136  40.0180  0.00  0.00     0.000 C
ATOM     17  C3  ASG B   2       4.762  66.184  41.0870  0.00  0.00     0.000 C
ATOM     18  C4  ASG B   2       3.462  66.728  41.6490  0.00  0.00     0.000 C
ATOM     19  C5  ASG B   2       2.494  66.991  40.4990  0.00  0.00     0.000 C
ATOM     20  O5  ASG B   2       3.113  67.847  39.5190  0.00  0.00     0.000 O
ATOM     21   C  ASG B   2       1.245  67.683  40.9410  0.00  0.00     0.000 C
ATOM     22   O  ASG B   2       0.507  68.079  39.8110  0.00  0.00     0.000 O
ATOM     24  HD  ASG B   2      -0.047  68.376  39.2150  0.00  0.00     0.000 HD
BRANCH 16 26
ATOM     24   N  ASG B   2       6.615  66.724  39.5590  0.00  0.00     0.000 N
ATOM     26  HD  ASG B   2       6.058  67.148  39.0490  0.00  0.00     0.000 HD
ATOM     26   C  ASG B   2       7.771  67.132  40.1130  0.00  0.00     0.000 C
ATOM     27   C  ASG B   2       8.987  66.353  39.7420  0.00  0.00     0.000 C
ATOM     28   O  ASG B   2       7.817  68.088  40.8780  0.00  0.00     0.000 OA
ENDBRANCH 16 26
BRANCH 18 29
ATOM     29   O  ASG B   2       3.807  67.947  42.3930  0.00  0.00     0.000 O
ATOM     30   O  ASG B   2       1.984  67.708  44.0250  0.00  0.00     0.000 OA
ATOM     31   O  ASG B   2       4.272  67.237  44.6870  0.00  0.00     0.000 OA
ATOM     32   O  ASG B   2       3.590  69.510  44.2230  0.00  0.00     0.000 OA
ATOM     33   S  ASG B   2       3.381  68.090  43.9360  0.00  0.00     0.000 S
ENDBRANCH 18 29
BRANCH 15 34
ATOM     34  O4  ASG B   3       4.669  68.145  37.8710  0.00  0.00     0.000 O
BRANCH 34 38
ATOM     35  C1  GCT B   3       6.367  65.810  35.0380  0.00  0.00     0.000 C
ATOM     36  C2  GCT B   3       6.363  67.285  34.6990  0.00  0.00     0.000 C
ATOM     37  C3  GCT B   3       6.128  68.127  35.9460  0.00  0.00     0.000 C
ATOM     38  C4  GCT B   3       4.777  67.744  36.5640  0.00  0.00     0.000 C
ATOM     39  C5  GCT B   3       4.458  66.244  36.3770  0.00  0.00     0.000 C
ATOM     40  O5  GCT B   3       5.703  65.575  36.2740  0.00  0.00     0.000 O
ATOM     41   O  GCT B   3       7.638  67.575  34.1430  0.00  0.00     0.000 O
ATOM     43  HD  GCT B   3       7.980  67.420  33.3630  0.00  0.00     0.000 HD
ATOM     43   O  GCT B   3       6.203  69.521  35.5800  0.00  0.00     0.000 O
ATOM     45  HD  GCT B   3       6.545  69.366  34.8000  0.00  0.00     0.000 HD
BRANCH 39 45
ATOM     45   C  GCT B   3       3.574  65.835  35.2190  0.00  0.00     0.000 C
ATOM     46   O  GCT B   3       3.085  66.728  34.4570  0.00  0.00     0.000 OA
ATOM     47   O  GCT B   3       3.369  64.622  35.0490  0.00  0.00     0.000 OA
ENDBRANCH 39 45
BRANCH 35 48
ATOM     48  O3  ASG B   4       6.307  65.109  33.9260  0.00  0.00     0.000 O
BRANCH 48 51
ATOM     49  C1  ASG B   4       8.461  62.101  33.9670  0.00  0.00     0.000 C
ATOM     50  C2  ASG B   4       8.047  63.581  33.9270  0.00  0.00     0.000 C
ATOM     51  C3  ASG B   4       6.559  63.747  34.2260  0.00  0.00     0.000 C
ATOM     52  C4  ASG B   4       5.718  62.817  33.3670  0.00  0.00     0.000 C
ATOM     53  C5  ASG B   4       6.235  61.394  33.5610  0.00  0.00     0.000 C
ATOM     54  O5  ASG B   4       7.610  61.329  33.1340  0.00  0.00     0.000 O
BRANCH 50 57
ATOM     55   N  ASG B   4       8.425  64.203  32.6790  0.00  0.00     0.000 N
ATOM     57  HD  ASG B   4       8.968  64.794  33.0050  0.00  0.00     0.000 HD
ATOM     57   O  ASG B   4      10.428  64.891  33.4060  0.00  0.00     0.000 OA
ATOM     58   C  ASG B   4       9.640  64.724  32.4810  0.00  0.00     0.000 C
ATOM     59   C  ASG B   4       9.947  65.135  31.0740  0.00  0.00     0.000 C
ENDBRANCH 50 57
BRANCH 52 60
ATOM     60   O  ASG B   4       5.896  63.357  31.9940  0.00  0.00     0.000 O
ATOM     61   O  ASG B   4       3.446  63.301  31.5160  0.00  0.00     0.000 OA
ATOM     62   O  ASG B   4       4.942  64.257  29.9290  0.00  0.00     0.000 OA
ATOM     63   O  ASG B   4       5.087  61.918  30.4060  0.00  0.00     0.000 OA
ATOM     64   S  ASG B   4       4.730  63.252  30.8990  0.00  0.00     0.000 S
ENDBRANCH 52 60
ATOM     65   O  ASG B   4       5.773  59.028  33.2970  0.00  0.00     0.000 O
ATOM     67  HD  ASG B   4       6.562  58.909  32.9600  0.00  0.00     0.000 HD
ATOM     67   O  ASG B   4       5.773  59.028  33.2970  0.00  0.00     0.000 O
ATOM     69  HD  ASG B   4       6.562  58.909  32.9600  0.00  0.00     0.000 HD
ENDBRANCH 48 51
ENDBRANCH 35 48
ENDBRANCH 34 38
ENDBRANCH 15 34
ENDBRANCH 14 17
ENDBRANCH 1 14
TORSDOF 12
ENDMDL
MODEL 85
REMARK VINA RESULT:      -6.9      2.693     10.404
ROOT
ATOM      1  C1  GAD B   1      24.057  39.921  37.5860  0.00  0.00     0.000 C
ATOM      2  C2  GAD B   1      24.777  39.001  38.5760  0.00  0.00     0.000 C
ATOM      3  C3  GAD B   1      26.265  38.902  38.2170  0.00  0.00     0.000 C
ATOM      4  C4  GAD B   1      26.565  39.009  36.7190  0.00  0.00     0.000 C
ATOM      5  C5  GAD B   1      25.648  39.322  35.7820  0.00  0.00     0.000 C
ATOM      6  O5  GAD B   1      24.293  39.520  36.2270  0.00  0.00     0.000 O
ATOM      7   O  GAD B   1      24.553  39.431  39.9700  0.00  0.00     0.000 O
ATOM      9  HD  GAD B   1      23.927  39.886  39.5810  0.00  0.00     0.000 HD
ATOM      9   O  GAD B   1      26.833  37.646  38.6510  0.00  0.00     0.000 O
ATOM     11  HD  GAD B   1      26.207  38.101  38.2620  0.00  0.00     0.000 HD
ENDROOT
BRANCH 5 11
ATOM     11   C  GAD B   1      25.948  39.532  34.3460  0.00  0.00     0.000 C
ATOM     12   O  GAD B   1      26.752  38.714  33.8010  0.00  0.00     0.000 OA
ATOM     13   O  GAD B   1      25.465  40.552  33.7280  0.00  0.00     0.000 OA
ENDBRANCH 5 11
BRANCH 1 14
ATOM     14  O3  ASG B   2      22.729  39.896  37.3660  0.00  0.00     0.000 O
BRANCH 14 17
ATOM     15  C1  ASG B   2      20.235  39.445  34.5630  0.00  0.00     0.000 C
ATOM     16  C2  ASG B   2      21.006  40.199  35.6550  0.00  0.00     0.000 C
ATOM     17  C3  ASG B   2      21.981  39.236  36.3380  0.00  0.00     0.000 C
ATOM     18  C4  ASG B   2      21.223  38.064  36.9310  0.00  0.00     0.000 C
ATOM     19  C5  ASG B   2      20.373  37.417  35.8420  0.00  0.00     0.000 C
ATOM     20  O5  ASG B   2      19.530  38.408  35.2210  0.00  0.00     0.000 O
ATOM     21   C  ASG B   2      19.463  36.356  36.3710  0.00  0.00     0.000 C
ATOM     22   O  ASG B   2      18.569  35.961  35.3590  0.00  0.00     0.000 O
ATOM     24  HD  ASG B   2      17.966  35.621  34.8390  0.00  0.00     0.000 HD
BRANCH 16 26
ATOM     24   N  ASG B   2      21.744  41.368  35.2330  0.00  0.00     0.000 N
ATOM     26  HD  ASG B   2      21.093  41.038  34.7660  0.00  0.00     0.000 HD
ATOM     26   C  ASG B   2      21.814  42.510  35.9420  0.00  0.00     0.000 C
ATOM     27   C  ASG B   2      22.880  43.469  35.5340  0.00  0.00     0.000 C
ATOM     28   O  ASG B   2      21.047  42.743  36.8670  0.00  0.00     0.000 OA
ENDBRANCH 16 26
BRANCH 18 29
ATOM     29   O  ASG B   2      20.418  38.605  38.0360  0.00  0.00     0.000 O
ATOM     30   O  ASG B   2      20.527  36.554  39.3860  0.00  0.00     0.000 OA
ATOM     31   O  ASG B   2      21.833  38.497  40.0270  0.00  0.00     0.000 OA
ATOM     32   O  ASG B   2      19.425  38.536  40.2370  0.00  0.00     0.000 OA
ATOM     33   S  ASG B   2      20.579  37.998  39.5150  0.00  0.00     0.000 S
ENDBRANCH 18 29
BRANCH 15 34
ATOM     34  O4  ASG B   3      19.316  40.241  33.8720  0.00  0.00     0.000 O
BRANCH 34 38
ATOM     35  C1  GCT B   3      15.625  41.779  33.2600  0.00  0.00     0.000 C
ATOM     36  C2  GCT B   3      16.167  42.014  34.6530  0.00  0.00     0.000 C
ATOM     37  C3  GCT B   3      17.675  41.815  34.6880  0.00  0.00     0.000 C
ATOM     38  C4  GCT B   3      18.005  40.383  34.2510  0.00  0.00     0.000 C
ATOM     39  C5  GCT B   3      17.020  39.863  33.1790  0.00  0.00     0.000 C
ATOM     40  O5  GCT B   3      16.534  41.001  32.4900  0.00  0.00     0.000 O
ATOM     41   O  GCT B   3      15.838  43.354  34.9930  0.00  0.00     0.000 O
ATOM     43  HD  GCT B   3      15.097  43.724  35.2440  0.00  0.00     0.000 HD
ATOM     43   O  GCT B   3      18.148  42.118  36.0180  0.00  0.00     0.000 O
ATOM     45  HD  GCT B   3      17.407  42.489  36.2690  0.00  0.00     0.000 HD
BRANCH 39 45
ATOM     45   C  GCT B   3      15.851  39.013  33.6280  0.00  0.00     0.000 C
ATOM     46   O  GCT B   3      15.596  38.903  34.8680  0.00  0.00     0.000 OA
ATOM     47   O  GCT B   3      15.168  38.459  32.7500  0.00  0.00     0.000 OA
ENDBRANCH 39 45
BRANCH 35 48
ATOM     48  O3  ASG B   4      14.312  41.697  33.3120  0.00  0.00     0.000 O
BRANCH 48 51
ATOM     49  C1  ASG B   4      12.382  43.218  30.5470  0.00  0.00     0.000 C
ATOM     50  C2  ASG B   4      13.204  43.100  31.8410  0.00  0.00     0.000 C
ATOM     51  C3  ASG B   4      13.798  41.702  31.9920  0.00  0.00     0.000 C
ATOM     52  C4  ASG B   4      12.738  40.630  31.7980  0.00  0.00     0.000 C
ATOM     53  C5  ASG B   4      12.057  40.873  30.4540  0.00  0.00     0.000 C
ATOM     54  O5  ASG B   4      11.430  42.170  30.4700  0.00  0.00     0.000 O
BRANCH 50 57
ATOM     55   N  ASG B   4      14.183  44.152  31.6940  0.00  0.00     0.000 N
ATOM     57  HD  ASG B   4      13.646  44.824  31.7930  0.00  0.00     0.000 HD
ATOM     57   O  ASG B   4      13.051  45.642  32.9240  0.00  0.00     0.000 OA
ATOM     58   C  ASG B   4      14.080  45.318  32.3390  0.00  0.00     0.000 C
ATOM     59   C  ASG B   4      15.277  46.214  32.2520  0.00  0.00     0.000 C
ENDBRANCH 50 57
BRANCH 52 60
ATOM     60   O  ASG B   4      11.852  40.799  32.9790  0.00  0.00     0.000 O
ATOM     61   O  ASG B   4      12.497  38.588  33.9410  0.00  0.00     0.000 OA
ATOM     62   O  ASG B   4      11.080  40.050  35.1750  0.00  0.00     0.000 OA
ATOM     63   O  ASG B   4      10.292  39.128  33.1150  0.00  0.00     0.000 OA
ATOM     64   S  ASG B   4      11.451  39.554  33.9050  0.00  0.00     0.000 S
ENDBRANCH 52 60
ATOM     65   O  ASG B   4      10.667  39.938  28.7000  0.00  0.00     0.000 O
ATOM     67  HD  ASG B   4      10.186  40.659  28.6930  0.00  0.00     0.000 HD
ATOM     67   O  ASG B   4      10.667  39.938  28.7000  0.00  0.00     0.000 O
ATOM     69  HD  ASG B   4      10.186  40.659  28.6930  0.00  0.00     0.000 HD
ENDBRANCH 48 51
ENDBRANCH 35 48
ENDBRANCH 34 38
ENDBRANCH 15 34
ENDBRANCH 14 17
ENDBRANCH 1 14
TORSDOF 12
ENDMDL
MODEL 86
REMARK VINA RESULT:      -6.9     24.091     29.216
ROOT
ATOM      1  C1  GAD B   1       7.548  65.713  40.3050  0.00  0.00     0.000 C
ATOM      2  C2  GAD B   1       7.196  64.565  41.2560  0.00  0.00     0.000 C
ATOM      3  C3  GAD B   1       8.453  63.755  41.5920  0.00  0.00     0.000 C
ATOM      4  C4  GAD B   1       9.489  63.693  40.4660  0.00  0.00     0.000 C
ATOM      5  C5  GAD B   1       9.412  64.406  39.3240  0.00  0.00     0.000 C
ATOM      6  O5  GAD B   1       8.251  65.240  39.1460  0.00  0.00     0.000 O
ATOM      7   O  GAD B   1       6.495  65.058  42.4570  0.00  0.00     0.000 O
ATOM      9  HD  GAD B   1       6.415  65.757  41.9520  0.00  0.00     0.000 HD
ATOM      9   O  GAD B   1       8.131  62.383  41.9150  0.00  0.00     0.000 O
ATOM     11  HD  GAD B   1       8.051  63.082  41.4090  0.00  0.00     0.000 HD
ENDROOT
BRANCH 5 11
ATOM     11   C  GAD B   1      10.459  64.435  38.2770  0.00  0.00     0.000 C
ATOM     12   O  GAD B   1      10.117  64.064  37.1110  0.00  0.00     0.000 OA
ATOM     13   O  GAD B   1      11.669  64.749  38.5810  0.00  0.00     0.000 OA
ENDBRANCH 5 11
BRANCH 1 14
ATOM     14  O3  ASG B   2       6.654  66.333  39.5120  0.00  0.00     0.000 O
BRANCH 14 17
ATOM     15  C1  ASG B   2       3.701  65.989  37.1800  0.00  0.00     0.000 C
ATOM     16  C2  ASG B   2       5.057  66.519  37.6670  0.00  0.00     0.000 C
ATOM     17  C3  ASG B   2       5.393  65.872  39.0150  0.00  0.00     0.000 C
ATOM     18  C4  ASG B   2       4.303  66.182  40.0240  0.00  0.00     0.000 C
ATOM     19  C5  ASG B   2       2.956  65.754  39.4490  0.00  0.00     0.000 C
ATOM     20  O5  ASG B   2       2.753  66.366  38.1600  0.00  0.00     0.000 O
ATOM     21   C  ASG B   2       1.803  66.172  40.3050  0.00  0.00     0.000 C
ATOM     22   O  ASG B   2       0.601  65.935  39.6140  0.00  0.00     0.000 O
ATOM     24  HD  ASG B   2      -0.206  65.843  39.3130  0.00  0.00     0.000 HD
BRANCH 16 26
ATOM     24   N  ASG B   2       6.033  67.514  37.2870  0.00  0.00     0.000 N
ATOM     26  HD  ASG B   2       5.844  67.344  38.1150  0.00  0.00     0.000 HD
ATOM     26   C  ASG B   2       7.143  67.245  36.5750  0.00  0.00     0.000 C
ATOM     27   C  ASG B   2       7.845  68.421  35.9870  0.00  0.00     0.000 C
ATOM     28   O  ASG B   2       7.549  66.100  36.4210  0.00  0.00     0.000 OA
ENDBRANCH 16 26
BRANCH 18 29
ATOM     29   O  ASG B   2       4.377  67.625  40.2880  0.00  0.00     0.000 O
ATOM     30   O  ASG B   2       3.590  67.445  42.6100  0.00  0.00     0.000 OA
ATOM     31   O  ASG B   2       5.932  67.898  42.1560  0.00  0.00     0.000 OA
ATOM     32   O  ASG B   2       4.262  69.585  41.6960  0.00  0.00     0.000 OA
ATOM     33   S  ASG B   2       4.558  68.156  41.7940  0.00  0.00     0.000 S
ENDBRANCH 18 29
BRANCH 15 34
ATOM     34  O4  ASG B   3       3.303  66.517  35.9470  0.00  0.00     0.000 O
BRANCH 34 38
ATOM     35  C1  GCT B   3       6.004  64.719  33.5320  0.00  0.00     0.000 C
ATOM     36  C2  GCT B   3       5.319  65.914  32.9060  0.00  0.00     0.000 C
ATOM     37  C3  GCT B   3       4.668  66.785  33.9720  0.00  0.00     0.000 C
ATOM     38  C4  GCT B   3       3.635  65.952  34.7410  0.00  0.00     0.000 C
ATOM     39  C5  GCT B   3       4.068  64.475  34.8800  0.00  0.00     0.000 C
ATOM     40  O5  GCT B   3       5.484  64.462  34.8310  0.00  0.00     0.000 O
ATOM     41   O  GCT B   3       6.326  66.644  32.2210  0.00  0.00     0.000 O
ATOM     43  HD  GCT B   3       6.729  66.510  31.4670  0.00  0.00     0.000 HD
ATOM     43   O  GCT B   3       4.091  67.942  33.3310  0.00  0.00     0.000 O
ATOM     45  HD  GCT B   3       4.494  67.808  32.5770  0.00  0.00     0.000 HD
BRANCH 39 45
ATOM     45   C  GCT B   3       3.524  63.470  33.8880  0.00  0.00     0.000 C
ATOM     46   O  GCT B   3       3.778  62.235  34.0430  0.00  0.00     0.000 OA
ATOM     47   O  GCT B   3       2.828  63.900  32.9530  0.00  0.00     0.000 OA
ENDBRANCH 39 45
BRANCH 35 48
ATOM     48  O3  ASG B   4       6.323  63.858  32.5890  0.00  0.00     0.000 O
BRANCH 48 51
ATOM     49  C1  ASG B   4       9.809  63.286  31.4890  0.00  0.00     0.000 C
ATOM     50  C2  ASG B   4       8.394  63.885  31.5540  0.00  0.00     0.000 C
ATOM     51  C3  ASG B   4       7.652  63.413  32.8010  0.00  0.00     0.000 C
ATOM     52  C4  ASG B   4       7.722  61.901  32.9440  0.00  0.00     0.000 C
ATOM     53  C5  ASG B   4       9.190  61.488  32.9030  0.00  0.00     0.000 C
ATOM     54  O5  ASG B   4       9.754  61.877  31.6350  0.00  0.00     0.000 O
BRANCH 50 57
ATOM     55   N  ASG B   4       7.423  63.803  30.4870  0.00  0.00     0.000 N
ATOM     57  HD  ASG B   4       7.457  64.632  30.2370  0.00  0.00     0.000 HD
ATOM     57   O  ASG B   4       8.286  65.503  29.3110  0.00  0.00     0.000 OA
ATOM     58   C  ASG B   4       7.507  64.557  29.3870  0.00  0.00     0.000 C
ATOM     59   C  ASG B   4       6.555  64.205  28.2850  0.00  0.00     0.000 C
ENDBRANCH 50 57
BRANCH 52 60
ATOM     60   O  ASG B   4       6.908  61.406  31.8040  0.00  0.00     0.000 O
ATOM     61   O  ASG B   4       5.818  59.635  33.1840  0.00  0.00     0.000 OA
ATOM     62   O  ASG B   4       5.114  59.988  30.9360  0.00  0.00     0.000 OA
ATOM     63   O  ASG B   4       7.333  59.201  31.3530  0.00  0.00     0.000 OA
ATOM     64   S  ASG B   4       6.191  59.973  31.8510  0.00  0.00     0.000 S
ENDBRANCH 52 60
ATOM     65   O  ASG B   4      10.808  59.746  33.3800  0.00  0.00     0.000 O
ATOM     67  HD  ASG B   4      11.168  59.862  32.6010  0.00  0.00     0.000 HD
ATOM     67   O  ASG B   4      10.808  59.746  33.3800  0.00  0.00     0.000 O
ATOM     69  HD  ASG B   4      11.168  59.862  32.6010  0.00  0.00     0.000 HD
ENDBRANCH 48 51
ENDBRANCH 35 48
ENDBRANCH 34 38
ENDBRANCH 15 34
ENDBRANCH 14 17
ENDBRANCH 1 14
TORSDOF 12
ENDMDL
MODEL 87
REMARK VINA RESULT:      -6.9     38.504     44.529
ROOT
ATOM      1  C1  GAD B   1      16.430  30.518  74.7690  0.00  0.00     0.000 C
ATOM      2  C2  GAD B   1      15.591  29.415  75.4230  0.00  0.00     0.000 C
ATOM      3  C3  GAD B   1      15.833  28.078  74.7120  0.00  0.00     0.000 C
ATOM      4  C4  GAD B   1      16.135  28.200  73.2160  0.00  0.00     0.000 C
ATOM      5  C5  GAD B   1      16.337  29.368  72.5750  0.00  0.00     0.000 C
ATOM      6  O5  GAD B   1      16.212  30.575  73.3510  0.00  0.00     0.000 O
ATOM      7   O  GAD B   1      15.837  29.344  76.8760  0.00  0.00     0.000 O
ATOM      9  HD  GAD B   1      16.186  30.119  76.7130  0.00  0.00     0.000 HD
ATOM      9   O  GAD B   1      14.686  27.205  74.8190  0.00  0.00     0.000 O
ATOM     11  HD  GAD B   1      15.036  27.981  74.6560  0.00  0.00     0.000 HD
ENDROOT
BRANCH 5 11
ATOM     11   C  GAD B   1      16.735  29.492  71.1530  0.00  0.00     0.000 C
ATOM     12   O  GAD B   1      16.741  28.426  70.4630  0.00  0.00     0.000 OA
ATOM     13   O  GAD B   1      17.130  30.625  70.6890  0.00  0.00     0.000 OA
ENDBRANCH 5 11
BRANCH 1 14
ATOM     14  O3  ASG B   2      16.152  31.832  74.8670  0.00  0.00     0.000 O
BRANCH 14 17
ATOM     15  C1  ASG B   2      14.804  34.603  77.0540  0.00  0.00     0.000 C
ATOM     16  C2  ASG B   2      14.956  33.762  75.7780  0.00  0.00     0.000 C
ATOM     17  C3  ASG B   2      15.976  32.648  76.0300  0.00  0.00     0.000 C
ATOM     18  C4  ASG B   2      17.309  33.248  76.4380  0.00  0.00     0.000 C
ATOM     19  C5  ASG B   2      17.094  34.174  77.6310  0.00  0.00     0.000 C
ATOM     20  O5  ASG B   2      16.081  35.151  77.3210  0.00  0.00     0.000 O
ATOM     21   C  ASG B   2      18.325  34.939  77.9990  0.00  0.00     0.000 C
ATOM     22   O  ASG B   2      17.997  35.916  78.9560  0.00  0.00     0.000 O
ATOM     24  HD  ASG B   2      17.942  36.552  79.5420  0.00  0.00     0.000 HD
BRANCH 16 26
ATOM     24   N  ASG B   2      14.462  33.842  74.4220  0.00  0.00     0.000 N
ATOM     26  HD  ASG B   2      15.283  33.632  74.6040  0.00  0.00     0.000 HD
ATOM     26   C  ASG B   2      13.457  33.088  73.9420  0.00  0.00     0.000 C
ATOM     27   C  ASG B   2      12.859  33.536  72.6520  0.00  0.00     0.000 C
ATOM     28   O  ASG B   2      13.059  32.092  74.5330  0.00  0.00     0.000 OA
ENDBRANCH 16 26
BRANCH 18 29
ATOM     29   O  ASG B   2      17.828  33.951  75.2570  0.00  0.00     0.000 O
ATOM     30   O  ASG B   2      20.190  33.538  75.7990  0.00  0.00     0.000 OA
ATOM     31   O  ASG B   2      19.126  32.305  73.9980  0.00  0.00     0.000 OA
ATOM     32   O  ASG B   2      19.573  34.668  73.7480  0.00  0.00     0.000 OA
ATOM     33   S  ASG B   2      19.276  33.574  74.6720  0.00  0.00     0.000 S
ENDBRANCH 18 29
BRANCH 15 34
ATOM     34  O4  ASG B   3      13.885  35.650  76.9300  0.00  0.00     0.000 O
BRANCH 34 38
ATOM     35  C1  GCT B   3      11.966  38.481  79.0900  0.00  0.00     0.000 C
ATOM     36  C2  GCT B   3      12.931  39.037  78.0660  0.00  0.00     0.000 C
ATOM     37  C3  GCT B   3      13.276  37.986  77.0210  0.00  0.00     0.000 C
ATOM     38  C4  GCT B   3      13.913  36.776  77.7140  0.00  0.00     0.000 C
ATOM     39  C5  GCT B   3      13.318  36.533  79.1190  0.00  0.00     0.000 C
ATOM     40  O5  GCT B   3      12.003  37.058  79.0980  0.00  0.00     0.000 O
ATOM     41   O  GCT B   3      12.280  40.143  77.4580  0.00  0.00     0.000 O
ATOM     43  HD  GCT B   3      12.137  40.953  77.7280  0.00  0.00     0.000 HD
ATOM     43   O  GCT B   3      14.141  38.587  76.0340  0.00  0.00     0.000 O
ATOM     45  HD  GCT B   3      13.997  39.397  76.3040  0.00  0.00     0.000 HD
BRANCH 39 45
ATOM     45   C  GCT B   3      14.058  37.084  80.3190  0.00  0.00     0.000 C
ATOM     46   O  GCT B   3      13.580  36.911  81.4840  0.00  0.00     0.000 OA
ATOM     47   O  GCT B   3      15.127  37.682  80.1140  0.00  0.00     0.000 OA
ENDBRANCH 39 45
BRANCH 35 48
ATOM     48  O3  ASG B   4      11.892  39.306  80.1120  0.00  0.00     0.000 O
BRANCH 48 51
ATOM     49  C1  ASG B   4       8.949  41.217  81.2850  0.00  0.00     0.000 C
ATOM     50  C2  ASG B   4      10.299  40.909  80.6150  0.00  0.00     0.000 C
ATOM     51  C3  ASG B   4      10.542  39.405  80.5300  0.00  0.00     0.000 C
ATOM     52  C4  ASG B   4      10.320  38.734  81.8760  0.00  0.00     0.000 C
ATOM     53  C5  ASG B   4       8.925  39.110  82.3690  0.00  0.00     0.000 C
ATOM     54  O5  ASG B   4       8.850  40.540  82.5280  0.00  0.00     0.000 O
BRANCH 50 57
ATOM     55   N  ASG B   4      10.088  41.611  79.3710  0.00  0.00     0.000 N
ATOM     57  HD  ASG B   4      10.167  42.417  79.6780  0.00  0.00     0.000 HD
ATOM     57   O  ASG B   4      11.272  43.417  79.9650  0.00  0.00     0.000 OA
ATOM     58   C  ASG B   4      10.682  42.777  79.0990  0.00  0.00     0.000 C
ATOM     59   C  ASG B   4      10.534  43.268  77.6920  0.00  0.00     0.000 C
ENDBRANCH 50 57
BRANCH 52 60
ATOM     60   O  ASG B   4      11.432  39.255  82.7120  0.00  0.00     0.000 O
ATOM     61   O  ASG B   4      11.530  37.183  84.1000  0.00  0.00     0.000 OA
ATOM     62   O  ASG B   4      13.148  38.900  84.4180  0.00  0.00     0.000 OA
ATOM     63   O  ASG B   4      10.855  39.351  84.9260  0.00  0.00     0.000 OA
ATOM     64   S  ASG B   4      11.805  38.580  84.1170  0.00  0.00     0.000 S
ENDBRANCH 52 60
ATOM     65   O  ASG B   4       7.120  38.587  83.9020  0.00  0.00     0.000 O
ATOM     67  HD  ASG B   4       7.054  39.425  84.1140  0.00  0.00     0.000 HD
ATOM     67   O  ASG B   4       7.120  38.587  83.9020  0.00  0.00     0.000 O
ATOM     69  HD  ASG B   4       7.054  39.425  84.1140  0.00  0.00     0.000 HD
ENDBRANCH 48 51
ENDBRANCH 35 48
ENDBRANCH 34 38
ENDBRANCH 15 34
ENDBRANCH 14 17
ENDBRANCH 1 14
TORSDOF 12
ENDMDL
MODEL 88
REMARK VINA RESULT:      -6.9      7.492     12.751
ROOT
ATOM      1  C1  GAD B   1       9.035  30.510  27.4870  0.00  0.00     0.000 C
ATOM      2  C2  GAD B   1       9.326  29.183  26.7800  0.00  0.00     0.000 C
ATOM      3  C3  GAD B   1      10.802  28.807  26.9520  0.00  0.00     0.000 C
ATOM      4  C4  GAD B   1      11.756  30.002  27.0340  0.00  0.00     0.000 C
ATOM      5  C5  GAD B   1      11.358  31.287  27.1130  0.00  0.00     0.000 C
ATOM      6  O5  GAD B   1       9.941  31.542  27.0680  0.00  0.00     0.000 O
ATOM      7   O  GAD B   1       8.408  28.120  27.2320  0.00  0.00     0.000 O
ATOM      9  HD  GAD B   1       7.982  28.811  27.5350  0.00  0.00     0.000 HD
ATOM      9   O  GAD B   1      11.274  27.993  25.8560  0.00  0.00     0.000 O
ATOM     11  HD  GAD B   1      10.848  28.683  26.1580  0.00  0.00     0.000 HD
ENDROOT
BRANCH 5 11
ATOM     11   C  GAD B   1      12.268  32.442  27.3000  0.00  0.00     0.000 C
ATOM     12   O  GAD B   1      13.420  32.358  26.7710  0.00  0.00     0.000 OA
ATOM     13   O  GAD B   1      11.910  33.433  28.0370  0.00  0.00     0.000 OA
ENDBRANCH 5 11
BRANCH 1 14
ATOM     14  O3  ASG B   2       7.989  31.306  27.1930  0.00  0.00     0.000 O
BRANCH 14 17
ATOM     15  C1  ASG B   2       7.274  34.985  26.7130  0.00  0.00     0.000 C
ATOM     16  C2  ASG B   2       7.272  33.632  27.4390  0.00  0.00     0.000 C
ATOM     17  C3  ASG B   2       7.962  32.589  26.5560  0.00  0.00     0.000 C
ATOM     18  C4  ASG B   2       7.246  32.481  25.2240  0.00  0.00     0.000 C
ATOM     19  C5  ASG B   2       7.158  33.867  24.5920  0.00  0.00     0.000 C
ATOM     20  O5  ASG B   2       6.548  34.792  25.5140  0.00  0.00     0.000 O
ATOM     21   C  ASG B   2       6.322  33.887  23.3530  0.00  0.00     0.000 C
ATOM     22   O  ASG B   2       6.113  35.219  22.9530  0.00  0.00     0.000 O
ATOM     24  HD  ASG B   2       5.907  35.979  22.5920  0.00  0.00     0.000 HD
BRANCH 16 26
ATOM     24   N  ASG B   2       7.915  33.559  28.7310  0.00  0.00     0.000 N
ATOM     26  HD  ASG B   2       7.688  34.313  28.3700  0.00  0.00     0.000 HD
ATOM     26   C  ASG B   2       7.398  32.914  29.7930  0.00  0.00     0.000 C
ATOM     27   C  ASG B   2       8.337  32.651  30.9200  0.00  0.00     0.000 C
ATOM     28   O  ASG B   2       6.225  32.564  29.8270  0.00  0.00     0.000 OA
ENDBRANCH 16 26
BRANCH 18 29
ATOM     29   O  ASG B   2       5.927  31.899  25.5060  0.00  0.00     0.000 O
ATOM     30   O  ASG B   2       5.793  30.666  23.3830  0.00  0.00     0.000 OA
ATOM     31   O  ASG B   2       6.226  29.473  25.4530  0.00  0.00     0.000 OA
ATOM     32   O  ASG B   2       4.050  30.447  25.0500  0.00  0.00     0.000 OA
ATOM     33   S  ASG B   2       5.489  30.526  24.7950  0.00  0.00     0.000 S
ENDBRANCH 18 29
BRANCH 15 34
ATOM     34  O4  ASG B   3       6.668  36.014  27.4420  0.00  0.00     0.000 O
BRANCH 34 38
ATOM     35  C1  GCT B   3       9.959  37.321  29.3970  0.00  0.00     0.000 C
ATOM     36  C2  GCT B   3       8.656  37.664  30.0870  0.00  0.00     0.000 C
ATOM     37  C3  GCT B   3       7.521  36.796  29.5620  0.00  0.00     0.000 C
ATOM     38  C4  GCT B   3       7.370  37.022  28.0530  0.00  0.00     0.000 C
ATOM     39  C5  GCT B   3       8.730  37.293  27.3690  0.00  0.00     0.000 C
ATOM     40  O5  GCT B   3       9.716  36.657  28.1620  0.00  0.00     0.000 O
ATOM     41   O  GCT B   3       8.859  37.425  31.4730  0.00  0.00     0.000 O
ATOM     43  HD  GCT B   3       9.274  37.875  32.0850  0.00  0.00     0.000 HD
ATOM     43   O  GCT B   3       6.321  37.114  30.2990  0.00  0.00     0.000 O
ATOM     45  HD  GCT B   3       6.737  37.564  30.9110  0.00  0.00     0.000 HD
BRANCH 39 45
ATOM     45   C  GCT B   3       9.136  38.730  27.1220  0.00  0.00     0.000 C
ATOM     46   O  GCT B   3      10.244  38.979  26.5490  0.00  0.00     0.000 OA
ATOM     47   O  GCT B   3       8.352  39.623  27.4840  0.00  0.00     0.000 OA
ENDBRANCH 39 45
BRANCH 35 48
ATOM     48  O3  ASG B   4      10.852  38.247  29.6700  0.00  0.00     0.000 O
BRANCH 48 51
ATOM     49  C1  ASG B   4      13.907  38.239  31.7580  0.00  0.00     0.000 C
ATOM     50  C2  ASG B   4      12.513  38.629  31.2380  0.00  0.00     0.000 C
ATOM     51  C3  ASG B   4      12.012  37.628  30.2010  0.00  0.00     0.000 C
ATOM     52  C4  ASG B   4      13.057  37.378  29.1260  0.00  0.00     0.000 C
ATOM     53  C5  ASG B   4      14.354  36.961  29.8130  0.00  0.00     0.000 C
ATOM     54  O5  ASG B   4      14.797  38.029  30.6740  0.00  0.00     0.000 O
BRANCH 50 57
ATOM     55   N  ASG B   4      11.937  38.665  32.5620  0.00  0.00     0.000 N
ATOM     57  HD  ASG B   4      12.261  39.429  32.8080  0.00  0.00     0.000 HD
ATOM     57   O  ASG B   4      11.903  40.900  32.6980  0.00  0.00     0.000 OA
ATOM     58   C  ASG B   4      11.576  39.808  33.1530  0.00  0.00     0.000 C
ATOM     59   C  ASG B   4      10.800  39.663  34.4260  0.00  0.00     0.000 C
ENDBRANCH 50 57
BRANCH 52 60
ATOM     60   O  ASG B   4      13.129  38.675  28.4040  0.00  0.00     0.000 O
ATOM     61   O  ASG B   4      13.730  37.583  26.2410  0.00  0.00     0.000 OA
ATOM     62   O  ASG B   4      13.333  39.929  26.3140  0.00  0.00     0.000 OA
ATOM     63   O  ASG B   4      15.203  39.026  27.4980  0.00  0.00     0.000 OA
ATOM     64   S  ASG B   4      13.852  38.796  26.9780  0.00  0.00     0.000 S
ENDBRANCH 52 60
ATOM     65   O  ASG B   4      16.531  35.925  29.5520  0.00  0.00     0.000 O
ATOM     67  HD  ASG B   4      16.895  36.570  30.0000  0.00  0.00     0.000 HD
ATOM     67   O  ASG B   4      16.531  35.925  29.5520  0.00  0.00     0.000 O
ATOM     69  HD  ASG B   4      16.895  36.570  30.0000  0.00  0.00     0.000 HD
ENDBRANCH 48 51
ENDBRANCH 35 48
ENDBRANCH 34 38
ENDBRANCH 15 34
ENDBRANCH 14 17
ENDBRANCH 1 14
TORSDOF 12
ENDMDL
MODEL 89
REMARK VINA RESULT:      -6.9     24.997     29.917
ROOT
ATOM      1  C1  GAD B   1       6.798  63.901  44.0730  0.00  0.00     0.000 C
ATOM      2  C2  GAD B   1       7.232  63.634  45.5180  0.00  0.00     0.000 C
ATOM      3  C3  GAD B   1       7.079  62.144  45.8460  0.00  0.00     0.000 C
ATOM      4  C4  GAD B   1       5.926  61.448  45.1180  0.00  0.00     0.000 C
ATOM      5  C5  GAD B   1       5.187  62.019  44.1470  0.00  0.00     0.000 C
ATOM      6  O5  GAD B   1       5.482  63.389  43.8150  0.00  0.00     0.000 O
ATOM      7   O  GAD B   1       8.595  64.139  45.7730  0.00  0.00     0.000 O
ATOM      9  HD  GAD B   1       8.428  64.554  45.0310  0.00  0.00     0.000 HD
ATOM      9   O  GAD B   1       6.848  61.932  47.2570  0.00  0.00     0.000 O
ATOM     11  HD  GAD B   1       6.681  62.347  46.5160  0.00  0.00     0.000 HD
ENDROOT
BRANCH 5 11
ATOM     11   C  GAD B   1       4.141  61.322  43.3630  0.00  0.00     0.000 C
ATOM     12   O  GAD B   1       3.619  60.290  43.8890  0.00  0.00     0.000 OA
ATOM     13   O  GAD B   1       3.853  61.718  42.1730  0.00  0.00     0.000 OA
ENDBRANCH 5 11
BRANCH 1 14
ATOM     14  O3  ASG B   2       6.422  65.109  43.6130  0.00  0.00     0.000 O
BRANCH 14 17
ATOM     15  C1  ASG B   2       5.469  66.771  40.3560  0.00  0.00     0.000 C
ATOM     16  C2  ASG B   2       6.360  66.444  41.5630  0.00  0.00     0.000 C
ATOM     17  C3  ASG B   2       5.629  65.449  42.4700  0.00  0.00     0.000 C
ATOM     18  C4  ASG B   2       4.307  66.038  42.9250  0.00  0.00     0.000 C
ATOM     19  C5  ASG B   2       3.504  66.465  41.7000  0.00  0.00     0.000 C
ATOM     20  O5  ASG B   2       4.290  67.352  40.8800  0.00  0.00     0.000 O
ATOM     21   C  ASG B   2       2.256  67.208  42.0560  0.00  0.00     0.000 C
ATOM     22   O  ASG B   2       1.687  67.749  40.8890  0.00  0.00     0.000 O
ATOM     24  HD  ASG B   2       1.229  68.134  40.2620  0.00  0.00     0.000 HD
BRANCH 16 26
ATOM     24   N  ASG B   2       7.680  65.958  41.2350  0.00  0.00     0.000 N
ATOM     26  HD  ASG B   2       7.218  66.446  40.6890  0.00  0.00     0.000 HD
ATOM     26   C  ASG B   2       8.787  66.253  41.9410  0.00  0.00     0.000 C
ATOM     27   C  ASG B   2       9.982  65.404  41.6710  0.00  0.00     0.000 C
ATOM     28   O  ASG B   2       8.807  67.166  42.7570  0.00  0.00     0.000 OA
ENDBRANCH 16 26
BRANCH 18 29
ATOM     29   O  ASG B   2       4.634  67.162  43.8120  0.00  0.00     0.000 O
ATOM     30   O  ASG B   2       2.668  66.857  45.2560  0.00  0.00     0.000 OA
ATOM     31   O  ASG B   2       4.868  66.216  46.0550  0.00  0.00     0.000 OA
ATOM     32   O  ASG B   2       4.321  68.552  45.7630  0.00  0.00     0.000 OA
ATOM     33   S  ASG B   2       4.081  67.179  45.3210  0.00  0.00     0.000 S
ENDBRANCH 18 29
BRANCH 15 34
ATOM     34  O4  ASG B   3       6.050  67.672  39.4570  0.00  0.00     0.000 O
BRANCH 34 38
ATOM     35  C1  GCT B   3       6.850  65.375  36.2250  0.00  0.00     0.000 C
ATOM     36  C2  GCT B   3       7.424  66.772  36.1450  0.00  0.00     0.000 C
ATOM     37  C3  GCT B   3       7.473  67.418  37.5220  0.00  0.00     0.000 C
ATOM     38  C4  GCT B   3       6.054  67.486  38.0980  0.00  0.00     0.000 C
ATOM     39  C5  GCT B   3       5.194  66.276  37.6650  0.00  0.00     0.000 C
ATOM     40  O5  GCT B   3       6.093  65.209  37.4190  0.00  0.00     0.000 O
ATOM     41   O  GCT B   3       8.736  66.639  35.6160  0.00  0.00     0.000 O
ATOM     43  HD  GCT B   3       9.027  66.499  34.8120  0.00  0.00     0.000 HD
ATOM     43   O  GCT B   3       8.091  68.717  37.4000  0.00  0.00     0.000 O
ATOM     45  HD  GCT B   3       8.382  68.576  36.5960  0.00  0.00     0.000 HD
BRANCH 39 45
ATOM     45   C  GCT B   3       4.272  66.438  36.4760  0.00  0.00     0.000 C
ATOM     46   O  GCT B   3       3.576  65.450  36.0830  0.00  0.00     0.000 OA
ATOM     47   O  GCT B   3       4.222  67.553  35.9310  0.00  0.00     0.000 OA
ENDBRANCH 39 45
BRANCH 35 48
ATOM     48  O3  ASG B   4       6.575  64.947  35.0120  0.00  0.00     0.000 O
BRANCH 48 51
ATOM     49  C1  ASG B   4       8.605  62.102  33.7960  0.00  0.00     0.000 C
ATOM     50  C2  ASG B   4       8.219  63.537  34.1940  0.00  0.00     0.000 C
ATOM     51  C3  ASG B   4       6.882  63.566  34.9290  0.00  0.00     0.000 C
ATOM     52  C4  ASG B   4       5.816  62.798  34.1640  0.00  0.00     0.000 C
ATOM     53  C5  ASG B   4       6.346  61.392  33.8950  0.00  0.00     0.000 C
ATOM     54  O5  ASG B   4       7.540  61.483  33.0930  0.00  0.00     0.000 O
BRANCH 50 57
ATOM     55   N  ASG B   4       8.258  64.364  33.0090  0.00  0.00     0.000 N
ATOM     57  HD  ASG B   4       8.858  64.926  33.2810  0.00  0.00     0.000 HD
ATOM     57   O  ASG B   4      10.371  65.039  33.3140  0.00  0.00     0.000 OA
ATOM     58   C  ASG B   4       9.375  64.974  32.6010  0.00  0.00     0.000 C
ATOM     59   C  ASG B   4       9.306  65.613  31.2480  0.00  0.00     0.000 C
ENDBRANCH 50 57
BRANCH 52 60
ATOM     60   O  ASG B   4       5.602  63.621  32.9460  0.00  0.00     0.000 O
ATOM     61   O  ASG B   4       3.120  63.377  33.0620  0.00  0.00     0.000 OA
ATOM     62   O  ASG B   4       4.096  64.803  31.4230  0.00  0.00     0.000 OA
ATOM     63   O  ASG B   4       4.505  62.449  31.3130  0.00  0.00     0.000 OA
ATOM     64   S  ASG B   4       4.203  63.604  32.1640  0.00  0.00     0.000 S
ENDBRANCH 52 60
ATOM     65   O  ASG B   4       5.792  59.115  33.2720  0.00  0.00     0.000 O
ATOM     67  HD  ASG B   4       6.449  59.106  32.7080  0.00  0.00     0.000 HD
ATOM     67   O  ASG B   4       5.792  59.115  33.2720  0.00  0.00     0.000 O
ATOM     69  HD  ASG B   4       6.449  59.106  32.7080  0.00  0.00     0.000 HD
ENDBRANCH 48 51
ENDBRANCH 35 48
ENDBRANCH 34 38
ENDBRANCH 15 34
ENDBRANCH 14 17
ENDBRANCH 1 14
TORSDOF 12
ENDMDL
MODEL 90
REMARK VINA RESULT:      -6.9     46.666     49.916
ROOT
ATOM      1  C1  GAD B   1      10.135  48.377  83.7710  0.00  0.00     0.000 C
ATOM      2  C2  GAD B   1       9.052  49.460  83.7820  0.00  0.00     0.000 C
ATOM      3  C3  GAD B   1       8.883  50.022  85.1990  0.00  0.00     0.000 C
ATOM      4  C4  GAD B   1       9.145  49.011  86.3180  0.00  0.00     0.000 C
ATOM      5  C5  GAD B   1       9.636  47.772  86.1220  0.00  0.00     0.000 C
ATOM      6  O5  GAD B   1       9.882  47.369  84.7610  0.00  0.00     0.000 O
ATOM      7   O  GAD B   1       9.328  50.508  82.7800  0.00  0.00     0.000 O
ATOM      9  HD  GAD B   1       9.872  49.896  82.4970  0.00  0.00     0.000 HD
ATOM      9   O  GAD B   1       7.545  50.523  85.4160  0.00  0.00     0.000 O
ATOM     11  HD  GAD B   1       8.089  49.912  85.1330  0.00  0.00     0.000 HD
ENDROOT
BRANCH 5 11
ATOM     11   C  GAD B   1       9.993  46.825  87.2040  0.00  0.00     0.000 C
ATOM     12   O  GAD B   1      10.603  45.764  86.8630  0.00  0.00     0.000 OA
ATOM     13   O  GAD B   1       9.616  47.053  88.4120  0.00  0.00     0.000 OA
ENDBRANCH 5 11
BRANCH 1 14
ATOM     14  O3  ASG B   2      10.236  47.426  82.8240  0.00  0.00     0.000 O
BRANCH 14 17
ATOM     15  C1  ASG B   2       9.591  43.742  82.2820  0.00  0.00     0.000 C
ATOM     16  C2  ASG B   2      10.432  45.016  82.4480  0.00  0.00     0.000 C
ATOM     17  C3  ASG B   2       9.497  46.210  82.6610  0.00  0.00     0.000 C
ATOM     18  C4  ASG B   2       8.550  46.344  81.4830  0.00  0.00     0.000 C
ATOM     19  C5  ASG B   2       7.824  45.018  81.2750  0.00  0.00     0.000 C
ATOM     20  O5  ASG B   2       8.781  43.948  81.1400  0.00  0.00     0.000 O
ATOM     21   C  ASG B   2       6.992  45.003  80.0330  0.00  0.00     0.000 C
ATOM     22   O  ASG B   2       6.531  43.695  79.7970  0.00  0.00     0.000 O
ATOM     24  HD  ASG B   2       6.178  42.950  79.5320  0.00  0.00     0.000 HD
BRANCH 16 26
ATOM     24   N  ASG B   2      11.451  44.914  83.4670  0.00  0.00     0.000 N
ATOM     26  HD  ASG B   2      11.157  44.223  83.0360  0.00  0.00     0.000 HD
ATOM     26   C  ASG B   2      12.643  45.536  83.4040  0.00  0.00     0.000 C
ATOM     27   C  ASG B   2      13.417  45.599  84.6760  0.00  0.00     0.000 C
ATOM     28   O  ASG B   2      13.063  46.021  82.3600  0.00  0.00     0.000 OA
ENDBRANCH 16 26
BRANCH 18 29
ATOM     29   O  ASG B   2       9.372  46.731  80.3290  0.00  0.00     0.000 O
ATOM     30   O  ASG B   2       7.582  48.003  79.2250  0.00  0.00     0.000 OA
ATOM     31   O  ASG B   2       9.410  49.176  80.3080  0.00  0.00     0.000 OA
ATOM     32   O  ASG B   2       9.808  47.928  78.2760  0.00  0.00     0.000 OA
ATOM     33   S  ASG B   2       9.007  48.054  79.4930  0.00  0.00     0.000 S
ENDBRANCH 18 29
BRANCH 15 34
ATOM     34  O4  ASG B   3      10.354  42.586  82.0860  0.00  0.00     0.000 O
BRANCH 34 38
ATOM     35  C1  GCT B   3      10.657  38.554  82.2090  0.00  0.00     0.000 C
ATOM     36  C2  GCT B   3      10.156  39.094  80.8870  0.00  0.00     0.000 C
ATOM     37  C3  GCT B   3      10.475  40.577  80.7520  0.00  0.00     0.000 C
ATOM     38  C4  GCT B   3       9.806  41.343  81.8990  0.00  0.00     0.000 C
ATOM     39  C5  GCT B   3       9.761  40.513  83.2020  0.00  0.00     0.000 C
ATOM     40  O5  GCT B   3      10.851  39.610  83.1440  0.00  0.00     0.000 O
ATOM     41   O  GCT B   3      10.818  38.353  79.8720  0.00  0.00     0.000 O
ATOM     43  HD  GCT B   3      10.697  37.553  79.5640  0.00  0.00     0.000 HD
ATOM     43   O  GCT B   3      10.040  41.023  79.4500  0.00  0.00     0.000 O
ATOM     45  HD  GCT B   3       9.919  40.223  79.1420  0.00  0.00     0.000 HD
BRANCH 39 45
ATOM     45   C  GCT B   3       8.496  39.750  83.5270  0.00  0.00     0.000 C
ATOM     46   O  GCT B   3       7.471  39.892  82.7880  0.00  0.00     0.000 OA
ATOM     47   O  GCT B   3       8.514  38.993  84.5110  0.00  0.00     0.000 OA
ENDBRANCH 39 45
BRANCH 35 48
ATOM     48  O3  ASG B   4      10.144  37.360  82.4130  0.00  0.00     0.000 O
BRANCH 48 51
ATOM     49  C1  ASG B   4      11.409  33.895  82.1250  0.00  0.00     0.000 C
ATOM     50  C2  ASG B   4      10.479  35.111  81.9770  0.00  0.00     0.000 C
ATOM     51  C3  ASG B   4      11.186  36.400  82.3870  0.00  0.00     0.000 C
ATOM     52  C4  ASG B   4      11.850  36.255  83.7460  0.00  0.00     0.000 C
ATOM     53  C5  ASG B   4      12.765  35.034  83.7000  0.00  0.00     0.000 C
ATOM     54  O5  ASG B   4      11.973  33.862  83.4260  0.00  0.00     0.000 O
BRANCH 50 57
ATOM     55   N  ASG B   4       9.287  34.784  82.7260  0.00  0.00     0.000 N
ATOM     57  HD  ASG B   4       8.719  34.863  82.0770  0.00  0.00     0.000 HD
ATOM     57   O  ASG B   4       8.154  34.010  80.9560  0.00  0.00     0.000 OA
ATOM     58   C  ASG B   4       8.245  34.157  82.1710  0.00  0.00     0.000 C
ATOM     59   C  ASG B   4       7.183  33.699  83.1220  0.00  0.00     0.000 C
ENDBRANCH 50 57
BRANCH 52 60
ATOM     60   O  ASG B   4      10.703  36.133  84.6830  0.00  0.00     0.000 O
ATOM     61   O  ASG B   4      11.641  37.828  86.2570  0.00  0.00     0.000 OA
ATOM     62   O  ASG B   4       9.474  36.921  86.6450  0.00  0.00     0.000 OA
ATOM     63   O  ASG B   4      11.380  35.482  86.7720  0.00  0.00     0.000 OA
ATOM     64   S  ASG B   4      10.790  36.688  86.1840  0.00  0.00     0.000 S
ENDBRANCH 52 60
ATOM     65   O  ASG B   4      14.611  33.858  84.7430  0.00  0.00     0.000 O
ATOM     67  HD  ASG B   4      14.173  33.113  84.6850  0.00  0.00     0.000 HD
ATOM     67   O  ASG B   4      14.611  33.858  84.7430  0.00  0.00     0.000 O
ATOM     69  HD  ASG B   4      14.173  33.113  84.6850  0.00  0.00     0.000 HD
ENDBRANCH 48 51
ENDBRANCH 35 48
ENDBRANCH 34 38
ENDBRANCH 15 34
ENDBRANCH 14 17
ENDBRANCH 1 14
TORSDOF 12
ENDMDL
MODEL 91
REMARK VINA RESULT:      -6.9      2.315      3.766
ROOT
ATOM      1  C1  GAD B   1      13.952  42.750  30.3720  0.00  0.00     0.000 C
ATOM      2  C2  GAD B   1      12.588  42.419  29.7570  0.00  0.00     0.000 C
ATOM      3  C3  GAD B   1      11.792  43.707  29.5170  0.00  0.00     0.000 C
ATOM      4  C4  GAD B   1      12.067  44.822  30.5310  0.00  0.00     0.000 C
ATOM      5  C5  GAD B   1      13.032  44.772  31.4700  0.00  0.00     0.000 C
ATOM      6  O5  GAD B   1      13.817  43.567  31.5440  0.00  0.00     0.000 O
ATOM      7   O  GAD B   1      12.731  41.599  28.5390  0.00  0.00     0.000 O
ATOM      9  HD  GAD B   1      13.527  41.503  28.8670  0.00  0.00     0.000 HD
ATOM      9   O  GAD B   1      10.367  43.468  29.5620  0.00  0.00     0.000 O
ATOM     11  HD  GAD B   1      11.163  43.371  29.8900  0.00  0.00     0.000 HD
ENDROOT
BRANCH 5 11
ATOM     11   C  GAD B   1      13.377  45.885  32.3850  0.00  0.00     0.000 C
ATOM     12   O  GAD B   1      12.502  46.793  32.5420  0.00  0.00     0.000 OA
ATOM     13   O  GAD B   1      14.546  45.946  32.9170  0.00  0.00     0.000 OA
ENDBRANCH 5 11
BRANCH 1 14
ATOM     14  O3  ASG B   2      14.696  41.869  31.0670  0.00  0.00     0.000 O
BRANCH 14 17
ATOM     15  C1  ASG B   2      16.521  41.459  34.3500  0.00  0.00     0.000 C
ATOM     16  C2  ASG B   2      16.371  41.585  32.8280  0.00  0.00     0.000 C
ATOM     17  C3  ASG B   2      14.888  41.744  32.4810  0.00  0.00     0.000 C
ATOM     18  C4  ASG B   2      14.104  40.554  32.9980  0.00  0.00     0.000 C
ATOM     19  C5  ASG B   2      14.377  40.388  34.4900  0.00  0.00     0.000 C
ATOM     20  O5  ASG B   2      15.796  40.302  34.7250  0.00  0.00     0.000 O
ATOM     21   C  ASG B   2      13.777  39.139  35.0530  0.00  0.00     0.000 C
ATOM     22   O  ASG B   2      14.245  38.948  36.3650  0.00  0.00     0.000 O
ATOM     24  HD  ASG B   2      14.446  38.707  37.1720  0.00  0.00     0.000 HD
BRANCH 16 26
ATOM     24   N  ASG B   2      17.003  42.683  32.1330  0.00  0.00     0.000 N
ATOM     26  HD  ASG B   2      17.193  42.485  32.9540  0.00  0.00     0.000 HD
ATOM     26   C  ASG B   2      17.736  42.543  31.0130  0.00  0.00     0.000 C
ATOM     27   C  ASG B   2      18.017  43.793  30.2520  0.00  0.00     0.000 C
ATOM     28   O  ASG B   2      18.146  41.449  30.6440  0.00  0.00     0.000 OA
ENDBRANCH 16 26
BRANCH 18 29
ATOM     29   O  ASG B   2      14.536  39.394  32.2070  0.00  0.00     0.000 O
ATOM     30   O  ASG B   2      12.356  38.262  32.3000  0.00  0.00     0.000 OA
ATOM     31   O  ASG B   2      13.082  39.327  30.2430  0.00  0.00     0.000 OA
ATOM     32   O  ASG B   2      14.182  37.319  31.0200  0.00  0.00     0.000 OA
ATOM     33   S  ASG B   2      13.453  38.533  31.3900  0.00  0.00     0.000 S
ENDBRANCH 18 29
BRANCH 15 34
ATOM     34  O4  ASG B   3      17.846  41.314  34.7750  0.00  0.00     0.000 O
BRANCH 34 38
ATOM     35  C1  GCT B   3      20.375  38.498  36.2020  0.00  0.00     0.000 C
ATOM     36  C2  GCT B   3      20.808  39.103  34.8840  0.00  0.00     0.000 C
ATOM     37  C3  GCT B   3      20.084  40.418  34.6290  0.00  0.00     0.000 C
ATOM     38  C4  GCT B   3      18.573  40.164  34.5980  0.00  0.00     0.000 C
ATOM     39  C5  GCT B   3      18.153  39.043  35.5770  0.00  0.00     0.000 C
ATOM     40  O5  GCT B   3      19.120  39.028  36.6130  0.00  0.00     0.000 O
ATOM     41   O  GCT B   3      22.208  39.322  34.9810  0.00  0.00     0.000 O
ATOM     43  HD  GCT B   3      22.885  38.785  34.9300  0.00  0.00     0.000 HD
ATOM     43   O  GCT B   3      20.583  40.985  33.3990  0.00  0.00     0.000 O
ATOM     45  HD  GCT B   3      21.260  40.448  33.3470  0.00  0.00     0.000 HD
BRANCH 39 45
ATOM     45   C  GCT B   3      17.980  37.641  35.0340  0.00  0.00     0.000 C
ATOM     46   O  GCT B   3      18.252  37.403  33.8150  0.00  0.00     0.000 OA
ATOM     47   O  GCT B   3      17.586  36.762  35.8170  0.00  0.00     0.000 OA
ENDBRANCH 39 45
BRANCH 35 48
ATOM     48  O3  ASG B   4      20.806  37.257  36.2730  0.00  0.00     0.000 O
BRANCH 48 51
ATOM     49  C1  ASG B   4      21.565  36.369  39.7840  0.00  0.00     0.000 C
ATOM     50  C2  ASG B   4      21.650  37.078  38.4220  0.00  0.00     0.000 C
ATOM     51  C3  ASG B   4      20.459  36.719  37.5370  0.00  0.00     0.000 C
ATOM     52  C4  ASG B   4      20.256  35.214  37.4720  0.00  0.00     0.000 C
ATOM     53  C5  ASG B   4      20.149  34.687  38.9000  0.00  0.00     0.000 C
ATOM     54  O5  ASG B   4      21.374  34.976  39.6020  0.00  0.00     0.000 O
BRANCH 50 57
ATOM     55   N  ASG B   4      21.811  38.273  39.2180  0.00  0.00     0.000 N
ATOM     57  HD  ASG B   4      22.665  38.211  39.3480  0.00  0.00     0.000 HD
ATOM     57   O  ASG B   4      23.950  38.602  38.6420  0.00  0.00     0.000 OA
ATOM     58   C  ASG B   4      22.927  39.008  39.1840  0.00  0.00     0.000 C
ATOM     59   C  ASG B   4      22.857  40.324  39.8950  0.00  0.00     0.000 C
ENDBRANCH 50 57
BRANCH 52 60
ATOM     60   O  ASG B   4      21.447  34.735  36.7240  0.00  0.00     0.000 O
ATOM     61   O  ASG B   4      20.211  34.648  34.5570  0.00  0.00     0.000 OA
ATOM     62   O  ASG B   4      22.551  34.212  34.6050  0.00  0.00     0.000 OA
ATOM     63   O  ASG B   4      21.063  32.712  35.7230  0.00  0.00     0.000 OA
ATOM     64   S  ASG B   4      21.309  34.083  35.2660  0.00  0.00     0.000 S
ENDBRANCH 52 60
ATOM     65   O  ASG B   4      19.466  32.847  40.3230  0.00  0.00     0.000 O
ATOM     67  HD  ASG B   4      20.213  32.901  40.7580  0.00  0.00     0.000 HD
ATOM     67   O  ASG B   4      19.466  32.847  40.3230  0.00  0.00     0.000 O
ATOM     69  HD  ASG B   4      20.213  32.901  40.7580  0.00  0.00     0.000 HD
ENDBRANCH 48 51
ENDBRANCH 35 48
ENDBRANCH 34 38
ENDBRANCH 15 34
ENDBRANCH 14 17
ENDBRANCH 1 14
TORSDOF 12
ENDMDL
MODEL 92
REMARK VINA RESULT:      -6.9     19.273     24.109
ROOT
ATOM      1  C1  GAD B   1      23.633  49.741  50.1500  0.00  0.00     0.000 C
ATOM      2  C2  GAD B   1      23.471  48.963  48.8400  0.00  0.00     0.000 C
ATOM      3  C3  GAD B   1      24.814  48.355  48.4200  0.00  0.00     0.000 C
ATOM      4  C4  GAD B   1      26.039  49.182  48.8200  0.00  0.00     0.000 C
ATOM      5  C5  GAD B   1      25.993  50.272  49.6120  0.00  0.00     0.000 C
ATOM      6  O5  GAD B   1      24.695  50.702  50.0640  0.00  0.00     0.000 O
ATOM      7   O  GAD B   1      22.394  47.959  48.9410  0.00  0.00     0.000 O
ATOM      9  HD  GAD B   1      22.206  48.436  49.6390  0.00  0.00     0.000 HD
ATOM      9   O  GAD B   1      24.895  48.187  46.9870  0.00  0.00     0.000 O
ATOM     11  HD  GAD B   1      24.707  48.664  47.6840  0.00  0.00     0.000 HD
ENDROOT
BRANCH 5 11
ATOM     11   C  GAD B   1      27.181  51.016  50.0920  0.00  0.00     0.000 C
ATOM     12   O  GAD B   1      27.739  50.587  51.1490  0.00  0.00     0.000 OA
ATOM     13   O  GAD B   1      27.556  52.090  49.4920  0.00  0.00     0.000 OA
ENDBRANCH 5 11
BRANCH 1 14
ATOM     14  O3  ASG B   2      22.788  50.706  50.5600  0.00  0.00     0.000 O
BRANCH 14 17
ATOM     15  C1  ASG B   2      19.082  51.220  51.0850  0.00  0.00     0.000 C
ATOM     16  C2  ASG B   2      20.440  51.372  50.3860  0.00  0.00     0.000 C
ATOM     17  C3  ASG B   2      21.500  50.598  51.1760  0.00  0.00     0.000 C
ATOM     18  C4  ASG B   2      21.569  51.119  52.5980  0.00  0.00     0.000 C
ATOM     19  C5  ASG B   2      20.175  51.068  53.2160  0.00  0.00     0.000 C
ATOM     20  O5  ASG B   2      19.238  51.773  52.3780  0.00  0.00     0.000 O
ATOM     21   C  ASG B   2      20.114  51.717  54.5620  0.00  0.00     0.000 C
ATOM     22   O  ASG B   2      18.772  51.821  54.9690  0.00  0.00     0.000 O
ATOM     24  HD  ASG B   2      18.002  51.947  55.3440  0.00  0.00     0.000 HD
BRANCH 16 26
ATOM     24   N  ASG B   2      20.488  50.962  49.0010  0.00  0.00     0.000 N
ATOM     26  HD  ASG B   2      19.747  51.176  49.3950  0.00  0.00     0.000 HD
ATOM     26   C  ASG B   2      21.185  51.609  48.0480  0.00  0.00     0.000 C
ATOM     27   C  ASG B   2      21.398  50.866  46.7740  0.00  0.00     0.000 C
ATOM     28   O  ASG B   2      21.617  52.742  48.2230  0.00  0.00     0.000 OA
ENDBRANCH 16 26
BRANCH 18 29
ATOM     29   O  ASG B   2      22.106  52.484  52.5170  0.00  0.00     0.000 O
ATOM     30   O  ASG B   2      23.209  52.398  54.7120  0.00  0.00     0.000 OA
ATOM     31   O  ASG B   2      24.537  52.272  52.6840  0.00  0.00     0.000 OA
ATOM     32   O  ASG B   2      23.445  54.342  53.2880  0.00  0.00     0.000 OA
ATOM     33   S  ASG B   2      23.416  52.881  53.3600  0.00  0.00     0.000 S
ENDBRANCH 18 29
BRANCH 15 34
ATOM     34  O4  ASG B   3      18.039  51.890  50.4360  0.00  0.00     0.000 O
BRANCH 34 38
ATOM     35  C1  GCT B   3      15.893  55.271  49.8650  0.00  0.00     0.000 C
ATOM     36  C2  GCT B   3      17.100  55.148  48.9610  0.00  0.00     0.000 C
ATOM     37  C3  GCT B   3      17.594  53.709  48.9100  0.00  0.00     0.000 C
ATOM     38  C4  GCT B   3      17.972  53.255  50.3250  0.00  0.00     0.000 C
ATOM     39  C5  GCT B   3      17.062  53.892  51.4010  0.00  0.00     0.000 C
ATOM     40  O5  GCT B   3      15.825  54.173  50.7690  0.00  0.00     0.000 O
ATOM     41   O  GCT B   3      16.682  55.571  47.6710  0.00  0.00     0.000 O
ATOM     43  HD  GCT B   3      16.539  56.357  47.3350  0.00  0.00     0.000 HD
ATOM     43   O  GCT B   3      18.697  53.634  47.9830  0.00  0.00     0.000 O
ATOM     45  HD  GCT B   3      18.555  54.420  47.6480  0.00  0.00     0.000 HD
BRANCH 39 45
ATOM     45   C  GCT B   3      17.553  55.132  52.1150  0.00  0.00     0.000 C
ATOM     46   O  GCT B   3      18.693  55.613  51.8260  0.00  0.00     0.000 OA
ATOM     47   O  GCT B   3      16.803  55.647  52.9610  0.00  0.00     0.000 OA
ENDBRANCH 39 45
BRANCH 35 48
ATOM     48  O3  ASG B   4      15.652  56.544  50.0990  0.00  0.00     0.000 O
BRANCH 48 51
ATOM     49  C1  ASG B   4      12.765  58.648  49.1350  0.00  0.00     0.000 C
ATOM     50  C2  ASG B   4      14.200  58.096  49.1810  0.00  0.00     0.000 C
ATOM     51  C3  ASG B   4      14.263  56.784  49.9580  0.00  0.00     0.000 C
ATOM     52  C4  ASG B   4      13.574  56.909  51.3070  0.00  0.00     0.000 C
ATOM     53  C5  ASG B   4      12.157  57.423  51.0710  0.00  0.00     0.000 C
ATOM     54  O5  ASG B   4      12.223  58.719  50.4440  0.00  0.00     0.000 O
BRANCH 50 57
ATOM     55   N  ASG B   4      14.450  58.032  47.7600  0.00  0.00     0.000 N
ATOM     57  HD  ASG B   4      14.539  58.882  47.6200  0.00  0.00     0.000 HD
ATOM     57   O  ASG B   4      15.633  59.932  47.6860  0.00  0.00     0.000 OA
ATOM     58   C  ASG B   4      15.242  58.908  47.1340  0.00  0.00     0.000 C
ATOM     59   C  ASG B   4      15.571  58.582  45.7100  0.00  0.00     0.000 C
ENDBRANCH 50 57
BRANCH 52 60
ATOM     60   O  ASG B   4      14.452  57.842  52.0600  0.00  0.00     0.000 O
ATOM     61   O  ASG B   4      13.637  57.027  54.2740  0.00  0.00     0.000 OA
ATOM     62   O  ASG B   4      15.415  58.607  54.1740  0.00  0.00     0.000 OA
ATOM     63   O  ASG B   4      13.242  59.246  53.4050  0.00  0.00     0.000 OA
ATOM     64   S  ASG B   4      14.200  58.155  53.6110  0.00  0.00     0.000 S
ENDBRANCH 52 60
ATOM     65   O  ASG B   4       9.933  57.700  51.9970  0.00  0.00     0.000 O
ATOM     67  HD  ASG B   4       9.915  58.520  51.7180  0.00  0.00     0.000 HD
ATOM     67   O  ASG B   4       9.933  57.700  51.9970  0.00  0.00     0.000 O
ATOM     69  HD  ASG B   4       9.915  58.520  51.7180  0.00  0.00     0.000 HD
ENDBRANCH 48 51
ENDBRANCH 35 48
ENDBRANCH 34 38
ENDBRANCH 15 34
ENDBRANCH 14 17
ENDBRANCH 1 14
TORSDOF 12
ENDMDL
MODEL 93
REMARK VINA RESULT:      -6.9     22.581     28.555
ROOT
ATOM      1  C1  GAD B   1      25.640  31.077  55.4960  0.00  0.00     0.000 C
ATOM      2  C2  GAD B   1      25.337  32.388  54.7640  0.00  0.00     0.000 C
ATOM      3  C3  GAD B   1      26.356  33.462  55.1640  0.00  0.00     0.000 C
ATOM      4  C4  GAD B   1      26.875  33.341  56.6000  0.00  0.00     0.000 C
ATOM      5  C5  GAD B   1      26.606  32.305  57.4190  0.00  0.00     0.000 C
ATOM      6  O5  GAD B   1      25.735  31.275  56.9150  0.00  0.00     0.000 O
ATOM      7   O  GAD B   1      25.264  32.184  53.3040  0.00  0.00     0.000 O
ATOM      9  HD  GAD B   1      25.210  31.360  53.5640  0.00  0.00     0.000 HD
ATOM      9   O  GAD B   1      25.800  34.791  55.0500  0.00  0.00     0.000 O
ATOM     11  HD  GAD B   1      25.746  33.966  55.3090  0.00  0.00     0.000 HD
ENDROOT
BRANCH 5 11
ATOM     11   C  GAD B   1      27.188  32.126  58.7700  0.00  0.00     0.000 C
ATOM     12   O  GAD B   1      26.597  31.314  59.5480  0.00  0.00     0.000 OA
ATOM     13   O  GAD B   1      28.196  32.835  59.1390  0.00  0.00     0.000 OA
ENDBRANCH 5 11
BRANCH 1 14
ATOM     14  O3  ASG B   2      24.735  30.099  55.6910  0.00  0.00     0.000 O
BRANCH 14 17
ATOM     15  C1  ASG B   2      22.308  28.702  58.2280  0.00  0.00     0.000 C
ATOM     16  C2  ASG B   2      23.523  28.698  57.2900  0.00  0.00     0.000 C
ATOM     17  C3  ASG B   2      23.612  30.051  56.5790  0.00  0.00     0.000 C
ATOM     18  C4  ASG B   2      22.336  30.312  55.8010  0.00  0.00     0.000 C
ATOM     19  C5  ASG B   2      21.143  30.184  56.7430  0.00  0.00     0.000 C
ATOM     20  O5  ASG B   2      21.174  28.905  57.4070  0.00  0.00     0.000 O
ATOM     21   C  ASG B   2      19.831  30.262  56.0290  0.00  0.00     0.000 C
ATOM     22   O  ASG B   2      18.796  29.925  56.9200  0.00  0.00     0.000 O
ATOM     24  HD  ASG B   2      18.067  29.743  57.3510  0.00  0.00     0.000 HD
BRANCH 16 26
ATOM     24   N  ASG B   2      24.545  27.822  56.7640  0.00  0.00     0.000 N
ATOM     26  HD  ASG B   2      24.227  28.487  56.3090  0.00  0.00     0.000 HD
ATOM     26   C  ASG B   2      25.756  27.655  57.3290  0.00  0.00     0.000 C
ATOM     27   C  ASG B   2      26.540  26.478  56.8600  0.00  0.00     0.000 C
ATOM     28   O  ASG B   2      26.183  28.427  58.1780  0.00  0.00     0.000 OA
ENDBRANCH 16 26
BRANCH 18 29
ATOM     29   O  ASG B   2      22.307  29.332  54.7070  0.00  0.00     0.000 O
ATOM     30   O  ASG B   2      20.908  30.716  53.2330  0.00  0.00     0.000 OA
ATOM     31   O  ASG B   2      23.274  30.451  52.7600  0.00  0.00     0.000 OA
ATOM     32   O  ASG B   2      21.767  28.583  52.4740  0.00  0.00     0.000 OA
ATOM     33   S  ASG B   2      22.050  29.822  53.1980  0.00  0.00     0.000 S
ENDBRANCH 18 29
BRANCH 15 34
ATOM     34  O4  ASG B   3      22.140  27.506  58.9340  0.00  0.00     0.000 O
BRANCH 34 38
ATOM     35  C1  GCT B   3      20.268  28.079  62.4750  0.00  0.00     0.000 C
ATOM     36  C2  GCT B   3      20.430  26.624  62.0920  0.00  0.00     0.000 C
ATOM     37  C3  GCT B   3      21.493  26.462  61.0150  0.00  0.00     0.000 C
ATOM     38  C4  GCT B   3      21.083  27.270  59.7770  0.00  0.00     0.000 C
ATOM     39  C5  GCT B   3      20.326  28.563  60.1530  0.00  0.00     0.000 C
ATOM     40  O5  GCT B   3      20.769  28.929  61.4480  0.00  0.00     0.000 O
ATOM     41   O  GCT B   3      20.817  25.937  63.2740  0.00  0.00     0.000 O
ATOM     43  HD  GCT B   3      20.370  25.681  63.9690  0.00  0.00     0.000 HD
ATOM     43   O  GCT B   3      21.656  25.055  60.7380  0.00  0.00     0.000 O
ATOM     45  HD  GCT B   3      21.209  24.799  61.4340  0.00  0.00     0.000 HD
BRANCH 39 45
ATOM     45   C  GCT B   3      18.813  28.545  60.1290  0.00  0.00     0.000 C
ATOM     46   O  GCT B   3      18.205  27.490  59.7630  0.00  0.00     0.000 OA
ATOM     47   O  GCT B   3      18.217  29.574  60.4860  0.00  0.00     0.000 OA
ENDBRANCH 39 45
BRANCH 35 48
ATOM     48  O3  ASG B   4      19.180  28.220  63.2000  0.00  0.00     0.000 O
BRANCH 48 51
ATOM     49  C1  ASG B   4      18.469  28.713  66.7970  0.00  0.00     0.000 C
ATOM     50  C2  ASG B   4      18.361  28.164  65.3650  0.00  0.00     0.000 C
ATOM     51  C3  ASG B   4      19.547  28.607  64.5130  0.00  0.00     0.000 C
ATOM     52  C4  ASG B   4      19.768  30.108  64.6150  0.00  0.00     0.000 C
ATOM     53  C5  ASG B   4      19.896  30.469  66.0920  0.00  0.00     0.000 C
ATOM     54  O5  ASG B   4      18.675  30.116  66.7720  0.00  0.00     0.000 O
BRANCH 50 57
ATOM     55   N  ASG B   4      18.264  26.738  65.1550  0.00  0.00     0.000 N
ATOM     57  HD  ASG B   4      17.550  26.601  65.6250  0.00  0.00     0.000 HD
ATOM     57   O  ASG B   4      16.045  26.651  65.4380  0.00  0.00     0.000 OA
ATOM     58   C  ASG B   4      17.090  26.102  65.1040  0.00  0.00     0.000 C
ATOM     59   C  ASG B   4      17.147  24.670  64.6670  0.00  0.00     0.000 C
ENDBRANCH 50 57
BRANCH 52 60
ATOM     60   O  ASG B   4      18.575  30.681  63.9400  0.00  0.00     0.000 O
ATOM     61   O  ASG B   4      19.928  32.384  62.7150  0.00  0.00     0.000 OA
ATOM     62   O  ASG B   4      17.599  32.175  62.2670  0.00  0.00     0.000 OA
ATOM     63   O  ASG B   4      18.309  32.902  64.4310  0.00  0.00     0.000 OA
ATOM     64   S  ASG B   4      18.628  32.120  63.2340  0.00  0.00     0.000 S
ENDBRANCH 52 60
ATOM     65   O  ASG B   4      20.617  32.129  67.7060  0.00  0.00     0.000 O
ATOM     67  HD  ASG B   4      19.874  32.034  68.1400  0.00  0.00     0.000 HD
ATOM     67   O  ASG B   4      20.617  32.129  67.7060  0.00  0.00     0.000 O
ATOM     69  HD  ASG B   4      19.874  32.034  68.1400  0.00  0.00     0.000 HD
ENDBRANCH 48 51
ENDBRANCH 35 48
ENDBRANCH 34 38
ENDBRANCH 15 34
ENDBRANCH 14 17
ENDBRANCH 1 14
TORSDOF 12
ENDMDL
MODEL 94
REMARK VINA RESULT:      -6.9     18.017     23.336
ROOT
ATOM      1  C1  GAD B   1      23.587  51.946  56.3920  0.00  0.00     0.000 C
ATOM      2  C2  GAD B   1      23.964  50.935  57.4800  0.00  0.00     0.000 C
ATOM      3  C3  GAD B   1      25.454  50.590  57.3830  0.00  0.00     0.000 C
ATOM      4  C4  GAD B   1      26.024  50.624  55.9630  0.00  0.00     0.000 C
ATOM      5  C5  GAD B   1      25.348  51.069  54.8850  0.00  0.00     0.000 C
ATOM      6  O5  GAD B   1      23.986  51.492  55.0900  0.00  0.00     0.000 O
ATOM      7   O  GAD B   1      23.573  51.416  58.8190  0.00  0.00     0.000 O
ATOM      9  HD  GAD B   1      23.107  51.961  58.3340  0.00  0.00     0.000 HD
ATOM      9   O  GAD B   1      25.726  49.264  57.8910  0.00  0.00     0.000 O
ATOM     11  HD  GAD B   1      25.260  49.809  57.4060  0.00  0.00     0.000 HD
ENDROOT
BRANCH 5 11
ATOM     11   C  GAD B   1      25.923  51.207  53.5260  0.00  0.00     0.000 C
ATOM     12   O  GAD B   1      25.106  51.396  52.5720  0.00  0.00     0.000 OA
ATOM     13   O  GAD B   1      27.187  51.055  53.3410  0.00  0.00     0.000 OA
ENDBRANCH 5 11
BRANCH 1 14
ATOM     14  O3  ASG B   2      22.331  52.134  55.9440  0.00  0.00     0.000 O
BRANCH 14 17
ATOM     15  C1  ASG B   2      20.434  52.784  52.7410  0.00  0.00     0.000 C
ATOM     16  C2  ASG B   2      21.009  53.105  54.1280  0.00  0.00     0.000 C
ATOM     17  C3  ASG B   2      21.771  51.883  54.6500  0.00  0.00     0.000 C
ATOM     18  C4  ASG B   2      20.843  50.685  54.7200  0.00  0.00     0.000 C
ATOM     19  C5  ASG B   2      20.196  50.475  53.3550  0.00  0.00     0.000 C
ATOM     20  O5  ASG B   2      19.553  51.690  52.9210  0.00  0.00     0.000 O
ATOM     21   C  ASG B   2      19.140  49.417  53.3710  0.00  0.00     0.000 C
ATOM     22   O  ASG B   2      18.449  49.430  52.1460  0.00  0.00     0.000 O
ATOM     24  HD  ASG B   2      17.945  49.323  51.4500  0.00  0.00     0.000 HD
BRANCH 16 26
ATOM     24   N  ASG B   2      21.826  54.295  54.1800  0.00  0.00     0.000 N
ATOM     26  HD  ASG B   2      21.211  54.182  53.5810  0.00  0.00     0.000 HD
ATOM     26   C  ASG B   2      21.872  55.131  55.2340  0.00  0.00     0.000 C
ATOM     27   C  ASG B   2      23.005  56.098  55.2550  0.00  0.00     0.000 C
ATOM     28   O  ASG B   2      21.029  55.095  56.1220  0.00  0.00     0.000 OA
ENDBRANCH 16 26
BRANCH 18 29
ATOM     29   O  ASG B   2      19.864  50.977  55.7760  0.00  0.00     0.000 O
ATOM     30   O  ASG B   2      19.655  48.640  56.5090  0.00  0.00     0.000 OA
ATOM     31   O  ASG B   2      20.878  50.232  57.8730  0.00  0.00     0.000 OA
ATOM     32   O  ASG B   2      18.475  50.408  57.6700  0.00  0.00     0.000 OA
ATOM     33   S  ASG B   2      19.726  49.990  57.0360  0.00  0.00     0.000 S
ENDBRANCH 18 29
BRANCH 15 34
ATOM     34  O4  ASG B   3      19.720  53.843  52.1700  0.00  0.00     0.000 O
BRANCH 34 38
ATOM     35  C1  GCT B   3      20.729  52.843  48.3830  0.00  0.00     0.000 C
ATOM     36  C2  GCT B   3      20.880  54.317  48.6920  0.00  0.00     0.000 C
ATOM     37  C3  GCT B   3      20.914  54.555  50.1950  0.00  0.00     0.000 C
ATOM     38  C4  GCT B   3      19.611  54.036  50.8170  0.00  0.00     0.000 C
ATOM     39  C5  GCT B   3      19.075  52.787  50.0820  0.00  0.00     0.000 C
ATOM     40  O5  GCT B   3      20.198  52.145  49.5030  0.00  0.00     0.000 O
ATOM     41   O  GCT B   3      22.103  54.730  48.1000  0.00  0.00     0.000 O
ATOM     43  HD  GCT B   3      22.322  54.903  47.2800  0.00  0.00     0.000 HD
ATOM     43   O  GCT B   3      21.128  55.962  50.4330  0.00  0.00     0.000 O
ATOM     45  HD  GCT B   3      21.347  56.135  49.6130  0.00  0.00     0.000 HD
BRANCH 39 45
ATOM     45   C  GCT B   3      18.008  52.976  49.0260  0.00  0.00     0.000 C
ATOM     46   O  GCT B   3      17.575  51.968  48.3830  0.00  0.00     0.000 OA
ATOM     47   O  GCT B   3      17.581  54.127  48.8350  0.00  0.00     0.000 OA
ENDBRANCH 39 45
BRANCH 35 48
ATOM     48  O3  ASG B   4      20.440  52.693  47.1080  0.00  0.00     0.000 O
BRANCH 48 51
ATOM     49  C1  ASG B   4      22.889  50.219  45.8540  0.00  0.00     0.000 C
ATOM     50  C2  ASG B   4      22.326  51.483  46.5260  0.00  0.00     0.000 C
ATOM     51  C3  ASG B   4      20.813  51.388  46.7010  0.00  0.00     0.000 C
ATOM     52  C4  ASG B   4      20.132  50.989  45.4020  0.00  0.00     0.000 C
ATOM     53  C5  ASG B   4      20.781  49.701  44.9020  0.00  0.00     0.000 C
ATOM     54  O5  ASG B   4      22.180  49.942  44.6570  0.00  0.00     0.000 O
BRANCH 50 57
ATOM     55   N  ASG B   4      23.388  51.165  47.4530  0.00  0.00     0.000 N
ATOM     57  HD  ASG B   4      24.023  51.596  47.0520  0.00  0.00     0.000 HD
ATOM     57   O  ASG B   4      24.587  53.004  47.0100  0.00  0.00     0.000 OA
ATOM     58   C  ASG B   4      24.394  52.009  47.7020  0.00  0.00     0.000 C
ATOM     59   C  ASG B   4      25.291  51.630  48.8390  0.00  0.00     0.000 C
ENDBRANCH 50 57
BRANCH 52 60
ATOM     60   O  ASG B   4      20.343  52.168  44.5220  0.00  0.00     0.000 O
ATOM     61   O  ASG B   4      17.907  52.707  44.4430  0.00  0.00     0.000 OA
ATOM     62   O  ASG B   4      19.479  54.174  43.4220  0.00  0.00     0.000 OA
ATOM     63   O  ASG B   4      19.205  51.966  42.5450  0.00  0.00     0.000 OA
ATOM     64   S  ASG B   4      19.128  52.838  43.7210  0.00  0.00     0.000 S
ENDBRANCH 52 60
ATOM     65   O  ASG B   4      20.587  47.788  43.4250  0.00  0.00     0.000 O
ATOM     67  HD  ASG B   4      21.404  47.903  43.1630  0.00  0.00     0.000 HD
ATOM     67   O  ASG B   4      20.587  47.788  43.4250  0.00  0.00     0.000 O
ATOM     69  HD  ASG B   4      21.404  47.903  43.1630  0.00  0.00     0.000 HD
ENDBRANCH 48 51
ENDBRANCH 35 48
ENDBRANCH 34 38
ENDBRANCH 15 34
ENDBRANCH 14 17
ENDBRANCH 1 14
TORSDOF 12
ENDMDL
MODEL 95
REMARK VINA RESULT:      -6.8     22.514     28.996
ROOT
ATOM      1  C1  GAD B   1      20.998  15.257  55.3430  0.00  0.00     0.000 C
ATOM      2  C2  GAD B   1      19.668  14.501  55.4280  0.00  0.00     0.000 C
ATOM      3  C3  GAD B   1      19.757  13.189  54.6390  0.00  0.00     0.000 C
ATOM      4  C4  GAD B   1      20.673  13.246  53.4140  0.00  0.00     0.000 C
ATOM      5  C5  GAD B   1      21.473  14.288  53.1120  0.00  0.00     0.000 C
ATOM      6  O5  GAD B   1      21.416  15.435  53.9810  0.00  0.00     0.000 O
ATOM      7   O  GAD B   1      19.254  14.298  56.8290  0.00  0.00     0.000 O
ATOM      9  HD  GAD B   1      19.860  14.905  56.9490  0.00  0.00     0.000 HD
ATOM      9   O  GAD B   1      18.461  12.774  54.1510  0.00  0.00     0.000 O
ATOM     11  HD  GAD B   1      19.067  13.381  54.2700  0.00  0.00     0.000 HD
ENDROOT
BRANCH 5 11
ATOM     11   C  GAD B   1      22.441  14.311  51.9900  0.00  0.00     0.000 C
ATOM     12   O  GAD B   1      22.455  15.352  51.2630  0.00  0.00     0.000 OA
ATOM     13   O  GAD B   1      23.162  13.276  51.7380  0.00  0.00     0.000 OA
ENDBRANCH 5 11
BRANCH 1 14
ATOM     14  O3  ASG B   2      21.125  16.579  55.5570  0.00  0.00     0.000 O
BRANCH 14 17
ATOM     15  C1  ASG B   2      20.003  20.044  54.5510  0.00  0.00     0.000 C
ATOM     16  C2  ASG B   2      21.003  18.931  54.8920  0.00  0.00     0.000 C
ATOM     17  C3  ASG B   2      20.233  17.652  55.2340  0.00  0.00     0.000 C
ATOM     18  C4  ASG B   2      19.298  17.907  56.4010  0.00  0.00     0.000 C
ATOM     19  C5  ASG B   2      18.405  19.099  56.0720  0.00  0.00     0.000 C
ATOM     20  O5  ASG B   2      19.213  20.236  55.7100  0.00  0.00     0.000 O
ATOM     21   C  ASG B   2      17.562  19.528  57.2310  0.00  0.00     0.000 C
ATOM     22   O  ASG B   2      16.934  20.748  56.9230  0.00  0.00     0.000 O
ATOM     24  HD  ASG B   2      16.485  21.487  56.8710  0.00  0.00     0.000 HD
BRANCH 16 26
ATOM     24   N  ASG B   2      22.016  18.734  53.8810  0.00  0.00     0.000 N
ATOM     26  HD  ASG B   2      21.634  19.500  54.0090  0.00  0.00     0.000 HD
ATOM     26   C  ASG B   2      23.274  18.334  54.1420  0.00  0.00     0.000 C
ATOM     27   C  ASG B   2      24.066  17.857  52.9740  0.00  0.00     0.000 C
ATOM     28   O  ASG B   2      23.736  18.362  55.2770  0.00  0.00     0.000 OA
ENDBRANCH 16 26
BRANCH 18 29
ATOM     29   O  ASG B   2      20.150  18.139  57.5750  0.00  0.00     0.000 O
ATOM     30   O  ASG B   2      18.536  17.211  59.1810  0.00  0.00     0.000 OA
ATOM     31   O  ASG B   2      20.523  15.947  58.5920  0.00  0.00     0.000 OA
ATOM     32   O  ASG B   2      20.718  17.960  59.9160  0.00  0.00     0.000 OA
ATOM     33   S  ASG B   2      19.958  17.241  58.8940  0.00  0.00     0.000 S
ENDBRANCH 18 29
BRANCH 15 34
ATOM     34  O4  ASG B   3      20.608  21.261  54.2170  0.00  0.00     0.000 O
BRANCH 34 38
ATOM     35  C1  GCT B   3      21.299  25.177  54.9580  0.00  0.00     0.000 C
ATOM     36  C2  GCT B   3      22.176  24.235  55.7550  0.00  0.00     0.000 C
ATOM     37  C3  GCT B   3      22.184  22.846  55.1330  0.00  0.00     0.000 C
ATOM     38  C4  GCT B   3      20.751  22.300  55.1010  0.00  0.00     0.000 C
ATOM     39  C5  GCT B   3      19.710  23.419  54.8710  0.00  0.00     0.000 C
ATOM     40  O5  GCT B   3      20.373  24.449  54.1600  0.00  0.00     0.000 O
ATOM     41   O  GCT B   3      23.483  24.790  55.7380  0.00  0.00     0.000 O
ATOM     43  HD  GCT B   3      23.840  25.450  56.1710  0.00  0.00     0.000 HD
ATOM     43   O  GCT B   3      23.086  22.010  55.8890  0.00  0.00     0.000 O
ATOM     45  HD  GCT B   3      23.442  22.670  56.3210  0.00  0.00     0.000 HD
BRANCH 39 45
ATOM     45   C  GCT B   3      19.013  24.012  56.0770  0.00  0.00     0.000 C
ATOM     46   O  GCT B   3      18.188  24.966  55.9180  0.00  0.00     0.000 OA
ATOM     47   O  GCT B   3      19.270  23.524  57.1900  0.00  0.00     0.000 OA
ENDBRANCH 39 45
BRANCH 35 48
ATOM     48  O3  ASG B   4      21.100  26.277  55.6520  0.00  0.00     0.000 O
BRANCH 48 51
ATOM     49  C1  ASG B   4      22.143  29.196  53.6300  0.00  0.00     0.000 C
ATOM     50  C2  ASG B   4      22.229  27.874  54.4110  0.00  0.00     0.000 C
ATOM     51  C3  ASG B   4      20.839  27.345  54.7570  0.00  0.00     0.000 C
ATOM     52  C4  ASG B   4      19.985  28.424  55.4030  0.00  0.00     0.000 C
ATOM     53  C5  ASG B   4      19.975  29.638  54.4790  0.00  0.00     0.000 C
ATOM     54  O5  ASG B   4      21.322  30.123  54.3220  0.00  0.00     0.000 O
BRANCH 50 57
ATOM     55   N  ASG B   4      23.125  28.285  55.4670  0.00  0.00     0.000 N
ATOM     57  HD  ASG B   4      23.714  27.657  55.3690  0.00  0.00     0.000 HD
ATOM     57   O  ASG B   4      24.950  27.385  54.5320  0.00  0.00     0.000 OA
ATOM     58   C  ASG B   4      24.447  28.097  55.3950  0.00  0.00     0.000 C
ATOM     59   C  ASG B   4      25.256  28.768  56.4620  0.00  0.00     0.000 C
ENDBRANCH 50 57
BRANCH 52 60
ATOM     60   O  ASG B   4      20.646  28.651  56.7140  0.00  0.00     0.000 O
ATOM     61   O  ASG B   4      18.798  27.551  57.9820  0.00  0.00     0.000 OA
ATOM     62   O  ASG B   4      20.760  28.266  59.1270  0.00  0.00     0.000 OA
ATOM     63   O  ASG B   4      19.338  29.902  58.1180  0.00  0.00     0.000 OA
ATOM     64   S  ASG B   4      19.834  28.523  58.0910  0.00  0.00     0.000 S
ENDBRANCH 52 60
ATOM     65   O  ASG B   4      18.882  31.726  53.9060  0.00  0.00     0.000 O
ATOM     67  HD  ASG B   4      19.652  32.120  53.8610  0.00  0.00     0.000 HD
ATOM     67   O  ASG B   4      18.882  31.726  53.9060  0.00  0.00     0.000 O
ATOM     69  HD  ASG B   4      19.652  32.120  53.8610  0.00  0.00     0.000 HD
ENDBRANCH 48 51
ENDBRANCH 35 48
ENDBRANCH 34 38
ENDBRANCH 15 34
ENDBRANCH 14 17
ENDBRANCH 1 14
TORSDOF 12
ENDMDL
MODEL 96
REMARK VINA RESULT:      -6.8     22.688     28.188
ROOT
ATOM      1  C1  GAD B   1      25.764  31.084  55.6010  0.00  0.00     0.000 C
ATOM      2  C2  GAD B   1      25.474  32.455  54.9830  0.00  0.00     0.000 C
ATOM      3  C3  GAD B   1      26.489  33.486  55.4900  0.00  0.00     0.000 C
ATOM      4  C4  GAD B   1      26.989  33.239  56.9160  0.00  0.00     0.000 C
ATOM      5  C5  GAD B   1      26.707  32.136  57.6370  0.00  0.00     0.000 C
ATOM      6  O5  GAD B   1      25.841  31.157  57.0330  0.00  0.00     0.000 O
ATOM      7   O  GAD B   1      25.420  32.381  53.5100  0.00  0.00     0.000 O
ATOM      9  HD  GAD B   1      25.361  31.537  53.6950  0.00  0.00     0.000 HD
ATOM      9   O  GAD B   1      25.937  34.822  55.4850  0.00  0.00     0.000 O
ATOM     11  HD  GAD B   1      25.878  33.978  55.6700  0.00  0.00     0.000 HD
ENDROOT
BRANCH 5 11
ATOM     11   C  GAD B   1      27.270  31.837  58.9750  0.00  0.00     0.000 C
ATOM     12   O  GAD B   1      26.876  30.769  59.5400  0.00  0.00     0.000 OA
ATOM     13   O  GAD B   1      28.056  32.678  59.5480  0.00  0.00     0.000 OA
ENDBRANCH 5 11
BRANCH 1 14
ATOM     14  O3  ASG B   2      24.855  30.096  55.6980  0.00  0.00     0.000 O
BRANCH 14 17
ATOM     15  C1  ASG B   2      22.461  28.387  58.0700  0.00  0.00     0.000 C
ATOM     16  C2  ASG B   2      23.645  28.495  57.0980  0.00  0.00     0.000 C
ATOM     17  C3  ASG B   2      23.759  29.941  56.6070  0.00  0.00     0.000 C
ATOM     18  C4  ASG B   2      22.470  30.362  55.9280  0.00  0.00     0.000 C
ATOM     19  C5  ASG B   2      21.303  30.122  56.8810  0.00  0.00     0.000 C
ATOM     20  O5  ASG B   2      21.309  28.753  57.3330  0.00  0.00     0.000 O
ATOM     21   C  ASG B   2      19.973  30.352  56.2380  0.00  0.00     0.000 C
ATOM     22   O  ASG B   2      18.955  29.909  57.1010  0.00  0.00     0.000 O
ATOM     24  HD  ASG B   2      18.234  29.684  57.5250  0.00  0.00     0.000 HD
BRANCH 16 26
ATOM     24   N  ASG B   2      24.927  28.070  57.6110  0.00  0.00     0.000 N
ATOM     26  HD  ASG B   2      24.179  27.806  57.9590  0.00  0.00     0.000 HD
ATOM     26   C  ASG B   2      25.838  27.392  56.8890  0.00  0.00     0.000 C
ATOM     27   C  ASG B   2      27.216  27.339  57.4560  0.00  0.00     0.000 C
ATOM     28   O  ASG B   2      25.548  26.851  55.8290  0.00  0.00     0.000 OA
ENDBRANCH 16 26
BRANCH 18 29
ATOM     29   O  ASG B   2      22.371  29.569  54.6950  0.00  0.00     0.000 O
ATOM     30   O  ASG B   2      20.851  31.139  53.5680  0.00  0.00     0.000 OA
ATOM     31   O  ASG B   2      23.178  31.009  52.8910  0.00  0.00     0.000 OA
ATOM     32   O  ASG B   2      21.676  29.176  52.4140  0.00  0.00     0.000 OA
ATOM     33   S  ASG B   2      21.998  30.289  53.3070  0.00  0.00     0.000 S
ENDBRANCH 18 29
BRANCH 15 34
ATOM     34  O4  ASG B   3      22.272  27.099  58.5830  0.00  0.00     0.000 O
BRANCH 34 38
ATOM     35  C1  GCT B   3      20.455  23.485  58.5660  0.00  0.00     0.000 C
ATOM     36  C2  GCT B   3      20.541  24.138  57.2040  0.00  0.00     0.000 C
ATOM     37  C3  GCT B   3      21.587  25.243  57.1970  0.00  0.00     0.000 C
ATOM     38  C4  GCT B   3      21.210  26.300  58.2430  0.00  0.00     0.000 C
ATOM     39  C5  GCT B   3      20.521  25.674  59.4770  0.00  0.00     0.000 C
ATOM     40  O5  GCT B   3      20.991  24.341  59.5700  0.00  0.00     0.000 O
ATOM     41   O  GCT B   3      20.901  23.113  56.2880  0.00  0.00     0.000 O
ATOM     43  HD  GCT B   3      20.446  22.471  55.9260  0.00  0.00     0.000 HD
ATOM     43   O  GCT B   3      21.678  25.783  55.8620  0.00  0.00     0.000 O
ATOM     45  HD  GCT B   3      21.223  25.141  55.5000  0.00  0.00     0.000 HD
BRANCH 39 45
ATOM     45   C  GCT B   3      19.009  25.678  59.5360  0.00  0.00     0.000 C
ATOM     46   O  GCT B   3      18.420  25.209  60.5610  0.00  0.00     0.000 OA
ATOM     47   O  GCT B   3      18.394  26.158  58.5700  0.00  0.00     0.000 OA
ENDBRANCH 39 45
BRANCH 35 48
ATOM     48  O3  ASG B   4      19.379  22.729  58.6190  0.00  0.00     0.000 O
BRANCH 48 51
ATOM     49  C1  ASG B   4      19.070  19.068  59.0550  0.00  0.00     0.000 C
ATOM     50  C2  ASG B   4      19.027  20.453  58.3870  0.00  0.00     0.000 C
ATOM     51  C3  ASG B   4      19.706  21.507  59.2570  0.00  0.00     0.000 C
ATOM     52  C4  ASG B   4      19.185  21.461  60.6840  0.00  0.00     0.000 C
ATOM     53  C5  ASG B   4      19.343  20.034  61.2020  0.00  0.00     0.000 C
ATOM     54  O5  ASG B   4      18.564  19.144  60.3780  0.00  0.00     0.000 O
BRANCH 50 57
ATOM     55   N  ASG B   4      19.678  20.252  57.1130  0.00  0.00     0.000 N
ATOM     57  HD  ASG B   4      19.065  19.761  56.7470  0.00  0.00     0.000 HD
ATOM     57   O  ASG B   4      17.775  19.952  55.9700  0.00  0.00     0.000 OA
ATOM     58   C  ASG B   4      18.991  20.119  55.9740  0.00  0.00     0.000 C
ATOM     59   C  ASG B   4      19.809  20.135  54.7190  0.00  0.00     0.000 C
ENDBRANCH 50 57
BRANCH 52 60
ATOM     60   O  ASG B   4      17.778  21.919  60.5550  0.00  0.00     0.000 O
ATOM     61   O  ASG B   4      17.735  22.855  62.8690  0.00  0.00     0.000 OA
ATOM     62   O  ASG B   4      15.868  23.175  61.4260  0.00  0.00     0.000 OA
ATOM     63   O  ASG B   4      16.426  20.961  62.1370  0.00  0.00     0.000 OA
ATOM     64   S  ASG B   4      16.908  22.314  61.8430  0.00  0.00     0.000 S
ENDBRANCH 52 60
ATOM     65   O  ASG B   4      19.404  18.591  63.1500  0.00  0.00     0.000 O
ATOM     67  HD  ASG B   4      18.875  18.030  62.7550  0.00  0.00     0.000 HD
ATOM     67   O  ASG B   4      19.404  18.591  63.1500  0.00  0.00     0.000 O
ATOM     69  HD  ASG B   4      18.875  18.030  62.7550  0.00  0.00     0.000 HD
ENDBRANCH 48 51
ENDBRANCH 35 48
ENDBRANCH 34 38
ENDBRANCH 15 34
ENDBRANCH 14 17
ENDBRANCH 1 14
TORSDOF 12
ENDMDL
MODEL 97
REMARK VINA RESULT:      -6.8     24.024     29.572
ROOT
ATOM      1  C1  GAD B   1      16.386  27.673  64.0430  0.00  0.00     0.000 C
ATOM      2  C2  GAD B   1      15.329  27.286  63.0040  0.00  0.00     0.000 C
ATOM      3  C3  GAD B   1      14.133  26.619  63.6940  0.00  0.00     0.000 C
ATOM      4  C4  GAD B   1      14.489  25.814  64.9460  0.00  0.00     0.000 C
ATOM      5  C5  GAD B   1      15.711  25.797  65.5160  0.00  0.00     0.000 C
ATOM      6  O5  GAD B   1      16.750  26.554  64.8670  0.00  0.00     0.000 O
ATOM      7   O  GAD B   1      14.940  28.444  62.1760  0.00  0.00     0.000 O
ATOM      9  HD  GAD B   1      15.666  28.760  62.5280  0.00  0.00     0.000 HD
ATOM      9   O  GAD B   1      13.452  25.703  62.8080  0.00  0.00     0.000 O
ATOM     11  HD  GAD B   1      14.178  26.019  63.1590  0.00  0.00     0.000 HD
ENDROOT
BRANCH 5 11
ATOM     11   C  GAD B   1      16.040  25.107  66.7850  0.00  0.00     0.000 C
ATOM     12   O  GAD B   1      15.142  25.097  67.6830  0.00  0.00     0.000 OA
ATOM     13   O  GAD B   1      17.217  24.623  66.9710  0.00  0.00     0.000 OA
ENDBRANCH 5 11
BRANCH 1 14
ATOM     14  O3  ASG B   2      17.684  27.884  63.7520  0.00  0.00     0.000 O
BRANCH 14 17
ATOM     15  C1  ASG B   2      19.983  28.775  60.8890  0.00  0.00     0.000 C
ATOM     16  C2  ASG B   2      19.387  27.893  61.9950  0.00  0.00     0.000 C
ATOM     17  C3  ASG B   2      18.276  28.667  62.7100  0.00  0.00     0.000 C
ATOM     18  C4  ASG B   2      18.831  29.953  63.2920  0.00  0.00     0.000 C
ATOM     19  C5  ASG B   2      19.524  30.742  62.1850  0.00  0.00     0.000 C
ATOM     20  O5  ASG B   2      20.511  29.918  61.5350  0.00  0.00     0.000 O
ATOM     21   C  ASG B   2      20.247  31.947  62.6980  0.00  0.00     0.000 C
ATOM     22   O  ASG B   2      21.028  32.496  61.6660  0.00  0.00     0.000 O
ATOM     24  HD  ASG B   2      21.548  32.938  61.1320  0.00  0.00     0.000 HD
BRANCH 16 26
ATOM     24   N  ASG B   2      18.852  26.614  61.5870  0.00  0.00     0.000 N
ATOM     26  HD  ASG B   2      19.418  27.055  61.1020  0.00  0.00     0.000 HD
ATOM     26   C  ASG B   2      19.007  25.475  62.2870  0.00  0.00     0.000 C
ATOM     27   C  ASG B   2      18.113  24.345  61.9050  0.00  0.00     0.000 C
ATOM     28   O  ASG B   2      19.834  25.378  63.1840  0.00  0.00     0.000 OA
ENDBRANCH 16 26
BRANCH 18 29
ATOM     29   O  ASG B   2      19.748  29.560  64.3710  0.00  0.00     0.000 O
ATOM     30   O  ASG B   2      19.220  31.492  65.7960  0.00  0.00     0.000 OA
ATOM     31   O  ASG B   2      18.370  29.293  66.3730  0.00  0.00     0.000 OA
ATOM     32   O  ASG B   2      20.733  29.766  66.5670  0.00  0.00     0.000 OA
ATOM     33   S  ASG B   2      19.482  30.067  65.8720  0.00  0.00     0.000 S
ENDBRANCH 18 29
BRANCH 15 34
ATOM     34  O4  ASG B   3      21.009  28.155  60.1680  0.00  0.00     0.000 O
BRANCH 34 38
ATOM     35  C1  GCT B   3      22.075  26.310  56.7290  0.00  0.00     0.000 C
ATOM     36  C2  GCT B   3      22.518  27.754  56.8160  0.00  0.00     0.000 C
ATOM     37  C3  GCT B   3      22.483  28.246  58.2560  0.00  0.00     0.000 C
ATOM     38  C4  GCT B   3      21.054  28.120  58.7970  0.00  0.00     0.000 C
ATOM     39  C5  GCT B   3      20.318  26.894  58.2120  0.00  0.00     0.000 C
ATOM     40  O5  GCT B   3      21.316  25.945  57.8770  0.00  0.00     0.000 O
ATOM     41   O  GCT B   3      23.845  27.800  56.3120  0.00  0.00     0.000 O
ATOM     43  HD  GCT B   3      24.162  27.775  55.5060  0.00  0.00     0.000 HD
ATOM     43   O  GCT B   3      22.980  29.600  58.2920  0.00  0.00     0.000 O
ATOM     45  HD  GCT B   3      23.296  29.576  57.4860  0.00  0.00     0.000 HD
BRANCH 39 45
ATOM     45   C  GCT B   3      19.405  27.102  57.0230  0.00  0.00     0.000 C
ATOM     46   O  GCT B   3      19.395  28.226  56.4300  0.00  0.00     0.000 OA
ATOM     47   O  GCT B   3      18.702  26.145  56.6590  0.00  0.00     0.000 OA
ENDBRANCH 39 45
BRANCH 35 48
ATOM     48  O3  ASG B   4      21.862  25.996  55.4690  0.00  0.00     0.000 O
BRANCH 48 51
ATOM     49  C1  ASG B   4      23.075  22.521  55.0900  0.00  0.00     0.000 C
ATOM     50  C2  ASG B   4      23.072  24.022  55.4230  0.00  0.00     0.000 C
ATOM     51  C3  ASG B   4      21.659  24.597  55.3710  0.00  0.00     0.000 C
ATOM     52  C4  ASG B   4      20.959  24.220  54.0750  0.00  0.00     0.000 C
ATOM     53  C5  ASG B   4      21.017  22.702  53.9280  0.00  0.00     0.000 C
ATOM     54  O5  ASG B   4      22.396  22.286  53.8670  0.00  0.00     0.000 O
BRANCH 50 57
ATOM     55   N  ASG B   4      23.816  23.562  56.5730  0.00  0.00     0.000 N
ATOM     57  HD  ASG B   4      24.603  23.569  56.2110  0.00  0.00     0.000 HD
ATOM     57   O  ASG B   4      25.731  24.555  55.9730  0.00  0.00     0.000 OA
ATOM     58   C  ASG B   4      25.071  23.954  56.8140  0.00  0.00     0.000 C
ATOM     59   C  ASG B   4      25.626  23.563  58.1490  0.00  0.00     0.000 C
ENDBRANCH 50 57
BRANCH 52 60
ATOM     60   O  ASG B   4      21.716  24.971  53.0400  0.00  0.00     0.000 O
ATOM     61   O  ASG B   4      19.821  24.898  51.4170  0.00  0.00     0.000 OA
ATOM     62   O  ASG B   4      21.783  26.141  50.8940  0.00  0.00     0.000 OA
ATOM     63   O  ASG B   4      21.932  23.764  51.1060  0.00  0.00     0.000 OA
ATOM     64   S  ASG B   4      21.240  24.992  51.5100  0.00  0.00     0.000 S
ENDBRANCH 52 60
ATOM     65   O  ASG B   4      20.111  20.749  52.8120  0.00  0.00     0.000 O
ATOM     67  HD  ASG B   4      20.913  20.456  52.6670  0.00  0.00     0.000 HD
ATOM     67   O  ASG B   4      20.111  20.749  52.8120  0.00  0.00     0.000 O
ATOM     69  HD  ASG B   4      20.913  20.456  52.6670  0.00  0.00     0.000 HD
ENDBRANCH 48 51
ENDBRANCH 35 48
ENDBRANCH 34 38
ENDBRANCH 15 34
ENDBRANCH 14 17
ENDBRANCH 1 14
TORSDOF 12
ENDMDL
MODEL 98
REMARK VINA RESULT:      -6.8     23.310     26.506
ROOT
ATOM      1  C1  GAD B   1      16.857  56.343  51.2600  0.00  0.00     0.000 C
ATOM      2  C2  GAD B   1      15.464  56.036  50.7010  0.00  0.00     0.000 C
ATOM      3  C3  GAD B   1      14.455  57.075  51.2040  0.00  0.00     0.000 C
ATOM      4  C4  GAD B   1      14.753  57.627  52.6000  0.00  0.00     0.000 C
ATOM      5  C5  GAD B   1      15.880  57.368  53.2940  0.00  0.00     0.000 C
ATOM      6  O5  GAD B   1      16.834  56.475  52.6890  0.00  0.00     0.000 O
ATOM      7   O  GAD B   1      15.487  55.926  49.2300  0.00  0.00     0.000 O
ATOM      9  HD  GAD B   1      16.337  55.870  49.3880  0.00  0.00     0.000 HD
ATOM      9   O  GAD B   1      13.118  56.530  51.2660  0.00  0.00     0.000 O
ATOM     11  HD  GAD B   1      13.967  56.474  51.4240  0.00  0.00     0.000 HD
ENDROOT
BRANCH 5 11
ATOM     11   C  GAD B   1      16.226  57.981  54.5980  0.00  0.00     0.000 C
ATOM     12   O  GAD B   1      16.000  59.224  54.7280  0.00  0.00     0.000 OA
ATOM     13   O  GAD B   1      16.805  57.279  55.5070  0.00  0.00     0.000 OA
ENDBRANCH 5 11
BRANCH 1 14
ATOM     14  O3  ASG B   2      17.845  55.434  51.3570  0.00  0.00     0.000 O
BRANCH 14 17
ATOM     15  C1  ASG B   2      19.252  52.863  53.7430  0.00  0.00     0.000 C
ATOM     16  C2  ASG B   2      19.230  54.161  52.9230  0.00  0.00     0.000 C
ATOM     17  C3  ASG B   2      17.916  54.235  52.1380  0.00  0.00     0.000 C
ATOM     18  C4  ASG B   2      17.785  53.027  51.2310  0.00  0.00     0.000 C
ATOM     19  C5  ASG B   2      17.938  51.759  52.0650  0.00  0.00     0.000 C
ATOM     20  O5  ASG B   2      19.172  51.803  52.8090  0.00  0.00     0.000 O
ATOM     21   C  ASG B   2      17.988  50.519  51.2300  0.00  0.00     0.000 C
ATOM     22   O  ASG B   2      18.341  49.426  52.0410  0.00  0.00     0.000 O
ATOM     24  HD  ASG B   2      18.545  48.671  52.4140  0.00  0.00     0.000 HD
BRANCH 16 26
ATOM     24   N  ASG B   2      19.474  55.354  53.7000  0.00  0.00     0.000 N
ATOM     26  HD  ASG B   2      19.780  54.578  53.9350  0.00  0.00     0.000 HD
ATOM     26   C  ASG B   2      20.119  56.438  53.2330  0.00  0.00     0.000 C
ATOM     27   C  ASG B   2      19.979  57.683  54.0410  0.00  0.00     0.000 C
ATOM     28   O  ASG B   2      20.780  56.400  52.2030  0.00  0.00     0.000 OA
ENDBRANCH 16 26
BRANCH 18 29
ATOM     29   O  ASG B   2      18.826  53.162  50.2040  0.00  0.00     0.000 O
ATOM     30   O  ASG B   2      17.568  51.940  48.4810  0.00  0.00     0.000 OA
ATOM     31   O  ASG B   2      17.791  54.353  48.3350  0.00  0.00     0.000 OA
ATOM     32   O  ASG B   2      19.715  52.936  47.9680  0.00  0.00     0.000 OA
ATOM     33   S  ASG B   2      18.430  53.096  48.6480  0.00  0.00     0.000 S
ENDBRANCH 18 29
BRANCH 15 34
ATOM     34  O4  ASG B   3      20.415  52.700  54.5040  0.00  0.00     0.000 O
BRANCH 34 38
ATOM     35  C1  GCT B   3      19.317  53.897  58.2090  0.00  0.00     0.000 C
ATOM     36  C2  GCT B   3      20.795  53.606  58.0690  0.00  0.00     0.000 C
ATOM     37  C3  GCT B   3      21.208  53.593  56.6040  0.00  0.00     0.000 C
ATOM     38  C4  GCT B   3      20.406  52.516  55.8630  0.00  0.00     0.000 C
ATOM     39  C5  GCT B   3      18.977  52.365  56.4310  0.00  0.00     0.000 C
ATOM     40  O5  GCT B   3      18.630  53.618  56.9940  0.00  0.00     0.000 O
ATOM     41   O  GCT B   3      21.478  54.640  58.7640  0.00  0.00     0.000 O
ATOM     43  HD  GCT B   3      21.610  54.783  59.6080  0.00  0.00     0.000 HD
ATOM     43   O  GCT B   3      22.634  53.381  56.5300  0.00  0.00     0.000 O
ATOM     45  HD  GCT B   3      22.766  53.524  57.3740  0.00  0.00     0.000 HD
BRANCH 39 45
ATOM     45   C  GCT B   3      18.717  51.272  57.4450  0.00  0.00     0.000 C
ATOM     46   O  GCT B   3      19.684  50.557  57.8580  0.00  0.00     0.000 OA
ATOM     47   O  GCT B   3      17.552  51.124  57.8490  0.00  0.00     0.000 OA
ENDBRANCH 39 45
BRANCH 35 48
ATOM     48  O3  ASG B   4      18.939  53.644  59.4440  0.00  0.00     0.000 O
BRANCH 48 51
ATOM     49  C1  ASG B   4      16.818  56.200  61.0750  0.00  0.00     0.000 C
ATOM     50  C2  ASG B   4      18.069  55.505  60.5110  0.00  0.00     0.000 C
ATOM     51  C3  ASG B   4      17.695  54.278  59.6840  0.00  0.00     0.000 C
ATOM     52  C4  ASG B   4      16.740  53.373  60.4450  0.00  0.00     0.000 C
ATOM     53  C5  ASG B   4      15.544  54.210  60.8890  0.00  0.00     0.000 C
ATOM     54  O5  ASG B   4      16.002  55.263  61.7590  0.00  0.00     0.000 O
BRANCH 50 57
ATOM     55   N  ASG B   4      18.396  56.822  60.0120  0.00  0.00     0.000 N
ATOM     57  HD  ASG B   4      18.770  57.127  60.7310  0.00  0.00     0.000 HD
ATOM     57   O  ASG B   4      20.139  57.121  61.3850  0.00  0.00     0.000 OA
ATOM     58   C  ASG B   4      19.479  57.491  60.4190  0.00  0.00     0.000 C
ATOM     59   C  ASG B   4      19.794  58.740  59.6550  0.00  0.00     0.000 C
ENDBRANCH 50 57
BRANCH 52 60
ATOM     60   O  ASG B   4      17.573  52.846  61.5570  0.00  0.00     0.000 O
ATOM     61   O  ASG B   4      17.173  50.471  60.9030  0.00  0.00     0.000 OA
ATOM     62   O  ASG B   4      18.689  50.975  62.6690  0.00  0.00     0.000 OA
ATOM     63   O  ASG B   4      16.368  51.480  62.9450  0.00  0.00     0.000 OA
ATOM     64   S  ASG B   4      17.484  51.311  62.0100  0.00  0.00     0.000 S
ENDBRANCH 52 60
ATOM     65   O  ASG B   4      13.257  54.189  61.6940  0.00  0.00     0.000 O
ATOM     67  HD  ASG B   4      13.462  54.772  62.3010  0.00  0.00     0.000 HD
ATOM     67   O  ASG B   4      13.257  54.189  61.6940  0.00  0.00     0.000 O
ATOM     69  HD  ASG B   4      13.462  54.772  62.3010  0.00  0.00     0.000 HD
ENDBRANCH 48 51
ENDBRANCH 35 48
ENDBRANCH 34 38
ENDBRANCH 15 34
ENDBRANCH 14 17
ENDBRANCH 1 14
TORSDOF 12
ENDMDL
MODEL 99
REMARK VINA RESULT:      -6.7     22.595     29.327
ROOT
ATOM      1  C1  GAD B   1      18.061  30.354  63.7960  0.00  0.00     0.000 C
ATOM      2  C2  GAD B   1      17.572  30.697  62.3850  0.00  0.00     0.000 C
ATOM      3  C3  GAD B   1      16.237  29.995  62.1060  0.00  0.00     0.000 C
ATOM      4  C4  GAD B   1      16.073  28.642  62.8020  0.00  0.00     0.000 C
ATOM      5  C5  GAD B   1      16.933  28.148  63.7150  0.00  0.00     0.000 C
ATOM      6  O5  GAD B   1      18.103  28.935  64.0090  0.00  0.00     0.000 O
ATOM      7   O  GAD B   1      17.505  32.156  62.1790  0.00  0.00     0.000 O
ATOM      9  HD  GAD B   1      17.992  32.138  62.8950  0.00  0.00     0.000 HD
ATOM      9   O  GAD B   1      16.055  29.744  60.6940  0.00  0.00     0.000 O
ATOM     11  HD  GAD B   1      16.541  29.726  61.4110  0.00  0.00     0.000 HD
ENDROOT
BRANCH 5 11
ATOM     11   C  GAD B   1      16.730  26.891  64.4720  0.00  0.00     0.000 C
ATOM     12   O  GAD B   1      16.780  25.807  63.8110  0.00  0.00     0.000 OA
ATOM     13   O  GAD B   1      16.437  26.931  65.7240  0.00  0.00     0.000 OA
ENDBRANCH 5 11
BRANCH 1 14
ATOM     14  O3  ASG B   2      19.343  30.455  64.1920  0.00  0.00     0.000 O
BRANCH 14 17
ATOM     15  C1  ASG B   2      22.706  31.166  62.6230  0.00  0.00     0.000 C
ATOM     16  C2  ASG B   2      21.584  30.305  63.2200  0.00  0.00     0.000 C
ATOM     17  C3  ASG B   2      20.421  31.213  63.6300  0.00  0.00     0.000 C
ATOM     18  C4  ASG B   2      20.898  32.243  64.6370  0.00  0.00     0.000 C
ATOM     19  C5  ASG B   2      22.093  32.992  64.0550  0.00  0.00     0.000 C
ATOM     20  O5  ASG B   2      23.110  32.056  63.6460  0.00  0.00     0.000 O
ATOM     21   C  ASG B   2      22.734  33.914  65.0410  0.00  0.00     0.000 C
ATOM     22   O  ASG B   2      23.941  34.401  64.5070  0.00  0.00     0.000 O
ATOM     24  HD  ASG B   2      24.695  34.778  64.3080  0.00  0.00     0.000 HD
BRANCH 16 26
ATOM     24   N  ASG B   2      21.063  29.252  62.3790  0.00  0.00     0.000 N
ATOM     26  HD  ASG B   2      21.841  29.608  62.2450  0.00  0.00     0.000 HD
ATOM     26   C  ASG B   2      20.733  28.026  62.8250  0.00  0.00     0.000 C
ATOM     27   C  ASG B   2      19.904  27.196  61.9070  0.00  0.00     0.000 C
ATOM     28   O  ASG B   2      21.095  27.621  63.9230  0.00  0.00     0.000 OA
ENDBRANCH 16 26
BRANCH 18 29
ATOM     29   O  ASG B   2      21.230  31.505  65.8630  0.00  0.00     0.000 O
ATOM     30   O  ASG B   2      20.481  33.289  67.3800  0.00  0.00     0.000 OA
ATOM     31   O  ASG B   2      19.140  31.284  67.1130  0.00  0.00     0.000 OA
ATOM     32   O  ASG B   2      21.267  31.173  68.2560  0.00  0.00     0.000 OA
ATOM     33   S  ASG B   2      20.464  31.846  67.2350  0.00  0.00     0.000 S
ENDBRANCH 18 29
BRANCH 15 34
ATOM     34  O4  ASG B   3      23.820  30.427  62.2080  0.00  0.00     0.000 O
BRANCH 34 38
ATOM     35  C1  GCT B   3      22.641  28.807  58.6940  0.00  0.00     0.000 C
ATOM     36  C2  GCT B   3      23.982  28.305  59.1850  0.00  0.00     0.000 C
ATOM     37  C3  GCT B   3      24.161  28.598  60.6680  0.00  0.00     0.000 C
ATOM     38  C4  GCT B   3      24.070  30.112  60.8970  0.00  0.00     0.000 C
ATOM     39  C5  GCT B   3      23.075  30.787  59.9260  0.00  0.00     0.000 C
ATOM     40  O5  GCT B   3      22.123  29.800  59.5720  0.00  0.00     0.000 O
ATOM     41   O  GCT B   3      23.997  26.904  58.9540  0.00  0.00     0.000 O
ATOM     43  HD  GCT B   3      24.111  26.435  58.2350  0.00  0.00     0.000 HD
ATOM     43   O  GCT B   3      25.420  28.040  61.0980  0.00  0.00     0.000 O
ATOM     45  HD  GCT B   3      25.534  27.571  60.3790  0.00  0.00     0.000 HD
BRANCH 39 45
ATOM     45   C  GCT B   3      23.621  31.429  58.6690  0.00  0.00     0.000 C
ATOM     46   O  GCT B   3      24.810  31.175  58.2990  0.00  0.00     0.000 OA
ATOM     47   O  GCT B   3      22.866  32.181  58.0300  0.00  0.00     0.000 OA
ENDBRANCH 39 45
BRANCH 35 48
ATOM     48  O3  ASG B   4      22.622  28.781  57.3790  0.00  0.00     0.000 O
BRANCH 48 51
ATOM     49  C1  ASG B   4      19.409  28.294  55.6110  0.00  0.00     0.000 C
ATOM     50  C2  ASG B   4      20.706  27.964  56.3680  0.00  0.00     0.000 C
ATOM     51  C3  ASG B   4      21.355  29.227  56.9270  0.00  0.00     0.000 C
ATOM     52  C4  ASG B   4      21.485  30.299  55.8580  0.00  0.00     0.000 C
ATOM     53  C5  ASG B   4      20.105  30.529  55.2470  0.00  0.00     0.000 C
ATOM     54  O5  ASG B   4      19.646  29.303  54.6440  0.00  0.00     0.000 O
BRANCH 50 57
ATOM     55   N  ASG B   4      20.547  27.037  57.4640  0.00  0.00     0.000 N
ATOM     57  HD  ASG B   4      20.264  26.361  57.0030  0.00  0.00     0.000 HD
ATOM     57   O  ASG B   4      20.848  25.205  56.2130  0.00  0.00     0.000 OA
ATOM     58   C  ASG B   4      20.735  25.722  57.3200  0.00  0.00     0.000 C
ATOM     59   C  ASG B   4      20.744  24.925  58.5880  0.00  0.00     0.000 C
ENDBRANCH 50 57
BRANCH 52 60
ATOM     60   O  ASG B   4      22.490  29.735  54.9200  0.00  0.00     0.000 O
ATOM     61   O  ASG B   4      23.923  31.777  55.0240  0.00  0.00     0.000 OA
ATOM     62   O  ASG B   4      24.671  29.864  53.8210  0.00  0.00     0.000 OA
ATOM     63   O  ASG B   4      22.735  31.040  53.0540  0.00  0.00     0.000 OA
ATOM     64   S  ASG B   4      23.574  30.670  54.1980  0.00  0.00     0.000 S
ENDBRANCH 52 60
ATOM     65   O  ASG B   4      18.707  32.004  53.9240  0.00  0.00     0.000 O
ATOM     67  HD  ASG B   4      18.430  31.329  53.4580  0.00  0.00     0.000 HD
ATOM     67   O  ASG B   4      18.707  32.004  53.9240  0.00  0.00     0.000 O
ATOM     69  HD  ASG B   4      18.430  31.329  53.4580  0.00  0.00     0.000 HD
ENDBRANCH 48 51
ENDBRANCH 35 48
ENDBRANCH 34 38
ENDBRANCH 15 34
ENDBRANCH 14 17
ENDBRANCH 1 14
TORSDOF 12
ENDMDL
MODEL 100
REMARK VINA RESULT:      -6.7     24.399     30.428
ROOT
ATOM      1  C1  GAD B   1      19.901  29.610  62.1450  0.00  0.00     0.000 C
ATOM      2  C2  GAD B   1      20.065  31.066  62.5920  0.00  0.00     0.000 C
ATOM      3  C3  GAD B   1      18.944  31.447  63.5660  0.00  0.00     0.000 C
ATOM      4  C4  GAD B   1      17.611  30.737  63.3100  0.00  0.00     0.000 C
ATOM      5  C5  GAD B   1      17.441  29.741  62.4180  0.00  0.00     0.000 C
ATOM      6  O5  GAD B   1      18.585  29.362  61.6290  0.00  0.00     0.000 O
ATOM      7   O  GAD B   1      21.411  31.311  63.1450  0.00  0.00     0.000 O
ATOM      9  HD  GAD B   1      21.557  30.554  62.7500  0.00  0.00     0.000 HD
ATOM      9   O  GAD B   1      18.658  32.863  63.5200  0.00  0.00     0.000 O
ATOM     11  HD  GAD B   1      18.804  32.106  63.1260  0.00  0.00     0.000 HD
ENDROOT
BRANCH 5 11
ATOM     11   C  GAD B   1      16.185  28.976  62.2380  0.00  0.00     0.000 C
ATOM     12   O  GAD B   1      15.617  28.546  63.2900  0.00  0.00     0.000 OA
ATOM     13   O  GAD B   1      15.758  28.705  61.0550  0.00  0.00     0.000 OA
ENDBRANCH 5 11
BRANCH 1 14
ATOM     14  O3  ASG B   2      20.440  29.104  61.0200  0.00  0.00     0.000 O
BRANCH 14 17
ATOM     15  C1  ASG B   2      19.591  26.746  58.1930  0.00  0.00     0.000 C
ATOM     16  C2  ASG B   2      20.308  27.220  59.4650  0.00  0.00     0.000 C
ATOM     17  C3  ASG B   2      19.802  28.617  59.8340  0.00  0.00     0.000 C
ATOM     18  C4  ASG B   2      20.053  29.579  58.6890  0.00  0.00     0.000 C
ATOM     19  C5  ASG B   2      19.432  29.012  57.4160  0.00  0.00     0.000 C
ATOM     20  O5  ASG B   2      19.923  27.677  57.1800  0.00  0.00     0.000 O
ATOM     21   C  ASG B   2      19.772  29.811  56.1990  0.00  0.00     0.000 C
ATOM     22   O  ASG B   2      19.349  29.117  55.0520  0.00  0.00     0.000 O
ATOM     24  HD  ASG B   2      19.143  28.808  54.2700  0.00  0.00     0.000 HD
BRANCH 16 26
ATOM     24   N  ASG B   2      21.381  26.779  60.3260  0.00  0.00     0.000 N
ATOM     26  HD  ASG B   2      21.257  27.614  60.1320  0.00  0.00     0.000 HD
ATOM     26   C  ASG B   2      21.194  26.118  61.4830  0.00  0.00     0.000 C
ATOM     27   C  ASG B   2      22.395  25.449  62.0580  0.00  0.00     0.000 C
ATOM     28   O  ASG B   2      20.098  26.071  62.0290  0.00  0.00     0.000 OA
ENDBRANCH 16 26
BRANCH 18 29
ATOM     29   O  ASG B   2      21.510  29.738  58.5900  0.00  0.00     0.000 O
ATOM     30   O  ASG B   2      21.407  32.084  57.8610  0.00  0.00     0.000 OA
ATOM     31   O  ASG B   2      22.105  31.548  60.1230  0.00  0.00     0.000 OA
ATOM     32   O  ASG B   2      23.540  31.006  58.2550  0.00  0.00     0.000 OA
ATOM     33   S  ASG B   2      22.167  31.199  58.7230  0.00  0.00     0.000 S
ENDBRANCH 18 29
BRANCH 15 34
ATOM     34  O4  ASG B   3      19.981  25.470  57.7710  0.00  0.00     0.000 O
BRANCH 34 38
ATOM     35  C1  GCT B   3      19.725  21.461  58.2490  0.00  0.00     0.000 C
ATOM     36  C2  GCT B   3      18.768  22.021  57.2180  0.00  0.00     0.000 C
ATOM     37  C3  GCT B   3      19.202  23.411  56.7760  0.00  0.00     0.000 C
ATOM     38  C4  GCT B   3      19.234  24.341  57.9950  0.00  0.00     0.000 C
ATOM     39  C5  GCT B   3      19.660  23.596  59.2800  0.00  0.00     0.000 C
ATOM     40  O5  GCT B   3      20.466  22.506  58.8690  0.00  0.00     0.000 O
ATOM     41   O  GCT B   3      18.792  21.123  56.1170  0.00  0.00     0.000 O
ATOM     43  HD  GCT B   3      18.432  20.345  55.9940  0.00  0.00     0.000 HD
ATOM     43   O  GCT B   3      18.299  23.868  55.7460  0.00  0.00     0.000 O
ATOM     45  HD  GCT B   3      17.940  23.089  55.6230  0.00  0.00     0.000 HD
BRANCH 39 45
ATOM     45   C  GCT B   3      18.579  23.095  60.2130  0.00  0.00     0.000 C
ATOM     46   O  GCT B   3      17.362  23.150  59.8500  0.00  0.00     0.000 OA
ATOM     47   O  GCT B   3      18.931  22.628  61.3080  0.00  0.00     0.000 OA
ENDBRANCH 39 45
BRANCH 35 48
ATOM     48  O3  ASG B   4      19.192  20.392  58.8010  0.00  0.00     0.000 O
BRANCH 48 51
ATOM     49  C1  ASG B   4      21.266  17.417  59.5330  0.00  0.00     0.000 C
ATOM     50  C2  ASG B   4      20.384  18.408  58.7560  0.00  0.00     0.000 C
ATOM     51  C3  ASG B   4      20.192  19.706  59.5350  0.00  0.00     0.000 C
ATOM     52  C4  ASG B   4      19.751  19.430  60.9630  0.00  0.00     0.000 C
ATOM     53  C5  ASG B   4      20.757  18.471  61.5940  0.00  0.00     0.000 C
ATOM     54  O5  ASG B   4      20.765  17.238  60.8480  0.00  0.00     0.000 O
BRANCH 50 57
ATOM     55   N  ASG B   4      19.120  18.373  58.0560  0.00  0.00     0.000 N
ATOM     57  HD  ASG B   4      19.433  18.238  57.2600  0.00  0.00     0.000 HD
ATOM     57   O  ASG B   4      19.856  17.067  56.3930  0.00  0.00     0.000 OA
ATOM     58   C  ASG B   4      18.924  17.613  56.9740  0.00  0.00     0.000 C
ATOM     59   C  ASG B   4      17.508  17.522  56.4950  0.00  0.00     0.000 C
ENDBRANCH 50 57
BRANCH 52 60
ATOM     60   O  ASG B   4      18.383  18.873  60.8040  0.00  0.00     0.000 O
ATOM     61   O  ASG B   4      17.629  19.751  63.0160  0.00  0.00     0.000 OA
ATOM     62   O  ASG B   4      16.066  18.689  61.5660  0.00  0.00     0.000 OA
ATOM     63   O  ASG B   4      17.864  17.406  62.4840  0.00  0.00     0.000 OA
ATOM     64   S  ASG B   4      17.392  18.726  62.0550  0.00  0.00     0.000 S
ENDBRANCH 52 60
ATOM     65   O  ASG B   4      21.629  17.531  63.6520  0.00  0.00     0.000 O
ATOM     67  HD  ASG B   4      21.598  16.738  63.3060  0.00  0.00     0.000 HD
ATOM     67   O  ASG B   4      21.629  17.531  63.6520  0.00  0.00     0.000 O
ATOM     69  HD  ASG B   4      21.598  16.738  63.3060  0.00  0.00     0.000 HD
ENDBRANCH 48 51
ENDBRANCH 35 48
ENDBRANCH 34 38
ENDBRANCH 15 34
ENDBRANCH 14 17
ENDBRANCH 1 14
TORSDOF 12
ENDMDL
